data_image0
_chemical_formula_structural       FeS2FeS2FeSFeS3FeS2FeS2FeSFeS3FeS2FeS2FeHFeNS2H2C3H2C6H4C4HC3HSH3C6H5C2H2C3H3C5H4NC5HCH4CNC2H2C2H4CNC6H8C4HC3HCHC2H3CN2HCH4CHC2HC2HC3H3CH2C2HCH4CFeSHFeS2FeSFeS3FeS2FeS2FeCFeS3FeSHFeS2FeSFeS3C6H4C6H4C5NH2C2H3CHC3HC2H4C6H5C2H5C2HNC2H3C2HCHNHNCHCSHCH2CH2C3H2C2NSC3H2CH2CHCNC6H8CH2CHCSH2CH3CHCH2CFeS2FeS2FeSFeS3FeS2FeSHFeSFeS3FeSHFeS2FeSFeS3C6H4C3H4C3HC2H4NC2H2C6H4C6H4C5H2C2H4SHC3HCH2NC6H7N2HC5HCHC4NC6H8NC2HCSHC5H8CH9CHNHCHNCHCH2FeS2FeS2FeCFeS3FeS2FeS2FeSFeS3FeS2FeS2FeSFeS3HC2H3CH4C5H2C6H3C4HC7H4C6H2C6H6C2H4C3HCH2CNC3HC2H9C4H2NHC3H3CH2C5H4NC2HCSHNH3NH3CHCH3C2HCFeS2FeS2FeSFeS3FeS2FeS2FeHFeHS2FeS2FeS2FeSFeS3C2HNC7H4C2H2SCNCHC2HC7H4C6H4C3HCH2C2H3NC4HCH3C2H8C3H4CHCH3C5HC2H2SNHC2H2C2H2C2NH2CNHCH2C2H2SH5CHC2H4CH4C2HCH3NHC2NHFeS2FeS2FeCFeS3FeS2FeS2FeSFeS3FeS2FeS2FeHFeS3C6H4C3H3CHNHCHC6H4C6H2CH2C5H2C6H6C3HC2H3CHNC3HCSH3C2H2CH2SCNCHNHC2H3C3HCNH4CH3CH2CHC3H2CH2CH3C2H2NH3C3HCH4C3HFeSHFeSHFeSFeS3FeS2FeS2FeSFeS3FeS2FeSCFeSFeS3C3H2C6H3C2NCH2C3H5C6H6C6H4C6H2CHNCH3C2H3CH3CHC3HC2H6CH2CNC6H5C2SC2HCHNH2C2HCH2NC4HC2H7C2HCHNH2SHCHCS2H2FeS2FeS2FeSFeS3FeS2FeS2FeHFeS3FeS2FeS2FeSFeS3HC7H4C3H3NCH2C6H4CNHCNC5H3C6H3C5H4CH2CNH2C2H4CH4CNC6H4CH3C3H3CH2CHC3H4C2H3C3H3CHCHC3H2CHC4HFeSHFeSCFeSFeS3FeSCFeS2FeSFeS3FeS2FeS2FeSFeS3C2HC2HCHC6H5C2H2C5H5C6H4C7H3CH2CH2SH4CHCHC4H2C3H3C2NC2HCH2CNCHCH2CHCH5CH3NH3CNHCH2C2HC2NHCSC3HCH2C2H2C2H3NFeS2FeS2FeSFeS3FeS2FeS2FeHFeS3FeS2FeS2FeSFeS3CHCH4C6H4C4HC6H4C3HSC6H5CNCHC4H6CHCH2NH7C4H2C2HCH4CNCHNC4HC3H2CH2CHC3H3CH2NH2C3H3CH3C2HCH2C3H2C2H2CH3CSNHCHFeSCFeSCFeSFeS3FeS2FeS2FeSFeS3FeS2FeS2FeSFeS3C5H5C3H6C7H5C4HNH2SNC2H2C4HC6H6C2HCHC3NC5H5C5H4CHC3HC3HCHCHCHCH3CHCNHNH5CHSH4CHC4HCHCH3CFeSCFeS2FeSFeS3FeS2FeS2FeCFeS3FeS2FeS2FeSFeS3H2CHC2NC4H4C6H4C5H2C6H4C2HC3HCH2C4HNC2H4C2H3C2HC3HCNH3C2H2CNC6H9SHCHC2HSHNHCH2NH2C2H3C2H5C2H3C2H5C3H4CHCH4FeS2FeS2FeSFeS3FeS2FeSHFeSFeS3FeS2FeS2FeSFeS3C6H5C3HC3HC2H2CHC2H3C6H4C6H4C5H3CHNC6H9C2HCH4C2H4NC5H6C2HCHCHC3H2NCHCH3NCHCH3CHNHC2HCHCHCHCHSHCFeS2FeS2FeCFeS3FeS2FeS2FeSFeS3FeS2FeS2FeHFeS3C5H3CNC9H4C3H4C2H3C3H2C6H4C6H4C3NH3C2SHSH2NH2C2HC2NHC3NC6H8CH5C2HC2H2CHCH2CH9CH2CHC2HC3H2NC5FeS2FeS2FeSFeS3FeS2FeS2FeSFeS3FeSCFeS2FeSFeS3C2H2C7H8C2HC6H4C6H4CHCNHC5H3CHC2HC2H4CH2C3HCHCH5CH3CNC6HCH2CHNC2H4C3HNHCNC3H3CNCH2CH4C2HCHC2H3CHSCFeS2FeSCFeSFeS3FeS2FeSHFeSFeS3FeS2FeS2FeHFeS3C6H4C6H4C4H4C8H4CHCH2C6HNH2C2SH2NC6H9C3NCH2C4HNC5H6CH3CH2CSH3CHNCHCH2C4HCH2CH3CHC4H5NHCHSCHCH
_chemical_formula_sum              "Fe192 S384 H1152 N96 C1152"
_cell_length_a       57.9968
_cell_length_b       58.1398
_cell_length_c       58.1768
_cell_angle_alpha    89.8912
_cell_angle_beta     89.8563
_cell_angle_gamma    89.7093

_space_group_name_H-M_alt    "P 1"
_space_group_IT_number       1

loop_
  _space_group_symop_operation_xyz
  'x, y, z'

loop_
  _atom_site_type_symbol
  _atom_site_label
  _atom_site_symmetry_multiplicity
  _atom_site_fract_x
  _atom_site_fract_y
  _atom_site_fract_z
  _atom_site_occupancy
  Fe  Fe1       1.0  0.20089  0.39809  0.12222  1.0000
  S   S1        1.0  0.16923  0.37593  0.12019  1.0000
  S   S2        1.0  0.23217  0.38175  0.10437  1.0000
  Fe  Fe2       1.0  0.17163  0.43972  0.13895  1.0000
  S   S3        1.0  0.13839  0.42024  0.13731  1.0000
  S   S4        1.0  0.17364  0.47742  0.14956  1.0000
  Fe  Fe3       1.0  0.15886  0.39180  0.15415  1.0000
  S   S5        1.0  0.14489  0.36856  0.18260  1.0000
  Fe  Fe4       1.0  0.15201  0.40624  0.10366  1.0000
  S   S6        1.0  0.13245  0.40764  0.06976  1.0000
  S   S7        1.0  0.19180  0.41185  0.15745  1.0000
  S   S8        1.0  0.18384  0.42789  0.10418  1.0000
  Fe  Fe5       1.0  0.36372  0.35079  0.11391  1.0000
  S   S9        1.0  0.35494  0.31667  0.09862  1.0000
  S   S10       1.0  0.33749  0.37146  0.13447  1.0000
  Fe  Fe6       1.0  0.41486  0.34671  0.09969  1.0000
  S   S11       1.0  0.40916  0.31254  0.08259  1.0000
  S   S12       1.0  0.45154  0.36053  0.09861  1.0000
  Fe  Fe7       1.0  0.37668  0.32904  0.06867  1.0000
  S   S13       1.0  0.36159  0.32609  0.03268  1.0000
  Fe  Fe8       1.0  0.38819  0.30348  0.11398  1.0000
  S   S14       1.0  0.39591  0.27546  0.14067  1.0000
  S   S15       1.0  0.38382  0.36385  0.08349  1.0000
  S   S16       1.0  0.39547  0.33715  0.13151  1.0000
  Fe  Fe9       1.0  0.40710  0.14106  0.17096  1.0000
  S   S17       1.0  0.43055  0.15035  0.20019  1.0000
  S   S18       1.0  0.38721  0.16599  0.14768  1.0000
  Fe  Fe10      1.0  0.42193  0.09018  0.17185  1.0000
  S   S19       1.0  0.44742  0.09670  0.20013  1.0000
  S   S20       1.0  0.42058  0.05406  0.15627  1.0000
  Fe  Fe11      1.0  0.41881  0.11722  0.21676  1.0000
  H   H1        1.0  0.47958  0.41517  0.13899  1.0000
  Fe  Fe12      1.0  0.45712  0.12903  0.18137  1.0000
  N   N1        1.0  0.32535  0.38599  0.02254  1.0000
  S   S21       1.0  0.39287  0.10935  0.18895  1.0000
  S   S22       1.0  0.43412  0.12099  0.15160  1.0000
  H   H2        1.0  0.17739  0.41409  0.02832  1.0000
  H   H3        1.0  0.43745  0.29746  0.12316  1.0000
  C   C1        1.0  0.19787  0.38300  0.05505  1.0000
  C   C2        1.0  0.39839  0.03360  0.16073  1.0000
  C   C3        1.0  0.37619  0.04019  0.16756  1.0000
  H   H4        1.0  0.12438  0.47238  0.13967  1.0000
  H   H5        1.0  0.37268  0.05798  0.17180  1.0000
  C   C4        1.0  0.39356  0.24498  0.14178  1.0000
  C   C5        1.0  0.38382  0.23213  0.12401  1.0000
  C   C6        1.0  0.38198  0.20799  0.12612  1.0000
  C   C7        1.0  0.39001  0.19643  0.14586  1.0000
  C   C8        1.0  0.39974  0.20933  0.16359  1.0000
  C   C9        1.0  0.40150  0.23343  0.16154  1.0000
  H   H6        1.0  0.37759  0.24074  0.10873  1.0000
  H   H7        1.0  0.37426  0.19821  0.11236  1.0000
  H   H8        1.0  0.40560  0.20079  0.17907  1.0000
  H   H9        1.0  0.40887  0.24319  0.17550  1.0000
  C   C10       1.0  0.47365  0.30417  0.11852  1.0000
  C   C11       1.0  0.07257  0.40238  0.22437  1.0000
  C   C12       1.0  0.31234  0.38580  0.00293  1.0000
  C   C13       1.0  0.45220  0.18761  0.15025  1.0000
  H   H10       1.0  0.39456  0.36387  0.02792  1.0000
  C   C14       1.0  0.46969  0.36055  0.12295  1.0000
  C   C15       1.0  0.46082  0.35841  0.14519  1.0000
  C   C16       1.0  0.08449  0.36848  0.19300  1.0000
  H   H11       1.0  0.20538  0.34629  0.02836  1.0000
  S   S23       1.0  0.49203  0.14683  0.17801  1.0000
  H   H12       1.0  0.44245  0.35648  0.14776  1.0000
  H   H13       1.0  0.09017  0.35511  0.18123  1.0000
  H   H14       1.0  0.10466  0.48201  0.07875  1.0000
  C   C17       1.0  0.26133  0.37924  0.11328  1.0000
  C   C18       1.0  0.26933  0.38888  0.13375  1.0000
  C   C19       1.0  0.29275  0.38656  0.13989  1.0000
  C   C20       1.0  0.30836  0.37458  0.12570  1.0000
  C   C21       1.0  0.30032  0.36476  0.10533  1.0000
  C   C22       1.0  0.27694  0.36714  0.09915  1.0000
  H   H15       1.0  0.25752  0.39824  0.14476  1.0000
  H   H16       1.0  0.29880  0.39418  0.15571  1.0000
  H   H17       1.0  0.31209  0.35529  0.09439  1.0000
  H   H18       1.0  0.27088  0.35954  0.08334  1.0000
  H   H19       1.0  0.21470  0.39179  0.05702  1.0000
  C   C23       1.0  0.32042  0.36951  0.04100  1.0000
  C   C24       1.0  0.45459  0.15351  0.09585  1.0000
  H   H20       1.0  0.50083  0.10881  0.14598  1.0000
  H   H21       1.0  0.41149  0.03674  0.10244  1.0000
  C   C25       1.0  0.13810  0.37788  0.21086  1.0000
  C   C26       1.0  0.13184  0.36147  0.22754  1.0000
  C   C27       1.0  0.13684  0.40123  0.21648  1.0000
  H   H22       1.0  0.13290  0.34336  0.22336  1.0000
  H   H23       1.0  0.14161  0.41402  0.20381  1.0000
  H   H24       1.0  0.48971  0.41453  0.09776  1.0000
  C   C28       1.0  0.14500  0.34643  0.03762  1.0000
  C   C29       1.0  0.14344  0.36364  0.05458  1.0000
  C   C30       1.0  0.13340  0.38494  0.04938  1.0000
  C   C31       1.0  0.12452  0.38864  0.02719  1.0000
  C   C32       1.0  0.13661  0.35028  0.01528  1.0000
  H   H25       1.0  0.15295  0.33007  0.04178  1.0000
  H   H26       1.0  0.15008  0.36043  0.07165  1.0000
  H   H27       1.0  0.11656  0.40498  0.02303  1.0000
  H   H28       1.0  0.30584  0.37580  0.05172  1.0000
  N   N2        1.0  0.46125  0.17551  0.13008  1.0000
  C   C33       1.0  0.37481  0.03482  0.10775  1.0000
  C   C34       1.0  0.44628  0.16555  0.11499  1.0000
  C   C35       1.0  0.12361  0.36831  0.24932  1.0000
  C   C36       1.0  0.47834  0.15205  0.09206  1.0000
  C   C37       1.0  0.35565  0.02041  0.10828  1.0000
  H   H29       1.0  0.12671  0.42620  0.24198  1.0000
  C   C38       1.0  0.38419  0.36314  0.01251  1.0000
  H   H30       1.0  0.07439  0.34484  0.21949  1.0000
  H   H31       1.0  0.33902  0.02697  0.11389  1.0000
  H   H32       1.0  0.43722  0.17821  0.15750  1.0000
  H   H33       1.0  0.50059  0.36461  0.10270  1.0000
  C   C39       1.0  0.34238  0.40195  0.02531  1.0000
  N   N3        1.0  0.19215  0.38052  0.03064  1.0000
  C   C40       1.0  0.12052  0.49037  0.08384  1.0000
  C   C41       1.0  0.36896  0.07236  0.24660  1.0000
  H   H34       1.0  0.49630  0.18292  0.13796  1.0000
  H   H35       1.0  0.47216  0.30710  0.10013  1.0000
  C   C42       1.0  0.49360  0.36308  0.11990  1.0000
  C   C43       1.0  0.34710  0.41793  0.00795  1.0000
  H   H36       1.0  0.36655  0.09098  0.24282  1.0000
  H   H37       1.0  0.44069  0.29205  0.16525  1.0000
  H   H38       1.0  0.35767  0.06213  0.23520  1.0000
  H   H39       1.0  0.49252  0.41101  0.17807  1.0000
  C   C44       1.0  0.39635  0.02584  0.10180  1.0000
  N   N4        1.0  0.33125  0.30901  0.15640  1.0000
  C   C45       1.0  0.31228  0.32282  0.15362  1.0000
  C   C46       1.0  0.33232  0.28792  0.14602  1.0000
  C   C47       1.0  0.29422  0.31614  0.13926  1.0000
  C   C48       1.0  0.31454  0.28065  0.13157  1.0000
  C   C49       1.0  0.29546  0.29497  0.12806  1.0000
  C   C50       1.0  0.35006  0.31665  0.17128  1.0000
  H   H40       1.0  0.31128  0.33940  0.16213  1.0000
  H   H41       1.0  0.34713  0.27672  0.14857  1.0000
  H   H42       1.0  0.27955  0.32754  0.13660  1.0000
  H   H43       1.0  0.31572  0.26412  0.12299  1.0000
  H   H44       1.0  0.28168  0.28972  0.11666  1.0000
  H   H45       1.0  0.35355  0.33526  0.16847  1.0000
  H   H46       1.0  0.34544  0.31378  0.18957  1.0000
  H   H47       1.0  0.36639  0.30727  0.16744  1.0000
  C   C51       1.0  0.48449  0.17483  0.12607  1.0000
  C   C52       1.0  0.08723  0.39155  0.18703  1.0000
  C   C53       1.0  0.07579  0.36282  0.21473  1.0000
  C   C54       1.0  0.47569  0.35918  0.16422  1.0000
  H   H48       1.0  0.44266  0.14516  0.08425  1.0000
  C   C55       1.0  0.50296  0.41784  0.11049  1.0000
  C   C56       1.0  0.12839  0.40807  0.23816  1.0000
  C   C57       1.0  0.49954  0.36197  0.16121  1.0000
  H   H49       1.0  0.34093  0.02942  0.17233  1.0000
  C   C58       1.0  0.35821  0.02396  0.16776  1.0000
  H   H50       1.0  0.37320  0.05270  0.11292  1.0000
  C   C59       1.0  0.14070  0.47719  0.08560  1.0000
  C   C60       1.0  0.36728  0.34621  0.01034  1.0000
  H   H51       1.0  0.14042  0.45883  0.08205  1.0000
  H   H52       1.0  0.46521  0.18846  0.16424  1.0000
  H   H53       1.0  0.42780  0.16645  0.11801  1.0000
  C   C61       1.0  0.08112  0.40865  0.20272  1.0000
  N   N5        1.0  0.07015  0.37968  0.23016  1.0000
  N   N6        1.0  0.49658  0.30384  0.15289  1.0000
  H   H54       1.0  0.06872  0.41576  0.23679  1.0000
  C   C62       1.0  0.12616  0.37143  0.01018  1.0000
  H   H55       1.0  0.18438  0.39311  0.06421  1.0000
  H   H56       1.0  0.08385  0.42661  0.19847  1.0000
  H   H57       1.0  0.36126  0.42992  0.00969  1.0000
  H   H58       1.0  0.46864  0.35773  0.18141  1.0000
  C   C63       1.0  0.19758  0.36062  0.01926  1.0000
  H   H59       1.0  0.19885  0.36606  0.06391  1.0000
  C   C64       1.0  0.18200  0.39847  0.01919  1.0000
  C   C65       1.0  0.16108  0.48771  0.09260  1.0000
  H   H60       1.0  0.35288  0.40195  0.04071  1.0000
  C   C66       1.0  0.45595  0.29606  0.15517  1.0000
  C   C67       1.0  0.45408  0.29900  0.13146  1.0000
  H   H61       1.0  0.44664  0.20526  0.14543  1.0000
  C   C68       1.0  0.40260  0.01040  0.15514  1.0000
  C   C69       1.0  0.12762  0.49007  0.14426  1.0000
  C   C70       1.0  0.49342  0.16290  0.10716  1.0000
  H   H62       1.0  0.09498  0.39606  0.17062  1.0000
  H   H63       1.0  0.17670  0.47764  0.09488  1.0000
  H   H64       1.0  0.48509  0.14245  0.07752  1.0000
  C   C71       1.0  0.49733  0.41820  0.13389  1.0000
  H   H65       1.0  0.31624  0.35234  0.03376  1.0000
  H   H66       1.0  0.33572  0.36678  0.05220  1.0000
  C   C72       1.0  0.49494  0.30634  0.12955  1.0000
  C   C73       1.0  0.47748  0.29854  0.16569  1.0000
  H   H67       1.0  0.41975  0.00515  0.14991  1.0000
  C   C74       1.0  0.14985  0.49675  0.15062  1.0000
  H   H68       1.0  0.47877  0.29645  0.18417  1.0000
  H   H69       1.0  0.09265  0.50122  0.13787  1.0000
  H   H70       1.0  0.38730  0.06842  0.24242  1.0000
  H   H71       1.0  0.04425  0.36523  0.25161  1.0000
  C   C75       1.0  0.39842  0.00244  0.09646  1.0000
  Fe  Fe13      1.0  0.05438  0.36782  0.34295  1.0000
  S   S24       1.0  0.07748  0.35929  0.37285  1.0000
  H   H72       1.0  0.14614  0.43481  0.28413  1.0000
  Fe  Fe14      1.0  0.09584  0.38111  0.31162  1.0000
  S   S25       1.0  0.12128  0.37235  0.33932  1.0000
  S   S26       1.0  0.10788  0.40144  0.28015  1.0000
  Fe  Fe15      1.0  0.09950  0.34109  0.34667  1.0000
  S   S27       1.0  0.11402  0.30445  0.34864  1.0000
  Fe  Fe16      1.0  0.09698  0.39153  0.36263  1.0000
  S   S28       1.0  0.11153  0.41787  0.38767  1.0000
  S   S29       1.0  0.07582  0.34848  0.31687  1.0000
  S   S30       1.0  0.07207  0.40133  0.33485  1.0000
  Fe  Fe17      1.0  0.09630  0.14514  0.42889  1.0000
  S   S31       1.0  0.09729  0.17166  0.45702  1.0000
  S   S32       1.0  0.06126  0.12763  0.42537  1.0000
  Fe  Fe18      1.0  0.14716  0.15256  0.41722  1.0000
  S   S33       1.0  0.15093  0.17987  0.44409  1.0000
  S   S34       1.0  0.17772  0.14580  0.39338  1.0000
  Fe  Fe19      1.0  0.13119  0.15578  0.46715  1.0000
  C   C76       1.0  0.02113  0.18915  0.38221  1.0000
  Fe  Fe20      1.0  0.11685  0.19331  0.43156  1.0000
  S   S35       1.0  0.10709  0.23139  0.43002  1.0000
  S   S36       1.0  0.12921  0.12754  0.44080  1.0000
  S   S37       1.0  0.11401  0.16773  0.40291  1.0000
  Fe  Fe21      1.0  0.33844  0.04946  0.38141  1.0000
  S   S38       1.0  0.36765  0.07467  0.38342  1.0000
  H   H73       1.0  0.00778  0.18486  0.36988  1.0000
  Fe  Fe22      1.0  0.30307  0.08511  0.40190  1.0000
  S   S39       1.0  0.33016  0.11246  0.40402  1.0000
  S   S40       1.0  0.26949  0.09130  0.42189  1.0000
  Fe  Fe23      1.0  0.34197  0.10005  0.36900  1.0000
  S   S41       1.0  0.34628  0.12376  0.33795  1.0000
  Fe  Fe24      1.0  0.35292  0.08458  0.41827  1.0000
  S   S42       1.0  0.37004  0.08544  0.45360  1.0000
  S   S43       1.0  0.31299  0.07465  0.36592  1.0000
  S   S44       1.0  0.32562  0.05725  0.41700  1.0000
  C   C77       1.0  0.39735  0.11337  0.27791  1.0000
  C   C78       1.0  0.40099  0.10220  0.29907  1.0000
  C   C79       1.0  0.38564  0.10532  0.31763  1.0000
  C   C80       1.0  0.36655  0.11992  0.31532  1.0000
  C   C81       1.0  0.36313  0.13147  0.29430  1.0000
  C   C82       1.0  0.37834  0.12810  0.27560  1.0000
  H   H74       1.0  0.41571  0.09087  0.30108  1.0000
  H   H75       1.0  0.38861  0.09649  0.33374  1.0000
  H   H76       1.0  0.34850  0.14294  0.29241  1.0000
  H   H77       1.0  0.16209  0.47446  0.28618  1.0000
  C   C83       1.0  0.20329  0.13094  0.40173  1.0000
  C   C84       1.0  0.22160  0.12881  0.38592  1.0000
  C   C85       1.0  0.24205  0.11693  0.39180  1.0000
  C   C86       1.0  0.24437  0.10692  0.41357  1.0000
  C   C87       1.0  0.22613  0.10922  0.42944  1.0000
  C   C88       1.0  0.20573  0.12120  0.42361  1.0000
  H   H78       1.0  0.21990  0.13623  0.36894  1.0000
  H   H79       1.0  0.25590  0.11530  0.37941  1.0000
  H   H80       1.0  0.22771  0.10146  0.44627  1.0000
  H   H81       1.0  0.19179  0.12263  0.43591  1.0000
  C   C89       1.0  0.30427  0.15584  0.46686  1.0000
  C   C90       1.0  0.04862  0.13687  0.38027  1.0000
  C   C91       1.0  0.04147  0.13089  0.40244  1.0000
  C   C92       1.0  0.01805  0.12598  0.40636  1.0000
  C   C93       1.0  0.15425  0.44091  0.29977  1.0000
  N   N7        1.0  0.16545  0.43413  0.33897  1.0000
  H   H82       1.0  0.06661  0.14056  0.37700  1.0000
  H   H83       1.0  0.06912  0.20166  0.42610  1.0000
  C   C94       1.0  0.36767  0.13154  0.46603  1.0000
  C   C95       1.0  0.36978  0.10869  0.47330  1.0000
  H   H84       1.0  0.15201  0.40708  0.35977  1.0000
  H   H85       1.0  0.36570  0.13534  0.44792  1.0000
  H   H86       1.0  0.03843  0.14119  0.34485  1.0000
  C   C96       1.0  0.15560  0.42654  0.31903  1.0000
  H   H87       1.0  0.34873  0.05405  0.33416  1.0000
  C   C97       1.0  0.11945  0.44626  0.37951  1.0000
  C   C98       1.0  0.11608  0.45449  0.35714  1.0000
  C   C99       1.0  0.12407  0.47650  0.35086  1.0000
  H   H88       1.0  0.38315  0.03630  0.31614  1.0000
  C   C100      1.0  0.13853  0.48253  0.38927  1.0000
  C   C101      1.0  0.13048  0.46052  0.39557  1.0000
  H   H89       1.0  0.10758  0.44377  0.34460  1.0000
  H   H90       1.0  0.12169  0.48247  0.33340  1.0000
  H   H91       1.0  0.05695  0.08082  0.37740  1.0000
  H   H92       1.0  0.13314  0.45435  0.41293  1.0000
  C   C102      1.0  0.10933  0.28387  0.37070  1.0000
  C   C103      1.0  0.10113  0.29016  0.39243  1.0000
  C   C104      1.0  0.09990  0.27366  0.41018  1.0000
  C   C105      1.0  0.10673  0.25072  0.40640  1.0000
  C   C106      1.0  0.11416  0.24423  0.38446  1.0000
  C   C107      1.0  0.11550  0.26076  0.36674  1.0000
  H   H93       1.0  0.09649  0.30790  0.39577  1.0000
  H   H94       1.0  0.09420  0.27887  0.42712  1.0000
  H   H95       1.0  0.11952  0.22665  0.38131  1.0000
  H   H96       1.0  0.12175  0.25574  0.34993  1.0000
  H   H97       1.0  0.30002  0.16889  0.45420  1.0000
  C   C108      1.0  0.16320  0.46310  0.30094  1.0000
  C   C109      1.0  0.36907  0.14957  0.48214  1.0000
  H   H98       1.0  0.01238  0.12125  0.42346  1.0000
  H   H99       1.0  0.36799  0.16722  0.47626  1.0000
  H   H100      1.0  0.16711  0.42846  0.37524  1.0000
  H   H101      1.0  0.37626  0.00733  0.39924  1.0000
  H   H102      1.0  0.14745  0.49306  0.40168  1.0000
  C   C110      1.0  0.37255  0.10408  0.49690  1.0000
  C   C111      1.0  0.01817  0.18398  0.40554  1.0000
  H   H103      1.0  0.31189  0.18009  0.49384  1.0000
  N   N8        1.0  0.36367  0.06749  0.27080  1.0000
  C   C112      1.0  0.37738  0.05278  0.28317  1.0000
  C   C113      1.0  0.34451  0.07719  0.28066  1.0000
  H   H104      1.0  0.07529  0.21107  0.38522  1.0000
  H   H105      1.0  0.03096  0.08316  0.34345  1.0000
  H   H106      1.0  0.31689  0.09010  0.45191  1.0000
  C   C114      1.0  0.35268  0.05749  0.31627  1.0000
  C   C115      1.0  0.04177  0.19894  0.37479  1.0000
  H   H107      1.0  0.33396  0.08929  0.27109  1.0000
  C   C116      1.0  0.05550  0.19823  0.41389  1.0000
  H   H108      1.0  0.04448  0.20261  0.35669  1.0000
  N   N9        1.0  0.03519  0.18870  0.42106  1.0000
  H   H109      1.0  0.32416  0.08088  0.31166  1.0000
  N   N10       1.0  0.00588  0.31489  0.39322  1.0000
  C   C117      1.0  0.17453  0.45578  0.34018  1.0000
  H   H110      1.0  0.04077  0.07087  0.41562  1.0000
  C   C118      1.0  0.00605  0.06666  0.40272  1.0000
  S   S45       1.0  0.01606  0.35890  0.34133  1.0000
  H   H111      1.0  0.11847  0.35550  0.26181  1.0000
  C   C119      1.0  0.02426  0.07784  0.36006  1.0000
  H   H112      1.0  0.03339  0.33891  0.39130  1.0000
  H   H113      1.0  0.37539  0.13692  0.25948  1.0000
  C   C120      1.0  0.17341  0.47064  0.32127  1.0000
  H   H114      1.0  0.14847  0.40937  0.31791  1.0000
  H   H115      1.0  0.18311  0.40813  0.35766  1.0000
  C   C121      1.0  0.31567  0.12194  0.49850  1.0000
  C   C122      1.0  0.33877  0.07239  0.30354  1.0000
  C   C123      1.0  0.30374  0.13254  0.46089  1.0000
  H   H116      1.0  0.17816  0.27663  0.41708  1.0000
  H   H117      1.0  0.01462  0.38429  0.38496  1.0000
  C   C124      1.0  0.13563  0.49053  0.36676  1.0000
  C   C125      1.0  0.03880  0.07660  0.37910  1.0000
  N   N11       1.0  0.30994  0.11602  0.47649  1.0000
  S   S46       1.0  0.41638  0.10711  0.25476  1.0000
  C   C126      1.0  0.37209  0.04756  0.30609  1.0000
  C   C127      1.0  0.03217  0.18233  0.44528  1.0000
  C   C128      1.0  0.16716  0.41867  0.35883  1.0000
  H   H118      1.0  0.01394  0.18450  0.45078  1.0000
  H   H119      1.0  0.18201  0.46198  0.35607  1.0000
  C   C129      1.0  0.00928  0.13184  0.36590  1.0000
  H   H120      1.0  0.29204  0.08500  0.46973  1.0000
  H   H121      1.0  0.17991  0.48807  0.32266  1.0000
  C   C130      1.0  0.30989  0.09182  0.46958  1.0000
  H   H122      1.0  0.32121  0.08110  0.48072  1.0000
  C   C131      1.0  0.03262  0.13717  0.36208  1.0000
  N   N12       1.0  0.16919  0.24660  0.39856  1.0000
  C   C132      1.0  0.17459  0.22726  0.41089  1.0000
  C   C133      1.0  0.17095  0.24660  0.37508  1.0000
  C   C134      1.0  0.18167  0.20714  0.39970  1.0000
  C   C135      1.0  0.17753  0.22659  0.36332  1.0000
  C   C136      1.0  0.18286  0.20673  0.37578  1.0000
  C   C137      1.0  0.16256  0.26769  0.41075  1.0000
  H   H123      1.0  0.17328  0.22727  0.42951  1.0000
  H   H124      1.0  0.16683  0.26199  0.36528  1.0000
  H   H125      1.0  0.18608  0.19180  0.40945  1.0000
  H   H126      1.0  0.17845  0.22648  0.34470  1.0000
  H   H127      1.0  0.18790  0.19096  0.36703  1.0000
  H   H128      1.0  0.15270  0.27963  0.39944  1.0000
  H   H129      1.0  0.15111  0.26362  0.42558  1.0000
  H   H130      1.0  0.00657  0.33478  0.42400  1.0000
  C   C138      1.0  0.02966  0.32069  0.38695  1.0000
  H   H131      1.0  0.04201  0.30927  0.39612  1.0000
  H   H132      1.0  0.03262  0.31908  0.36811  1.0000
  C   C139      1.0  0.31072  0.16209  0.48909  1.0000
  H   H133      1.0  0.04296  0.19316  0.45670  1.0000
  C   C140      1.0  0.05908  0.20358  0.39072  1.0000
  S   S47       1.0  0.34200  0.01480  0.36286  1.0000
  H   H134      1.0  0.29869  0.12772  0.44359  1.0000
  H   H135      1.0  0.17760  0.11391  0.49382  1.0000
  C   C141      1.0  0.02969  0.07099  0.40059  1.0000
  H   H136      1.0  0.20836  0.11300  0.48887  1.0000
  H   H137      1.0  0.03736  0.16407  0.44783  1.0000
  H   H138      1.0  0.39284  0.04550  0.27554  1.0000
  C   C142      1.0  0.12133  0.39168  0.25451  1.0000
  H   H139      1.0  0.19449  0.13817  0.50124  1.0000
  C   C143      1.0  0.19466  0.11904  0.50081  1.0000
  H   H140      1.0  0.06033  0.38819  0.26476  1.0000
  H   H141      1.0  0.07365  0.36076  0.26124  1.0000
  C   C144      1.0  0.06156  0.37316  0.25299  1.0000
  Fe  Fe25      1.0  0.39851  0.14557  0.60706  1.0000
  S   S48       1.0  0.40911  0.17392  0.58338  1.0000
  S   S49       1.0  0.42549  0.11961  0.61899  1.0000
  Fe  Fe26      1.0  0.34829  0.16231  0.60846  1.0000
  S   S50       1.0  0.35636  0.19259  0.58545  1.0000
  S   S51       1.0  0.31124  0.16080  0.62204  1.0000
  Fe  Fe27      1.0  0.37623  0.16664  0.56438  1.0000
  S   S52       1.0  0.37370  0.16832  0.52520  1.0000
  Fe  Fe28      1.0  0.38845  0.19710  0.60672  1.0000
  S   S53       1.0  0.40950  0.22782  0.61942  1.0000
  S   S54       1.0  0.36683  0.13629  0.58636  1.0000
  S   S55       1.0  0.37911  0.16867  0.63129  1.0000
  Fe  Fe29      1.0  0.45143  0.36716  0.68111  1.0000
  S   S56       1.0  0.42780  0.36881  0.65061  1.0000
  S   S57       1.0  0.48781  0.35199  0.67908  1.0000
  Fe  Fe30      1.0  0.41329  0.38457  0.71470  1.0000
  S   S58       1.0  0.38715  0.38657  0.68627  1.0000
  H   H142      1.0  0.18049  0.06642  0.55864  1.0000
  Fe  Fe31      1.0  0.40186  0.35249  0.67419  1.0000
  S   S59       1.0  0.37763  0.32460  0.66126  1.0000
  Fe  Fe32      1.0  0.41528  0.40255  0.66538  1.0000
  S   S60       1.0  0.41121  0.43480  0.64348  1.0000
  S   S61       1.0  0.42586  0.34917  0.70438  1.0000
  S   S62       1.0  0.44115  0.40216  0.69397  1.0000
  Fe  Fe33      1.0  0.16820  0.03813  0.64788  1.0000
  S   S63       1.0  0.13884  0.06346  0.64900  1.0000
  H   H143      1.0  0.46920  0.13729  0.69491  1.0000
  Fe  Fe34      1.0  0.20347  0.07533  0.63283  1.0000
  S   S64       1.0  0.17665  0.10330  0.63276  1.0000
  S   S65       1.0  0.24104  0.07694  0.62145  1.0000
  Fe  Fe35      1.0  0.16426  0.08719  0.66617  1.0000
  S   S66       1.0  0.16146  0.10884  0.69881  1.0000
  Fe  Fe36      1.0  0.15371  0.07724  0.61566  1.0000
  S   S67       1.0  0.13227  0.07908  0.58292  1.0000
  S   S68       1.0  0.19278  0.06082  0.66700  1.0000
  S   S69       1.0  0.18139  0.05025  0.61371  1.0000
  C   C145      1.0  0.14099  0.13321  0.52554  1.0000
  C   C146      1.0  0.15199  0.13610  0.54686  1.0000
  C   C147      1.0  0.14938  0.11980  0.56463  1.0000
  C   C148      1.0  0.13564  0.10039  0.56127  1.0000
  C   C149      1.0  0.12459  0.09751  0.53996  1.0000
  C   C150      1.0  0.12731  0.11377  0.52214  1.0000
  H   H144      1.0  0.16259  0.15109  0.54968  1.0000
  H   H145      1.0  0.15792  0.12230  0.58094  1.0000
  H   H146      1.0  0.11390  0.08259  0.53719  1.0000
  H   H147      1.0  0.09998  0.04725  0.61157  1.0000
  C   C151      1.0  0.12104  0.09235  0.71889  1.0000
  C   C152      1.0  0.14068  0.10601  0.72125  1.0000
  C   C153      1.0  0.45359  0.11970  0.56828  1.0000
  H   H148      1.0  0.11835  0.08286  0.70317  1.0000
  H   H149      1.0  0.40660  0.19940  0.66107  1.0000
  H   H150      1.0  0.28147  0.09783  0.66940  1.0000
  H   H151      1.0  0.49652  0.33896  0.59983  1.0000
  C   C154      1.0  0.39038  0.45659  0.64851  1.0000
  C   C155      1.0  0.39234  0.47762  0.63672  1.0000
  C   C156      1.0  0.40772  0.45508  0.71333  1.0000
  H   H152      1.0  0.11878  0.11132  0.50581  1.0000
  C   C157      1.0  0.35458  0.47046  0.66553  1.0000
  C   C158      1.0  0.37149  0.45314  0.66309  1.0000
  H   H153      1.0  0.40685  0.48041  0.62532  1.0000
  H   H154      1.0  0.48231  0.14753  0.58758  1.0000
  H   H155      1.0  0.33992  0.46759  0.67671  1.0000
  H   H156      1.0  0.36979  0.43704  0.67229  1.0000
  N   N13       1.0  0.45669  0.14206  0.56161  1.0000
  C   C159      1.0  0.41740  0.46988  0.69714  1.0000
  C   C160      1.0  0.49440  0.14059  0.65189  1.0000
  H   H157      1.0  0.49055  0.38448  0.64042  1.0000
  H   H158      1.0  0.37500  0.11831  0.53120  1.0000
  C   C161      1.0  0.40009  0.25455  0.63105  1.0000
  C   C162      1.0  0.41675  0.27059  0.63811  1.0000
  C   C163      1.0  0.41017  0.29201  0.64751  1.0000
  C   C164      1.0  0.38681  0.29767  0.64989  1.0000
  C   C165      1.0  0.37017  0.28163  0.64286  1.0000
  C   C166      1.0  0.37674  0.26017  0.63353  1.0000
  H   H159      1.0  0.43485  0.26644  0.63625  1.0000
  H   H160      1.0  0.42313  0.30415  0.65293  1.0000
  H   H161      1.0  0.35205  0.28580  0.64464  1.0000
  H   H162      1.0  0.36373  0.24803  0.62820  1.0000
  C   C167      1.0  0.29158  0.13771  0.61917  1.0000
  C   C168      1.0  0.26797  0.14170  0.62338  1.0000
  C   C169      1.0  0.25207  0.12342  0.62348  1.0000
  C   C170      1.0  0.25971  0.10092  0.61948  1.0000
  C   C171      1.0  0.28316  0.09705  0.61454  1.0000
  C   C172      1.0  0.29903  0.11533  0.61436  1.0000
  H   H163      1.0  0.26207  0.15899  0.62706  1.0000
  H   H164      1.0  0.23407  0.12666  0.62725  1.0000
  H   H165      1.0  0.28922  0.07971  0.61134  1.0000
  H   H166      1.0  0.31713  0.11200  0.61115  1.0000
  C   C173      1.0  0.47941  0.15742  0.64288  1.0000
  C   C174      1.0  0.45843  0.15125  0.63245  1.0000
  C   C175      1.0  0.45238  0.12809  0.63060  1.0000
  C   C176      1.0  0.46789  0.11119  0.63851  1.0000
  C   C177      1.0  0.48879  0.11738  0.64915  1.0000
  H   H167      1.0  0.44673  0.16446  0.62635  1.0000
  H   H168      1.0  0.46342  0.09320  0.63706  1.0000
  C   C178      1.0  0.43990  0.21076  0.67236  1.0000
  C   C179      1.0  0.37799  0.48327  0.72075  1.0000
  H   H169      1.0  0.17361  0.08289  0.52002  1.0000
  H   H170      1.0  0.09375  0.04281  0.58164  1.0000
  H   H171      1.0  0.48370  0.17541  0.64467  1.0000
  H   H172      1.0  0.47419  0.21683  0.68517  1.0000
  S   S70       1.0  0.14585  0.15384  0.50353  1.0000
  H   H173      1.0  0.50007  0.10423  0.65611  1.0000
  C   C180      1.0  0.44520  0.15068  0.54293  1.0000
  C   C181      1.0  0.35656  0.49150  0.65374  1.0000
  C   C182      1.0  0.45051  0.14161  0.69375  1.0000
  H   H174      1.0  0.15883  0.12899  0.74388  1.0000
  C   C183      1.0  0.43054  0.13666  0.53011  1.0000
  H   H175      1.0  0.48013  0.17650  0.69758  1.0000
  H   H176      1.0  0.07422  0.03238  0.60360  1.0000
  N   N14       1.0  0.22874  0.13336  0.68979  1.0000
  C   C184      1.0  0.22698  0.11003  0.68750  1.0000
  C   C185      1.0  0.24912  0.14420  0.68503  1.0000
  C   C186      1.0  0.24594  0.09688  0.68030  1.0000
  C   C187      1.0  0.26853  0.13154  0.67812  1.0000
  C   C188      1.0  0.26684  0.10774  0.67569  1.0000
  C   C189      1.0  0.20829  0.14663  0.69662  1.0000
  H   H177      1.0  0.21073  0.10155  0.69104  1.0000
  H   H178      1.0  0.25046  0.16275  0.68625  1.0000
  H   H179      1.0  0.24428  0.07847  0.67771  1.0000
  H   H180      1.0  0.28452  0.14021  0.67375  1.0000
  H   H181      1.0  0.41624  0.10268  0.52680  1.0000
  H   H182      1.0  0.19509  0.14594  0.68279  1.0000
  H   H183      1.0  0.20051  0.13917  0.71246  1.0000
  N   N15       1.0  0.10569  0.01319  0.59943  1.0000
  N   N16       1.0  0.49755  0.31254  0.62533  1.0000
  H   H184      1.0  0.08914  0.08120  0.73448  1.0000
  C   C190      1.0  0.12925  0.01389  0.59887  1.0000
  C   C191      1.0  0.37562  0.49506  0.63943  1.0000
  C   C192      1.0  0.21453  0.11941  0.53793  1.0000
  C   C193      1.0  0.38790  0.46171  0.72523  1.0000
  C   C194      1.0  0.47174  0.15726  0.57488  1.0000
  H   H185      1.0  0.21233  0.16493  0.70018  1.0000
  C   C195      1.0  0.47400  0.31717  0.63340  1.0000
  H   H186      1.0  0.20984  0.08394  0.58419  1.0000
  C   C196      1.0  0.43896  0.10524  0.55593  1.0000
  C   C197      1.0  0.37320  0.12210  0.51308  1.0000
  C   C198      1.0  0.31615  0.14506  0.50513  1.0000
  C   C199      1.0  0.42267  0.19444  0.66928  1.0000
  N   N17       1.0  0.36156  0.41498  0.61589  1.0000
  C   C200      1.0  0.34269  0.41563  0.63007  1.0000
  C   C201      1.0  0.37475  0.39545  0.61436  1.0000
  C   C202      1.0  0.33668  0.39641  0.64327  1.0000
  C   C203      1.0  0.36907  0.37584  0.62710  1.0000
  C   C204      1.0  0.34989  0.37636  0.64161  1.0000
  C   C205      1.0  0.36694  0.43478  0.60120  1.0000
  H   H187      1.0  0.33233  0.43117  0.63144  1.0000
  H   H188      1.0  0.38993  0.39505  0.60344  1.0000
  H   H189      1.0  0.32195  0.39704  0.65478  1.0000
  H   H190      1.0  0.37957  0.36036  0.62597  1.0000
  H   H191      1.0  0.34553  0.36130  0.65180  1.0000
  H   H192      1.0  0.35976  0.45101  0.60844  1.0000
  H   H193      1.0  0.38592  0.43719  0.59990  1.0000
  H   H194      1.0  0.35978  0.43213  0.58375  1.0000
  N   N18       1.0  0.44693  0.16549  0.68637  1.0000
  C   C206      1.0  0.42647  0.17173  0.67640  1.0000
  C   C207      1.0  0.46376  0.18151  0.68996  1.0000
  H   H195      1.0  0.22396  0.13447  0.53230  1.0000
  C   C208      1.0  0.46058  0.20433  0.68285  1.0000
  S   S71       1.0  0.40567  0.40284  0.74886  1.0000
  H   H196      1.0  0.23158  0.11811  0.57105  1.0000
  C   C209      1.0  0.42756  0.11375  0.53660  1.0000
  C   C210      1.0  0.21890  0.11031  0.55981  1.0000
  C   C211      1.0  0.20672  0.09104  0.56722  1.0000
  C   C212      1.0  0.09265  0.03486  0.59902  1.0000
  C   C213      1.0  0.10448  0.09146  0.73670  1.0000
  H   H197      1.0  0.38034  0.45005  0.73775  1.0000
  H   H198      1.0  0.41316  0.15903  0.67344  1.0000
  H   H199      1.0  0.43717  0.22828  0.66638  1.0000
  H   H200      1.0  0.13804  0.03028  0.59833  1.0000
  H   H201      1.0  0.41548  0.43841  0.71663  1.0000
  H   H202      1.0  0.44301  0.12947  0.68106  1.0000
  H   H203      1.0  0.46114  0.17001  0.58449  1.0000
  H   H204      1.0  0.44235  0.13877  0.71079  1.0000
  C   C214      1.0  0.19046  0.08106  0.55277  1.0000
  H   H205      1.0  0.48378  0.16654  0.56329  1.0000
  H   H206      1.0  0.11831  0.00888  0.65527  1.0000
  H   H207      1.0  0.44702  0.16861  0.53806  1.0000
  H   H208      1.0  0.46209  0.11298  0.58350  1.0000
  H   H209      1.0  0.32070  0.10886  0.51083  1.0000
  H   H210      1.0  0.36252  0.48831  0.72999  1.0000
  H   H211      1.0  0.47194  0.31247  0.65184  1.0000
  H   H212      1.0  0.46990  0.33585  0.63228  1.0000
  H   H213      1.0  0.46139  0.30735  0.62302  1.0000
  C   C215      1.0  0.18660  0.09052  0.53097  1.0000
  H   H214      1.0  0.43248  0.46450  0.68739  1.0000
  N   N19       1.0  0.38754  0.49771  0.70476  1.0000
  H   H215      1.0  0.32172  0.14980  0.52230  1.0000
  C   C216      1.0  0.37191  0.14497  0.50571  1.0000
  H   H216      1.0  0.42125  0.14363  0.51545  1.0000
  N   N20       1.0  0.19844  0.10958  0.52390  1.0000
  C   C217      1.0  0.40711  0.49135  0.69315  1.0000
  H   H217      1.0  0.43625  0.08766  0.56157  1.0000
  C   C218      1.0  0.14376  0.11832  0.74184  1.0000
  H   H218      1.0  0.37415  0.08644  0.50266  1.0000
  H   H219      1.0  0.50329  0.28543  0.64943  1.0000
  Fe  Fe37      1.0  0.14591  0.34404  0.90926  1.0000
  S   S72       1.0  0.14936  0.31142  0.92997  1.0000
  S   S73       1.0  0.17490  0.36015  0.88811  1.0000
  Fe  Fe38      1.0  0.09457  0.34962  0.92118  1.0000
  S   S74       1.0  0.09530  0.31837  0.94387  1.0000
  S   S75       1.0  0.05975  0.36789  0.91837  1.0000
  Fe  Fe39      1.0  0.12922  0.33132  0.95678  1.0000
  C   C219      1.0  0.11029  0.01469  0.88625  1.0000
  Fe  Fe40      1.0  0.11488  0.30139  0.91500  1.0000
  S   S76       1.0  0.09648  0.26908  0.90220  1.0000
  S   S77       1.0  0.12714  0.36422  0.93660  1.0000
  S   S78       1.0  0.11299  0.33250  0.89197  1.0000
  Fe  Fe41      1.0  0.33626  0.44207  0.88985  1.0000
  S   S79       1.0  0.36790  0.41972  0.88733  1.0000
  S   S80       1.0  0.33566  0.47914  0.87672  1.0000
  Fe  Fe42      1.0  0.30565  0.40192  0.90715  1.0000
  S   S81       1.0  0.33539  0.37706  0.90497  1.0000
  S   S82       1.0  0.27418  0.38764  0.92606  1.0000
  Fe  Fe43      1.0  0.35616  0.40481  0.92144  1.0000
  S   S83       1.0  0.37921  0.39963  0.95277  1.0000
  Fe  Fe44      1.0  0.34405  0.39407  0.87108  1.0000
  S   S84       1.0  0.35021  0.37213  0.83908  1.0000
  S   S85       1.0  0.32627  0.42929  0.92502  1.0000
  S   S86       1.0  0.31263  0.41686  0.87207  1.0000
  Fe  Fe45      1.0  0.08629  0.11551  0.81590  1.0000
  S   S87       1.0  0.11645  0.10920  0.83935  1.0000
  S   S88       1.0  0.08560  0.10259  0.77875  1.0000
  Fe  Fe46      1.0  0.05472  0.13217  0.85610  1.0000
  S   S89       1.0  0.08288  0.12590  0.88177  1.0000
  S   S90       1.0  0.02363  0.15237  0.86994  1.0000
  Fe  Fe47      1.0  0.10595  0.14300  0.85595  1.0000
  S   S91       1.0  0.13086  0.17060  0.86826  1.0000
  Fe  Fe48      1.0  0.09044  0.09294  0.86292  1.0000
  S   S92       1.0  0.09216  0.05813  0.88098  1.0000
  S   S93       1.0  0.07773  0.15048  0.83066  1.0000
  S   S94       1.0  0.06037  0.09791  0.83902  1.0000
  H   H220      1.0  0.10127  0.23503  0.94629  1.0000
  C   C220      1.0  0.29667  0.34693  0.86801  1.0000
  C   C221      1.0  0.06247  0.17356  0.91476  1.0000
  H   H221      1.0  0.12986  0.12692  0.77539  1.0000
  H   H222      1.0  0.10501  0.15607  0.91529  1.0000
  H   H223      1.0  0.24788  0.35010  0.83711  1.0000
  C   C222      1.0  0.29212  0.36108  0.82873  1.0000
  H   H224      1.0  0.43957  0.49944  0.86972  1.0000
  H   H225      1.0  0.06419  0.40972  0.86528  1.0000
  H   H226      1.0  0.03641  0.34972  0.83907  1.0000
  H   H227      1.0  0.16792  0.41057  0.98696  1.0000
  C   C223      1.0  0.01624  0.36757  0.89995  1.0000
  C   C224      1.0  0.35671  0.50050  0.88220  1.0000
  C   C225      1.0  0.13525  0.04199  0.86728  1.0000
  C   C226      1.0  0.11426  0.03712  0.87807  1.0000
  C   C227      1.0  0.01327  0.42437  0.89046  1.0000
  H   H228      1.0  0.13860  0.05919  0.86103  1.0000
  H   H229      1.0  0.17695  0.37425  0.96627  1.0000
  C   C228      1.0  0.39007  0.39376  0.77365  1.0000
  C   C229      1.0  0.38828  0.40885  0.79250  1.0000
  C   C230      1.0  0.37612  0.40254  0.81257  1.0000
  C   C231      1.0  0.36560  0.38098  0.81407  1.0000
  C   C232      1.0  0.36729  0.36593  0.79520  1.0000
  C   C233      1.0  0.37943  0.37226  0.77509  1.0000
  H   H230      1.0  0.39658  0.42543  0.79162  1.0000
  H   H231      1.0  0.37508  0.41419  0.82700  1.0000
  H   H232      1.0  0.35930  0.34918  0.79617  1.0000
  C   C234      1.0  0.10202  0.21730  0.94048  1.0000
  C   C235      1.0  0.35766  0.36154  0.97224  1.0000
  C   C236      1.0  0.37462  0.37844  0.97437  1.0000
  C   C237      1.0  0.15194  0.02449  0.86449  1.0000
  H   H233      1.0  0.34732  0.36083  0.95682  1.0000
  C   C238      1.0  0.18170  0.37623  0.98420  1.0000
  C   C239      1.0  0.10722  0.24314  0.89005  1.0000
  C   C240      1.0  0.13054  0.23695  0.89095  1.0000
  C   C241      1.0  0.13771  0.21497  0.88340  1.0000
  C   C242      1.0  0.12169  0.19905  0.87483  1.0000
  C   C243      1.0  0.09854  0.20563  0.87308  1.0000
  C   C244      1.0  0.09135  0.22750  0.88075  1.0000
  H   H234      1.0  0.14295  0.24881  0.89804  1.0000
  H   H235      1.0  0.15569  0.21008  0.88469  1.0000
  H   H236      1.0  0.08612  0.19370  0.86616  1.0000
  H   H237      1.0  0.07329  0.23213  0.87985  1.0000
  C   C245      1.0  0.12408  0.18340  0.93076  1.0000
  C   C246      1.0  0.37587  0.46896  0.83373  1.0000
  C   C247      1.0  0.03974  0.36296  0.89601  1.0000
  C   C248      1.0  0.04684  0.35606  0.87407  1.0000
  C   C249      1.0  0.03068  0.35457  0.85611  1.0000
  C   C250      1.0  0.42628  0.50156  0.85679  1.0000
  H   H238      1.0  0.01060  0.37287  0.91689  1.0000
  H   H239      1.0  0.06490  0.35259  0.87078  1.0000
  C   C251      1.0  0.20187  0.36890  0.89943  1.0000
  C   C252      1.0  0.20889  0.36269  0.92158  1.0000
  C   C253      1.0  0.23091  0.36898  0.92955  1.0000
  C   C254      1.0  0.24623  0.38137  0.91545  1.0000
  C   C255      1.0  0.23913  0.38782  0.89339  1.0000
  C   C256      1.0  0.21704  0.38161  0.88545  1.0000
  H   H240      1.0  0.19749  0.35273  0.93240  1.0000
  H   H241      1.0  0.23626  0.36391  0.94663  1.0000
  H   H242      1.0  0.25067  0.39746  0.88242  1.0000
  H   H243      1.0  0.21172  0.38655  0.86832  1.0000
  H   H244      1.0  0.12634  0.07170  0.79145  1.0000
  H   H245      1.0  0.00631  0.42852  0.90727  1.0000
  C   C257      1.0  0.12734  0.11717  0.75978  1.0000
  C   C258      1.0  0.00769  0.41605  0.85092  1.0000
  H   H246      1.0  0.29896  0.37306  0.00064  1.0000
  H   H247      1.0  0.06156  0.15518  0.91995  1.0000
  H   H248      1.0  0.29834  0.37880  0.83227  1.0000
  H   H249      1.0  0.11953  0.37459  0.99310  1.0000
  C   C259      1.0  0.38795  0.37902  0.99453  1.0000
  C   C260      1.0  0.41013  0.48419  0.85301  1.0000
  C   C261      1.0  0.10743  0.10395  0.75718  1.0000
  H   H250      1.0  0.38067  0.36045  0.76079  1.0000
  C   C262      1.0  0.35414  0.34544  0.99007  1.0000
  H   H251      1.0  0.04639  0.18203  0.92087  1.0000
  H   H252      1.0  0.03799  0.40604  0.83165  1.0000
  C   C263      1.0  0.10178  0.05143  0.81054  1.0000
  N   N21       1.0  0.03525  0.30207  0.88650  1.0000
  C   C264      1.0  0.04724  0.29440  0.86772  1.0000
  C   C265      1.0  0.01212  0.30660  0.88504  1.0000
  C   C266      1.0  0.03623  0.29195  0.84649  1.0000
  H   H253      1.0  0.06326  0.01933  0.82003  1.0000
  C   C267      1.0  0.19232  0.35813  0.99593  1.0000
  C   C268      1.0  0.04739  0.30517  0.90830  1.0000
  H   H254      1.0  0.06555  0.29055  0.86902  1.0000
  H   H255      1.0  0.37427  0.45763  0.84909  1.0000
  H   H256      1.0  0.04594  0.28639  0.83152  1.0000
  H   H257      1.0  0.06427  0.31358  0.90517  1.0000
  H   H258      1.0  0.40117  0.39195  0.99632  1.0000
  H   H259      1.0  0.19561  0.34197  0.98718  1.0000
  H   H260      1.0  0.05056  0.28825  0.91663  1.0000
  H   H261      1.0  0.33826  0.42945  0.97393  1.0000
  H   H262      1.0  0.14051  0.17458  0.92889  1.0000
  C   C269      1.0  0.12311  0.20569  0.93957  1.0000
  C   C270      1.0  0.03696  0.42014  0.88829  1.0000
  C   C271      1.0  0.12314  0.05547  0.80013  1.0000
  C   C272      1.0  0.03130  0.41181  0.84811  1.0000
  H   H263      1.0  0.15707  0.04168  0.79359  1.0000
  H   H264      1.0  0.03774  0.31657  0.92031  1.0000
  N   N22       1.0  0.28243  0.35105  0.84976  1.0000
  H   H265      1.0  0.41131  0.46842  0.86295  1.0000
  C   C273      1.0  0.33413  0.41766  0.98780  1.0000
  C   C274      1.0  0.00726  0.35971  0.85993  1.0000
  C   C275      1.0  0.07511  0.02733  0.83259  1.0000
  H   H266      1.0  0.27938  0.36192  0.81455  1.0000
  H   H267      1.0  0.06277  0.17444  0.89567  1.0000
  H   H268      1.0  0.09418  0.01081  0.89479  1.0000
  C   C276      1.0  0.14028  0.03858  0.80121  1.0000
  H   H269      1.0  0.30712  0.35067  0.82271  1.0000
  H   H270      1.0  0.04812  0.42070  0.90325  1.0000
  C   C277      1.0  0.04599  0.41386  0.86695  1.0000
  C   C278      1.0  0.25934  0.34642  0.85135  1.0000
  C   C279      1.0  0.25006  0.33720  0.87157  1.0000
  C   C280      1.0  0.28788  0.33819  0.88865  1.0000
  C   C281      1.0  0.26442  0.33329  0.89039  1.0000
  H   H271      1.0  0.16809  0.02839  0.85602  1.0000
  H   H272      1.0  0.23166  0.33399  0.87299  1.0000
  H   H273      1.0  0.29910  0.33574  0.90337  1.0000
  H   H274      1.0  0.25726  0.32712  0.90650  1.0000
  N   N23       1.0  0.08320  0.18443  0.92411  1.0000
  C   C282      1.0  0.08213  0.20639  0.93252  1.0000
  C   C283      1.0  0.10385  0.17300  0.92300  1.0000
  H   H275      1.0  0.37607  0.48085  0.90696  1.0000
  C   C284      1.0  0.31658  0.40155  0.98522  1.0000
  S   S95       1.0  0.14067  0.32864  0.99415  1.0000
  H   H276      1.0  0.13879  0.21428  0.94483  1.0000
  N   N24       1.0  0.09768  0.03126  0.82193  1.0000
  H   H277      1.0  0.31495  0.35067  0.86672  1.0000
  H   H278      1.0  0.34109  0.33235  0.98817  1.0000
  H   H279      1.0  0.06602  0.21591  0.93244  1.0000
  N   N25       1.0  0.39255  0.48740  0.83766  1.0000
  H   H280      1.0  0.07672  0.01615  0.84803  1.0000
  H   H281      1.0  0.30673  0.40090  0.96935  1.0000
  H   H282      1.0  0.00413  0.29611  0.82818  1.0000
  C   C285      1.0  0.37488  0.49690  0.89758  1.0000
  H   H283      1.0  0.08856  0.06464  0.80961  1.0000
  C   C286      1.0  0.11420  0.01438  0.82263  1.0000
  H   H284      1.0  0.38123  0.45837  0.81878  1.0000
  H   H285      1.0  0.06744  0.04378  0.83878  1.0000
  H   H286      1.0  0.35833  0.47615  0.83073  1.0000
  C   C287      1.0  0.13578  0.01781  0.81239  1.0000
  C   C288      1.0  0.01278  0.29718  0.84467  1.0000
  H   H287      1.0  0.14915  0.00474  0.81394  1.0000
  C   C289      1.0  0.17660  0.39659  0.99583  1.0000
  Fe  Fe49      1.0  0.10316  0.84682  0.09525  1.0000
  S   S96       1.0  0.09925  0.81752  0.07055  1.0000
  S   S97       1.0  0.07303  0.87138  0.10086  1.0000
  Fe  Fe50      1.0  0.15286  0.83313  0.10714  1.0000
  S   S98       1.0  0.15177  0.80203  0.08417  1.0000
  S   S99       1.0  0.18302  0.84064  0.13105  1.0000
  Fe  Fe51      1.0  0.13509  0.82640  0.05860  1.0000
  S   S100      1.0  0.14893  0.82599  0.02173  1.0000
  Fe  Fe52      1.0  0.11598  0.79596  0.09824  1.0000
  S   S101      1.0  0.09474  0.76542  0.11124  1.0000
  S   S102      1.0  0.13783  0.85763  0.08119  1.0000
  S   S103      1.0  0.11836  0.82529  0.12327  1.0000
  Fe  Fe53      1.0  0.09079  0.58596  0.16000  1.0000
  S   S104      1.0  0.07098  0.59038  0.19302  1.0000
  S   S105      1.0  0.09157  0.55035  0.14339  1.0000
  Fe  Fe54      1.0  0.10447  0.63721  0.15880  1.0000
  S   S106      1.0  0.08688  0.64458  0.19242  1.0000
  S   S107      1.0  0.12605  0.66373  0.13956  1.0000
  Fe  Fe55      1.0  0.10159  0.61080  0.20501  1.0000
  H   H288      1.0  0.39314  0.97164  0.24289  1.0000
  Fe  Fe56      1.0  0.05782  0.62348  0.17732  1.0000
  H   H289      1.0  0.38663  0.87020  0.00543  1.0000
  S   S108      1.0  0.12173  0.60510  0.17232  1.0000
  S   S109      1.0  0.07510  0.61754  0.14326  1.0000
  Fe  Fe57      1.0  0.30463  0.90730  0.12856  1.0000
  S   S110      1.0  0.33231  0.88010  0.12955  1.0000
  S   S111      1.0  0.27093  0.90270  0.10883  1.0000
  Fe  Fe58      1.0  0.33808  0.94472  0.14721  1.0000
  S   S112      1.0  0.36799  0.92017  0.14889  1.0000
  S   S113      1.0  0.33842  0.98207  0.15914  1.0000
  Fe  Fe59      1.0  0.35544  0.90710  0.11447  1.0000
  S   S114      1.0  0.37754  0.90465  0.08220  1.0000
  Fe  Fe60      1.0  0.34215  0.89556  0.16391  1.0000
  S   S115      1.0  0.34707  0.87438  0.19657  1.0000
  S   S116      1.0  0.32750  0.93372  0.11186  1.0000
  S   S117      1.0  0.31256  0.92078  0.16391  1.0000
  C   C290      1.0  0.29167  0.85728  0.07147  1.0000
  C   C291      1.0  0.40074  0.90071  0.23291  1.0000
  H   H290      1.0  0.07580  0.89111  0.15357  1.0000
  N   N26       1.0  0.02578  0.81572  0.09955  1.0000
  C   C292      1.0  0.34122  0.93278  0.22935  1.0000
  C   C293      1.0  0.36697  0.84817  0.02776  1.0000
  C   C294      1.0  0.35822  0.84542  0.05016  1.0000
  C   C295      1.0  0.36137  0.86252  0.06697  1.0000
  C   C296      1.0  0.37386  0.88236  0.06173  1.0000
  C   C297      1.0  0.38326  0.88483  0.03954  1.0000
  C   C298      1.0  0.37968  0.86791  0.02256  1.0000
  H   H291      1.0  0.34857  0.83011  0.05443  1.0000
  H   H292      1.0  0.35424  0.86025  0.08401  1.0000
  H   H293      1.0  0.39310  0.90003  0.03536  1.0000
  H   H294      1.0  0.08575  0.51889  0.09868  1.0000
  C   C299      1.0  0.38490  0.89647  0.21514  1.0000
  C   C300      1.0  0.36642  0.88158  0.21885  1.0000
  H   H295      1.0  0.38949  0.84420  0.18960  1.0000
  H   H296      1.0  0.38720  0.90445  0.19848  1.0000
  S   S118      1.0  0.12295  0.59902  0.23602  1.0000
  C   C301      1.0  0.14173  0.67373  0.21513  1.0000
  N   N27       1.0  0.31173  0.87663  0.04091  1.0000
  C   C302      1.0  0.38211  0.96376  0.09243  1.0000
  H   H297      1.0  0.12398  0.70147  0.17965  1.0000
  C   C303      1.0  0.10042  0.87038  0.17218  1.0000
  C   C304      1.0  0.10967  0.50650  0.14319  1.0000
  H   H298      1.0  0.34021  0.94991  0.19651  1.0000
  C   C305      1.0  0.14059  0.52377  0.09587  1.0000
  C   C306      1.0  0.10398  0.73729  0.11908  1.0000
  C   C307      1.0  0.12642  0.72941  0.11494  1.0000
  C   C308      1.0  0.13276  0.70674  0.12098  1.0000
  C   C309      1.0  0.11686  0.69179  0.13146  1.0000
  C   C310      1.0  0.09449  0.69975  0.13587  1.0000
  C   C311      1.0  0.08806  0.72232  0.12956  1.0000
  H   H299      1.0  0.13880  0.74067  0.10679  1.0000
  H   H300      1.0  0.15011  0.70076  0.11746  1.0000
  H   H301      1.0  0.08216  0.68849  0.14408  1.0000
  H   H302      1.0  0.07067  0.72826  0.13286  1.0000
  C   C312      1.0  0.20779  0.85717  0.12413  1.0000
  C   C313      1.0  0.22571  0.85888  0.14029  1.0000
  C   C314      1.0  0.24531  0.87247  0.13582  1.0000
  C   C315      1.0  0.24705  0.88473  0.11519  1.0000
  C   C316      1.0  0.22918  0.88293  0.09897  1.0000
  C   C317      1.0  0.20969  0.86917  0.10334  1.0000
  H   H303      1.0  0.22442  0.84966  0.15641  1.0000
  H   H304      1.0  0.25891  0.87367  0.14845  1.0000
  H   H305      1.0  0.23038  0.89233  0.08295  1.0000
  H   H306      1.0  0.19609  0.86798  0.09072  1.0000
  C   C318      1.0  0.05110  0.86492  0.12109  1.0000
  C   C319      1.0  0.05417  0.84774  0.13767  1.0000
  C   C320      1.0  0.03679  0.84344  0.15400  1.0000
  H   H307      1.0  0.38401  0.95427  0.10891  1.0000
  C   C321      1.0  0.03038  0.87759  0.12091  1.0000
  H   H308      1.0  0.07000  0.83787  0.13806  1.0000
  H   H309      1.0  0.02791  0.89104  0.10826  1.0000
  C   C322      1.0  0.13574  0.53626  0.15557  1.0000
  C   C323      1.0  0.11371  0.52975  0.14844  1.0000
  H   H310      1.0  0.01294  0.78056  0.15451  1.0000
  H   H311      1.0  0.13914  0.55407  0.15962  1.0000
  H   H312      1.0  0.15818  0.91361  0.13460  1.0000
  N   N28       1.0  0.13295  0.88836  0.14197  1.0000
  C   C324      1.0  0.11031  0.89483  0.14012  1.0000
  C   C325      1.0  0.13976  0.87353  0.15897  1.0000
  C   C326      1.0  0.35835  0.99710  0.10291  1.0000
  C   C327      1.0  0.42370  0.84862  0.21828  1.0000
  H   H313      1.0  0.10132  0.54466  0.09328  1.0000
  C   C328      1.0  0.15023  0.89832  0.12649  1.0000
  H   H314      1.0  0.16407  0.88561  0.12256  1.0000
  H   H315      1.0  0.15778  0.86872  0.16074  1.0000
  H   H316      1.0  0.34355  0.98582  0.10441  1.0000
  C   C329      1.0  0.09913  0.52660  0.08737  1.0000
  C   C330      1.0  0.30987  0.85750  0.02735  1.0000
  H   H317      1.0  0.17082  0.52518  0.16158  1.0000
  H   H318      1.0  0.34950  0.85966  0.24356  1.0000
  H   H319      1.0  0.14247  0.90339  0.10976  1.0000
  H   H320      1.0  0.03374  0.65428  0.12846  1.0000
  H   H321      1.0  0.09290  0.52692  0.06936  1.0000
  H   H322      1.0  0.41536  0.99546  0.09258  1.0000
  H   H323      1.0  0.03936  0.83017  0.16681  1.0000
  H   H324      1.0  0.15213  0.70560  0.16762  1.0000
  C   C331      1.0  0.34880  0.94861  0.21299  1.0000
  C   C332      1.0  0.03704  0.78674  0.12688  1.0000
  C   C333      1.0  0.32295  0.89734  0.03195  1.0000
  H   H325      1.0  0.14058  0.54177  0.10078  1.0000
  H   H326      1.0  0.03130  0.67768  0.14789  1.0000
  H   H327      1.0  0.39741  0.95995  0.08150  1.0000
  H   H328      1.0  0.42637  0.85719  0.20193  1.0000
  C   C334      1.0  0.36752  0.96271  0.21789  1.0000
  H   H329      1.0  0.08758  0.86302  0.18360  1.0000
  C   C335      1.0  0.38463  0.99414  0.15541  1.0000
  H   H330      1.0  0.39424  0.81367  0.19362  1.0000
  H   H331      1.0  0.02487  0.81986  0.06334  1.0000
  H   H332      1.0  0.11778  0.86577  0.01795  1.0000
  C   C336      1.0  0.35249  0.93134  0.25055  1.0000
  C   C337      1.0  0.00522  0.81863  0.11080  1.0000
  C   C338      1.0  0.09378  0.88611  0.15531  1.0000
  C   C339      1.0  0.01587  0.85576  0.15358  1.0000
  C   C340      1.0  0.43903  0.85287  0.23630  1.0000
  H   H333      1.0  0.45319  0.86482  0.23407  1.0000
  C   C341      1.0  0.16136  0.63714  0.21245  1.0000
  C   C342      1.0  0.14763  0.65251  0.22486  1.0000
  H   H334      1.0  0.04224  0.68273  0.11910  1.0000
  H   H335      1.0  0.30378  0.89204  0.07326  1.0000
  S   S119      1.0  0.02148  0.63875  0.17950  1.0000
  N   N29       1.0  0.14964  0.67965  0.19376  1.0000
  H   H336      1.0  0.10477  0.90647  0.12659  1.0000
  C   C343      1.0  0.04143  0.79971  0.10708  1.0000
  C   C344      1.0  0.16109  0.51113  0.09771  1.0000
  H   H337      1.0  0.00639  0.64956  0.09754  1.0000
  H   H338      1.0  0.17664  0.51914  0.10413  1.0000
  C   C345      1.0  0.29022  0.83751  0.05801  1.0000
  C   C346      1.0  0.14267  0.70182  0.18383  1.0000
  H   H339      1.0  0.37126  0.82873  0.20863  1.0000
  H   H340      1.0  0.30982  0.90928  0.02480  1.0000
  C   C347      1.0  0.30253  0.87681  0.06259  1.0000
  C   C348      1.0  0.36222  0.00101  0.16120  1.0000
  N   N30       1.0  0.12066  0.51334  0.08901  1.0000
  H   H341      1.0  0.02224  0.84640  0.07958  1.0000
  H   H342      1.0  0.12901  0.85177  0.18709  1.0000
  C   C349      1.0  0.36376  0.87124  0.24057  1.0000
  N   N31       1.0  0.40518  0.83445  0.22148  1.0000
  H   H343      1.0  0.36688  0.95685  0.08319  1.0000
  C   C350      1.0  0.15370  0.51985  0.15660  1.0000
  H   H344      1.0  0.41519  0.91202  0.22980  1.0000
  H   H345      1.0  0.38801  0.97651  0.15051  1.0000
  C   C351      1.0  0.12358  0.86405  0.17411  1.0000
  C   C352      1.0  0.16915  0.64321  0.19059  1.0000
  H   H346      1.0  0.28454  0.85753  0.08876  1.0000
  H   H347      1.0  0.04954  0.83263  0.07725  1.0000
  S   S120      1.0  0.35998  0.82734  0.00665  1.0000
  H   H348      1.0  0.38708  0.81256  0.24474  1.0000
  H   H349      1.0  0.05765  0.79719  0.09807  1.0000
  H   H350      1.0  0.31737  0.85720  0.01023  1.0000
  H   H351      1.0  0.19847  0.84864  0.01626  1.0000
  H   H352      1.0  0.33268  0.90619  0.04580  1.0000
  C   C353      1.0  0.03075  0.82923  0.07884  1.0000
  H   H353      1.0  0.17930  0.63115  0.18053  1.0000
  C   C354      1.0  0.38938  0.82993  0.20238  1.0000
  C   C355      1.0  0.02950  0.67294  0.12947  1.0000
  H   H354      1.0  0.37345  0.97506  0.20517  1.0000
  H   H355      1.0  0.29891  0.82217  0.02528  1.0000
  H   H356      1.0  0.16550  0.62036  0.21961  1.0000
  H   H357      1.0  0.13058  0.68534  0.22466  1.0000
  C   C356      1.0  0.40174  0.82380  0.24220  1.0000
  H   H358      1.0  0.16890  0.66907  0.16424  1.0000
  H   H359      1.0  0.10059  0.54774  0.24428  1.0000
  H   H360      1.0  0.14609  0.71605  0.19604  1.0000
  H   H361      1.0  0.01562  0.60512  0.14252  1.0000
  C   C357      1.0  0.16320  0.66472  0.18149  1.0000
  C   C358      1.0  0.37851  0.96070  0.23922  1.0000
  H   H362      1.0  0.04986  0.77456  0.13309  1.0000
  C   C359      1.0  0.01633  0.78997  0.13876  1.0000
  H   H363      1.0  0.33573  0.89295  0.01834  1.0000
  H   H364      1.0  0.17508  0.88417  0.01574  1.0000
  H   H365      1.0  0.28214  0.82215  0.06484  1.0000
  N   N32       1.0  0.00605  0.67757  0.12120  1.0000
  H   H366      1.0  0.14121  0.64774  0.24174  1.0000
  C   C360      1.0  0.29939  0.83757  0.03579  1.0000
  C   C361      1.0  0.01271  0.87287  0.13693  1.0000
  N   N33       1.0  0.37949  0.98846  0.09685  1.0000
  H   H367      1.0  0.32699  0.92137  0.22540  1.0000
  Fe  Fe61      1.0  0.41824  0.90021  0.36171  1.0000
  S   S121      1.0  0.44638  0.90033  0.33504  1.0000
  S   S122      1.0  0.41076  0.93135  0.38440  1.0000
  Fe  Fe62      1.0  0.40617  0.85001  0.35220  1.0000
  S   S123      1.0  0.43256  0.84701  0.32405  1.0000
  S   S124      1.0  0.38160  0.82098  0.36163  1.0000
  Fe  Fe63      1.0  0.45624  0.86538  0.34861  1.0000
  C   C362      1.0  0.35835  0.58182  0.39360  1.0000
  Fe  Fe64      1.0  0.42056  0.88209  0.31274  1.0000
  S   S125      1.0  0.41917  0.89553  0.27587  1.0000
  S   S126      1.0  0.43024  0.86650  0.37736  1.0000
  S   S127      1.0  0.39193  0.88383  0.33882  1.0000
  Fe  Fe65      1.0  0.15343  0.58242  0.41847  1.0000
  S   S128      1.0  0.17909  0.55422  0.41093  1.0000
  S   S129      1.0  0.13976  0.58316  0.45534  1.0000
  Fe  Fe66      1.0  0.15471  0.59885  0.36820  1.0000
  S   S130      1.0  0.18173  0.57287  0.35833  1.0000
  S   S131      1.0  0.13578  0.62193  0.34258  1.0000
  Fe  Fe67      1.0  0.15960  0.54782  0.37813  1.0000
  S   S132      1.0  0.14821  0.51661  0.35693  1.0000
  Fe  Fe68      1.0  0.19881  0.58189  0.39206  1.0000
  S   S133      1.0  0.23664  0.58253  0.40365  1.0000
  S   S134      1.0  0.13231  0.57378  0.38730  1.0000
  S   S135      1.0  0.17343  0.61013  0.40052  1.0000
  Fe  Fe69      1.0  0.35126  0.65993  0.41364  1.0000
  S   S136      1.0  0.35480  0.68935  0.43857  1.0000
  S   S137      1.0  0.31824  0.65535  0.39275  1.0000
  Fe  Fe70      1.0  0.40112  0.64442  0.42107  1.0000
  S   S138      1.0  0.40765  0.67197  0.44710  1.0000
  S   S139      1.0  0.42952  0.61857  0.41292  1.0000
  Fe  Fe71      1.0  0.37268  0.66319  0.46123  1.0000
  H   H368      1.0  0.35744  0.94589  0.41157  1.0000
  Fe  Fe72      1.0  0.38948  0.69572  0.42221  1.0000
  S   S140      1.0  0.41011  0.72831  0.41421  1.0000
  S   S141      1.0  0.36725  0.63356  0.43705  1.0000
  S   S142      1.0  0.38481  0.66826  0.39548  1.0000
  C   C363      1.0  0.29495  0.63608  0.39756  1.0000
  C   C364      1.0  0.29646  0.61787  0.41325  1.0000
  C   C365      1.0  0.27834  0.60182  0.41502  1.0000
  C   C366      1.0  0.25831  0.60403  0.40152  1.0000
  C   C367      1.0  0.25653  0.62262  0.38634  1.0000
  C   C368      1.0  0.27485  0.63839  0.38423  1.0000
  H   H369      1.0  0.31181  0.61583  0.42359  1.0000
  H   H370      1.0  0.27991  0.58748  0.42680  1.0000
  H   H371      1.0  0.24132  0.62452  0.37575  1.0000
  H   H372      1.0  0.27349  0.65239  0.37200  1.0000
  C   C369      1.0  0.14431  0.62917  0.46765  1.0000
  C   C370      1.0  0.14131  0.60643  0.47489  1.0000
  C   C371      1.0  0.14432  0.64717  0.48391  1.0000
  H   H373      1.0  0.14629  0.63295  0.44953  1.0000
  H   H374      1.0  0.39888  0.87903  0.42858  1.0000
  H   H375      1.0  0.10523  0.54729  0.34439  1.0000
  C   C372      1.0  0.34737  0.89350  0.38926  1.0000
  H   H376      1.0  0.08526  0.63748  0.48807  1.0000
  N   N34       1.0  0.19842  0.59676  0.47653  1.0000
  H   H377      1.0  0.37737  0.86748  0.27502  1.0000
  C   C373      1.0  0.34055  0.60894  0.36761  1.0000
  H   H378      1.0  0.47265  0.80540  0.41079  1.0000
  C   C374      1.0  0.38993  0.79516  0.37595  1.0000
  C   C375      1.0  0.37339  0.77794  0.37980  1.0000
  C   C376      1.0  0.37923  0.75733  0.39134  1.0000
  C   C377      1.0  0.40171  0.75377  0.39929  1.0000
  C   C378      1.0  0.41827  0.77101  0.39543  1.0000
  C   C379      1.0  0.41246  0.79156  0.38380  1.0000
  H   H379      1.0  0.35591  0.78053  0.37384  1.0000
  H   H380      1.0  0.36629  0.74428  0.39420  1.0000
  H   H381      1.0  0.43569  0.76847  0.40155  1.0000
  H   H382      1.0  0.42536  0.80464  0.38098  1.0000
  C   C380      1.0  0.39308  0.95527  0.37693  1.0000
  C   C381      1.0  0.37888  0.95511  0.35751  1.0000
  C   C382      1.0  0.36356  0.97359  0.35335  1.0000
  C   C383      1.0  0.49272  0.61695  0.38212  1.0000
  C   C384      1.0  0.08481  0.60062  0.48607  1.0000
  C   C385      1.0  0.39209  0.97432  0.39180  1.0000
  H   H383      1.0  0.37938  0.94055  0.34598  1.0000
  H   H384      1.0  0.35237  0.97315  0.33852  1.0000
  C   C386      1.0  0.20654  0.60014  0.45471  1.0000
  H   H385      1.0  0.40300  0.97465  0.40687  1.0000
  H   H386      1.0  0.34181  0.93906  0.38620  1.0000
  C   C387      1.0  0.47346  0.61187  0.39608  1.0000
  C   C388      1.0  0.45301  0.62488  0.39442  1.0000
  C   C389      1.0  0.45172  0.64262  0.37822  1.0000
  C   C390      1.0  0.47073  0.64727  0.36387  1.0000
  C   C391      1.0  0.37692  0.99288  0.38754  1.0000
  H   H387      1.0  0.47457  0.59801  0.40848  1.0000
  H   H388      1.0  0.43609  0.65271  0.37666  1.0000
  C   C392      1.0  0.12654  0.60657  0.26536  1.0000
  C   C393      1.0  0.14321  0.59462  0.27830  1.0000
  C   C394      1.0  0.14624  0.59915  0.30188  1.0000
  C   C395      1.0  0.13274  0.61587  0.31281  1.0000
  C   C396      1.0  0.11625  0.62806  0.29980  1.0000
  C   C397      1.0  0.11306  0.62338  0.27621  1.0000
  H   H389      1.0  0.15376  0.58162  0.27006  1.0000
  H   H390      1.0  0.15916  0.58981  0.31155  1.0000
  H   H391      1.0  0.10577  0.64109  0.30809  1.0000
  H   H392      1.0  0.08846  0.60023  0.46774  1.0000
  H   H393      1.0  0.21825  0.62477  0.42949  1.0000
  H   H394      1.0  0.32952  0.93259  0.41412  1.0000
  C   C398      1.0  0.20904  0.64095  0.46165  1.0000
  C   C399      1.0  0.08299  0.62162  0.49766  1.0000
  C   C400      1.0  0.19310  0.57335  0.48424  1.0000
  H   H395      1.0  0.10417  0.57816  0.33978  1.0000
  C   C401      1.0  0.08896  0.56643  0.27409  1.0000
  C   C402      1.0  0.34569  0.93295  0.40390  1.0000
  H   H396      1.0  0.20862  0.58571  0.44311  1.0000
  H   H397      1.0  0.34664  0.91878  0.26305  1.0000
  H   H398      1.0  0.35712  0.56750  0.40551  1.0000
  C   C403      1.0  0.33866  0.59024  0.38265  1.0000
  H   H399      1.0  0.35176  0.65303  0.35466  1.0000
  N   N35       1.0  0.10834  0.55751  0.30948  1.0000
  C   C404      1.0  0.12105  0.54086  0.29865  1.0000
  C   C405      1.0  0.09226  0.57006  0.29762  1.0000
  C   C406      1.0  0.38091  0.61076  0.37419  1.0000
  H   H400      1.0  0.38618  0.61834  0.49689  1.0000
  C   C407      1.0  0.21199  0.62224  0.44694  1.0000
  S   S143      1.0  0.36272  0.66311  0.49928  1.0000
  H   H401      1.0  0.13371  0.53092  0.30822  1.0000
  H   H402      1.0  0.08249  0.58355  0.30612  1.0000
  H   H403      1.0  0.32506  0.61581  0.35962  1.0000
  C   C408      1.0  0.11217  0.56173  0.33397  1.0000
  C   C409      1.0  0.36241  0.99254  0.36838  1.0000
  H   H404      1.0  0.48306  0.67268  0.44720  1.0000
  H   H405      1.0  0.13095  0.56319  0.33740  1.0000
  C   C410      1.0  0.37963  0.59208  0.38932  1.0000
  H   H406      1.0  0.08526  0.56377  0.48970  1.0000
  H   H407      1.0  0.34982  0.85817  0.37765  1.0000
  S   S144      1.0  0.49204  0.84888  0.35061  1.0000
  C   C411      1.0  0.48362  0.70869  0.37390  1.0000
  N   N36       1.0  0.36147  0.61898  0.36360  1.0000
  C   C412      1.0  0.35664  0.87122  0.38908  1.0000
  H   H408      1.0  0.14645  0.66475  0.47815  1.0000
  N   N37       1.0  0.35630  0.91000  0.40338  1.0000
  H   H409      1.0  0.38260  0.84872  0.40326  1.0000
  C   C413      1.0  0.49964  0.67930  0.39857  1.0000
  C   C414      1.0  0.37510  0.86588  0.40348  1.0000
  H   H410      1.0  0.44676  0.69458  0.41694  1.0000
  H   H411      1.0  0.37884  0.92718  0.28650  1.0000
  H   H412      1.0  0.38056  0.64532  0.34609  1.0000
  C   C415      1.0  0.10228  0.54992  0.26274  1.0000
  C   C416      1.0  0.46230  0.69429  0.40651  1.0000
  C   C417      1.0  0.11834  0.53692  0.27507  1.0000
  H   H413      1.0  0.07698  0.57710  0.26445  1.0000
  C   C418      1.0  0.46383  0.70910  0.38759  1.0000
  N   N38       1.0  0.47988  0.67934  0.41150  1.0000
  H   H414      1.0  0.46956  0.66102  0.35135  1.0000
  H   H415      1.0  0.48238  0.81027  0.38158  1.0000
  H   H416      1.0  0.48482  0.71962  0.35881  1.0000
  H   H417      1.0  0.32191  0.58266  0.38604  1.0000
  C   C419      1.0  0.49145  0.63474  0.36595  1.0000
  H   H418      1.0  0.33310  0.89756  0.37794  1.0000
  H   H419      1.0  0.48113  0.83376  0.40100  1.0000
  H   H420      1.0  0.49779  0.88304  0.38725  1.0000
  C   C420      1.0  0.47774  0.66377  0.43124  1.0000
  H   H421      1.0  0.38185  0.91806  0.42842  1.0000
  H   H422      1.0  0.33221  0.62247  0.48641  1.0000
  C   C421      1.0  0.37434  0.90486  0.41765  1.0000
  H   H423      1.0  0.48846  0.64803  0.42885  1.0000
  C   C422      1.0  0.38412  0.88281  0.41779  1.0000
  C   C423      1.0  0.36269  0.63873  0.34794  1.0000
  C   C424      1.0  0.38250  0.94371  0.27758  1.0000
  H   H424      1.0  0.35637  0.63384  0.33064  1.0000
  H   H425      1.0  0.10011  0.63266  0.26652  1.0000
  C   C425      1.0  0.08321  0.58013  0.49846  1.0000
  H   H426      1.0  0.21274  0.65823  0.45565  1.0000
  H   H427      1.0  0.39755  0.61876  0.37128  1.0000
  C   C426      1.0  0.41673  0.82770  0.26060  1.0000
  H   H428      1.0  0.39508  0.58584  0.39789  1.0000
  H   H429      1.0  0.44956  0.72056  0.38348  1.0000
  H   H430      1.0  0.41364  0.81978  0.27723  1.0000
  C   C427      1.0  0.48504  0.81504  0.39989  1.0000
  C   C428      1.0  0.20113  0.63730  0.48404  1.0000
  H   H431      1.0  0.18091  0.57345  0.49900  1.0000
  H   H432      1.0  0.20918  0.56425  0.48926  1.0000
  N   N39       1.0  0.37103  0.94506  0.25516  1.0000
  H   H433      1.0  0.45964  0.65776  0.43320  1.0000
  H   H434      1.0  0.30127  0.62159  0.48230  1.0000
  H   H435      1.0  0.18450  0.56357  0.47026  1.0000
  C   C429      1.0  0.13867  0.60187  0.49848  1.0000
  C   C430      1.0  0.19611  0.61492  0.49132  1.0000
  C   C431      1.0  0.31525  0.62795  0.49358  1.0000
  H   H436      1.0  0.44683  0.84616  0.27187  1.0000
  C   C432      1.0  0.37950  0.87564  0.25842  1.0000
  H   H437      1.0  0.37675  0.95811  0.28877  1.0000
  H   H438      1.0  0.40157  0.94439  0.27546  1.0000
  H   H439      1.0  0.19832  0.65175  0.49555  1.0000
  H   H440      1.0  0.12892  0.52425  0.26631  1.0000
  C   C433      1.0  0.39821  0.89021  0.25455  1.0000
  C   C434      1.0  0.50173  0.69382  0.37947  1.0000
  C   C435      1.0  0.43545  0.84238  0.25758  1.0000
  H   H441      1.0  0.31532  0.64710  0.49317  1.0000
  Fe  Fe73      1.0  0.08725  0.86887  0.71072  1.0000
  S   S145      1.0  0.11265  0.87859  0.68302  1.0000
  H   H442      1.0  0.06875  0.81477  0.64720  1.0000
  Fe  Fe74      1.0  0.05025  0.85415  0.67473  1.0000
  S   S146      1.0  0.07287  0.86449  0.64519  1.0000
  H   H443      1.0  0.05008  0.71770  0.64370  1.0000
  Fe  Fe75      1.0  0.10086  0.84616  0.66490  1.0000
  S   S147      1.0  0.12297  0.82213  0.64293  1.0000
  Fe  Fe76      1.0  0.08241  0.89567  0.66596  1.0000
  S   S148      1.0  0.08152  0.93304  0.65396  1.0000
  S   S149      1.0  0.07804  0.83498  0.69410  1.0000
  S   S150      1.0  0.05714  0.88685  0.69393  1.0000
  Fe  Fe77      1.0  0.12224  0.68466  0.61182  1.0000
  S   S151      1.0  0.11630  0.65026  0.62876  1.0000
  S   S152      1.0  0.11335  0.71286  0.63781  1.0000
  Fe  Fe78      1.0  0.13290  0.66113  0.56548  1.0000
  S   S153      1.0  0.12708  0.62584  0.57969  1.0000
  S   S154      1.0  0.14164  0.66569  0.52743  1.0000
  Fe  Fe79      1.0  0.09615  0.64138  0.59732  1.0000
  S   S155      1.0  0.06153  0.62337  0.59498  1.0000
  Fe  Fe80      1.0  0.14795  0.63819  0.60970  1.0000
  S   S156      1.0  0.17354  0.61444  0.62779  1.0000
  S   S157      1.0  0.10041  0.67612  0.58109  1.0000
  S   S158      1.0  0.15551  0.67308  0.59488  1.0000
  Fe  Fe81      1.0  0.31224  0.59413  0.63095  1.0000
  S   S159      1.0  0.34579  0.61313  0.62675  1.0000
  S   S160      1.0  0.28311  0.61746  0.61798  1.0000
  Fe  Fe82      1.0  0.33837  0.54962  0.64418  1.0000
  S   S161      1.0  0.37314  0.56577  0.63967  1.0000
  C   C436      1.0  0.12872  0.96164  0.71182  1.0000
  Fe  Fe83      1.0  0.35749  0.59536  0.65918  1.0000
  S   S162      1.0  0.37836  0.61545  0.68554  1.0000
  Fe  Fe84      1.0  0.35798  0.58202  0.60778  1.0000
  S   S163      1.0  0.37615  0.58288  0.57304  1.0000
  S   S164      1.0  0.32308  0.57885  0.66511  1.0000
  S   S165      1.0  0.32434  0.56334  0.61068  1.0000
  C   C437      1.0  0.38202  0.60745  0.71484  1.0000
  C   C438      1.0  0.37165  0.58782  0.72409  1.0000
  C   C439      1.0  0.00530  0.63352  0.65021  1.0000
  H   H444      1.0  0.36095  0.57715  0.71330  1.0000
  H   H445      1.0  0.16923  0.91313  0.73269  1.0000
  C   C440      1.0  0.36724  0.64075  0.51957  1.0000
  C   C441      1.0  0.35810  0.64326  0.54184  1.0000
  C   C442      1.0  0.36051  0.62563  0.55832  1.0000
  C   C443      1.0  0.37237  0.60538  0.55275  1.0000
  C   C444      1.0  0.38170  0.60295  0.53055  1.0000
  C   C445      1.0  0.37901  0.62047  0.51396  1.0000
  H   H446      1.0  0.34890  0.65887  0.54631  1.0000
  H   H447      1.0  0.35322  0.62775  0.57532  1.0000
  H   H448      1.0  0.39099  0.58738  0.52611  1.0000
  C   C446      1.0  0.06624  0.76790  0.61850  1.0000
  C   C447      1.0  0.04207  0.75173  0.65637  1.0000
  N   N40       1.0  0.05719  0.78308  0.63409  1.0000
  C   C448      1.0  0.09447  0.99252  0.59991  1.0000
  H   H449      1.0  0.14702  0.63002  0.66713  1.0000
  H   H450      1.0  0.13681  0.61590  0.53270  1.0000
  C   C449      1.0  0.04009  0.62755  0.61642  1.0000
  C   C450      1.0  0.04352  0.64262  0.63478  1.0000
  C   C451      1.0  0.02620  0.64560  0.65154  1.0000
  H   H451      1.0  0.39174  0.67799  0.64552  1.0000
  H   H452      1.0  0.32562  0.57328  0.55032  1.0000
  H   H453      1.0  0.05958  0.65190  0.63616  1.0000
  H   H454      1.0  0.02909  0.65720  0.66575  1.0000
  H   H455      1.0  0.01626  0.60395  0.60078  1.0000
  C   C452      1.0  0.20390  0.61469  0.62382  1.0000
  C   C453      1.0  0.21756  0.59838  0.63549  1.0000
  C   C454      1.0  0.24182  0.59872  0.63371  1.0000
  C   C455      1.0  0.25266  0.61555  0.62039  1.0000
  C   C456      1.0  0.23898  0.63186  0.60872  1.0000
  C   C457      1.0  0.21473  0.63139  0.61033  1.0000
  H   H456      1.0  0.20933  0.58542  0.64601  1.0000
  H   H457      1.0  0.25211  0.58609  0.64281  1.0000
  H   H458      1.0  0.24719  0.64500  0.59843  1.0000
  H   H459      1.0  0.20445  0.64410  0.60135  1.0000
  H   H460      1.0  0.29243  0.64847  0.52786  1.0000
  H   H461      1.0  0.07533  0.60258  0.55175  1.0000
  C   C458      1.0  0.12020  0.79174  0.64171  1.0000
  C   C459      1.0  0.10908  0.77936  0.65908  1.0000
  C   C460      1.0  0.10761  0.75521  0.65773  1.0000
  C   C461      1.0  0.11683  0.74318  0.63883  1.0000
  C   C462      1.0  0.12783  0.75553  0.62136  1.0000
  C   C463      1.0  0.12965  0.77969  0.62292  1.0000
  H   H462      1.0  0.10193  0.78835  0.67374  1.0000
  H   H463      1.0  0.09908  0.74582  0.67136  1.0000
  H   H464      1.0  0.13499  0.74654  0.60671  1.0000
  H   H465      1.0  0.13840  0.78913  0.60945  1.0000
  C   C464      1.0  0.10563  0.95138  0.65602  1.0000
  C   C465      1.0  0.12809  0.94263  0.65691  1.0000
  C   C466      1.0  0.14698  0.95773  0.65686  1.0000
  C   C467      1.0  0.14360  0.98167  0.65608  1.0000
  C   C468      1.0  0.29573  0.62346  0.55487  1.0000
  C   C469      1.0  0.10221  0.97535  0.65563  1.0000
  H   H466      1.0  0.13094  0.92422  0.65710  1.0000
  H   H467      1.0  0.28596  0.63342  0.56737  1.0000
  C   C470      1.0  0.20360  0.67147  0.65223  1.0000
  H   H468      1.0  0.08485  0.98222  0.65500  1.0000
  N   N41       1.0  0.11992  0.94069  0.71793  1.0000
  C   C471      1.0  0.17088  0.69724  0.65229  1.0000
  H   H469      1.0  0.40133  0.65460  0.66320  1.0000
  H   H470      1.0  0.33152  0.58860  0.51101  1.0000
  H   H471      1.0  0.14086  0.95657  0.60154  1.0000
  C   C472      1.0  0.39573  0.62121  0.72919  1.0000
  C   C473      1.0  0.07776  0.60215  0.53322  1.0000
  H   H472      1.0  0.06764  0.64316  0.54881  1.0000
  H   H473      1.0  0.38074  0.52669  0.68307  1.0000
  H   H474      1.0  0.08526  0.95170  0.71054  1.0000
  C   C474      1.0  0.06079  0.80783  0.63136  1.0000
  H   H475      1.0  0.16430  0.63159  0.69276  1.0000
  H   H476      1.0  0.03785  0.78750  0.66499  1.0000
  H   H477      1.0  0.37271  0.65407  0.65137  1.0000
  C   C475      1.0  0.31776  0.58951  0.54527  1.0000
  H   H478      1.0  0.22125  0.66745  0.64736  1.0000
  C   C476      1.0  0.09514  0.93626  0.71609  1.0000
  C   C477      1.0  0.29947  0.63181  0.53259  1.0000
  C   C478      1.0  0.13882  0.61980  0.51468  1.0000
  H   H479      1.0  0.14007  0.68396  0.66774  1.0000
  C   C479      1.0  0.13422  0.92344  0.72532  1.0000
  C   C480      1.0  0.19380  0.69266  0.64645  1.0000
  H   H480      1.0  0.18966  0.61230  0.50865  1.0000
  H   H481      1.0  0.04405  0.81678  0.62843  1.0000
  H   H482      1.0  0.15944  0.98209  0.70734  1.0000
  H   H483      1.0  0.13903  0.64936  0.69008  1.0000
  H   H484      1.0  0.13629  0.58434  0.50426  1.0000
  H   H485      1.0  0.20381  0.70541  0.63721  1.0000
  C   C481      1.0  0.10694  0.97184  0.60032  1.0000
  H   H486      1.0  0.09584  0.64970  0.53739  1.0000
  H   H487      1.0  0.18563  0.95101  0.72112  1.0000
  C   C482      1.0  0.19027  0.65512  0.66381  1.0000
  N   N42       1.0  0.39936  0.64675  0.62747  1.0000
  C   C483      1.0  0.39827  0.65699  0.60628  1.0000
  C   C484      1.0  0.40713  0.62459  0.62963  1.0000
  C   C485      1.0  0.40585  0.64526  0.58666  1.0000
  C   C486      1.0  0.41461  0.61228  0.61034  1.0000
  C   C487      1.0  0.41415  0.62281  0.58879  1.0000
  C   C488      1.0  0.39086  0.65905  0.64780  1.0000
  H   H488      1.0  0.39135  0.67425  0.60439  1.0000
  H   H489      1.0  0.40731  0.61619  0.64630  1.0000
  H   H490      1.0  0.40469  0.65324  0.56980  1.0000
  H   H491      1.0  0.42016  0.59450  0.61197  1.0000
  H   H492      1.0  0.41937  0.61322  0.57362  1.0000
  C   C489      1.0  0.13099  0.97243  0.60025  1.0000
  C   C490      1.0  0.15383  0.64185  0.68046  1.0000
  S   S166      1.0  0.33500  0.51287  0.65755  1.0000
  C   C491      1.0  0.06346  0.74419  0.62155  1.0000
  C   C492      1.0  0.04500  0.77534  0.65269  1.0000
  H   H493      1.0  0.11749  0.97519  0.70547  1.0000
  C   C493      1.0  0.16717  0.94817  0.72044  1.0000
  H   H494      1.0  0.19779  0.63840  0.66760  1.0000
  N   N43       1.0  0.31215  0.61932  0.51709  1.0000
  H   H495      1.0  0.09803  0.95549  0.60169  1.0000
  H   H496      1.0  0.07638  0.77400  0.60406  1.0000
  C   C494      1.0  0.05153  0.73609  0.64074  1.0000
  C   C495      1.0  0.37498  0.58207  0.74742  1.0000
  H   H497      1.0  0.40388  0.63640  0.72221  1.0000
  C   C496      1.0  0.37736  0.52053  0.70087  1.0000
  H   H498      1.0  0.16294  0.71356  0.64764  1.0000
  H   H499      1.0  0.16433  0.95080  0.65725  1.0000
  N   N44       1.0  0.16781  0.65974  0.66946  1.0000
  C   C497      1.0  0.15802  0.68043  0.66373  1.0000
  C   C498      1.0  0.12112  0.99047  0.65569  1.0000
  C   C499      1.0  0.01908  0.61565  0.61491  1.0000
  C   C500      1.0  0.15802  0.92693  0.72681  1.0000
  H   H500      1.0  0.07275  0.81192  0.61697  1.0000
  C   C501      1.0  0.15246  0.96568  0.71291  1.0000
  C   C502      1.0  0.32114  0.59835  0.52312  1.0000
  H   H501      1.0  0.37731  0.51114  0.63019  1.0000
  H   H502      1.0  0.07868  0.56503  0.53209  1.0000
  H   H503      1.0  0.07021  0.65782  0.52182  1.0000
  H   H504      1.0  0.07148  0.73214  0.60970  1.0000
  H   H505      1.0  0.38453  0.53313  0.71325  1.0000
  H   H506      1.0  0.03289  0.74565  0.67144  1.0000
  H   H507      1.0  0.07580  0.99186  0.60049  1.0000
  C   C503      1.0  0.07813  0.64430  0.53280  1.0000
  C   C504      1.0  0.14152  0.64259  0.50751  1.0000
  H   H508      1.0  0.12728  0.90678  0.72994  1.0000
  C   C505      1.0  0.30493  0.60218  0.56116  1.0000
  H   H509      1.0  0.35826  0.52005  0.70274  1.0000
  N   N45       1.0  0.07914  0.62216  0.52088  1.0000
  H   H510      1.0  0.30231  0.59566  0.57843  1.0000
  H   H511      1.0  0.08814  0.93026  0.73287  1.0000
  S   S167      1.0  0.01702  0.83367  0.67014  1.0000
  H   H512      1.0  0.09213  0.92268  0.70310  1.0000
  C   C506      1.0  0.07967  0.58084  0.52220  1.0000
  H   H513      1.0  0.00827  0.87208  0.63852  1.0000
  C   C507      1.0  0.14226  0.99357  0.59946  1.0000
  S   S168      1.0  0.16801  0.99975  0.65566  1.0000
  S   S169      1.0  0.09000  0.88143  0.74793  1.0000
  H   H514      1.0  0.16096  0.99426  0.60013  1.0000
  H   H515      1.0  0.41461  0.50265  0.68033  1.0000
  Fe  Fe85      1.0  0.16801  0.89362  0.86024  1.0000
  S   S170      1.0  0.19615  0.92013  0.86146  1.0000
  S   S171      1.0  0.16414  0.87110  0.82834  1.0000
  Fe  Fe86      1.0  0.15318  0.90344  0.90973  1.0000
  S   S172      1.0  0.17951  0.93125  0.91372  1.0000
  S   S173      1.0  0.12907  0.89674  0.94002  1.0000
  Fe  Fe87      1.0  0.16926  0.94277  0.87829  1.0000
  S   S174      1.0  0.16829  0.98010  0.86578  1.0000
  Fe  Fe88      1.0  0.20407  0.90630  0.89675  1.0000
  S   S175      1.0  0.23815  0.90287  0.91617  1.0000
  S   S176      1.0  0.14072  0.91680  0.87528  1.0000
  S   S177      1.0  0.17798  0.87791  0.89456  1.0000
  Fe  Fe89      1.0  0.40324  0.84562  0.93124  1.0000
  S   S178      1.0  0.40841  0.81766  0.95736  1.0000
  S   S179      1.0  0.43170  0.87162  0.92489  1.0000
  Fe  Fe90      1.0  0.35415  0.83011  0.92057  1.0000
  S   S180      1.0  0.35630  0.80040  0.94536  1.0000
  S   S181      1.0  0.32327  0.83552  0.89698  1.0000
  Fe  Fe91      1.0  0.37250  0.82634  0.96933  1.0000
  H   H516      1.0  0.33020  0.87686  0.86771  1.0000
  Fe  Fe92      1.0  0.39202  0.79432  0.93107  1.0000
  S   S182      1.0  0.41288  0.76200  0.92185  1.0000
  S   S183      1.0  0.36834  0.85624  0.94509  1.0000
  S   S184      1.0  0.38878  0.82222  0.90446  1.0000
  Fe  Fe93      1.0  0.41587  0.58841  0.87102  1.0000
  S   S185      1.0  0.43857  0.58714  0.83967  1.0000
  S   S186      1.0  0.41253  0.55578  0.89253  1.0000
  Fe  Fe94      1.0  0.40269  0.63915  0.86243  1.0000
  S   S187      1.0  0.42328  0.64060  0.82969  1.0000
  S   S188      1.0  0.37962  0.66920  0.87327  1.0000
  Fe  Fe95      1.0  0.40934  0.60535  0.82168  1.0000
  S   S189      1.0  0.39180  0.58782  0.79113  1.0000
  Fe  Fe96      1.0  0.45061  0.62223  0.85070  1.0000
  S   S190      1.0  0.48711  0.63665  0.84899  1.0000
  S   S191      1.0  0.38641  0.60531  0.85292  1.0000
  S   S192      1.0  0.43034  0.62221  0.88366  1.0000
  H   H517      1.0  0.39584  0.90510  0.91354  1.0000
  C   C508      1.0  0.34475  0.88340  0.87739  1.0000
  C   C509      1.0  0.40318  0.73654  0.90797  1.0000
  C   C510      1.0  0.37999  0.73305  0.90246  1.0000
  C   C511      1.0  0.37307  0.71240  0.89181  1.0000
  C   C512      1.0  0.38923  0.69506  0.88644  1.0000
  C   C513      1.0  0.41245  0.69866  0.89170  1.0000
  C   C514      1.0  0.41935  0.71924  0.90248  1.0000
  H   H518      1.0  0.36734  0.74615  0.90659  1.0000
  H   H519      1.0  0.35507  0.70983  0.88782  1.0000
  H   H520      1.0  0.42500  0.68552  0.88752  1.0000
  H   H521      1.0  0.43731  0.72178  0.90664  1.0000
  C   C515      1.0  0.37216  0.53871  0.87343  1.0000
  C   C516      1.0  0.39035  0.53513  0.88881  1.0000
  C   C517      1.0  0.47477  0.79222  0.90546  1.0000
  H   H522      1.0  0.37104  0.55469  0.86396  1.0000
  H   H523      1.0  0.40501  0.54137  0.81948  1.0000
  H   H524      1.0  0.16538  0.82834  0.97533  1.0000
  N   N46       1.0  0.36635  0.87445  0.87403  1.0000
  C   C518      1.0  0.36962  0.85620  0.85695  1.0000
  H   H525      1.0  0.46087  0.67982  0.91090  1.0000
  H   H526      1.0  0.12342  0.97984  0.88917  1.0000
  C   C519      1.0  0.26134  0.88359  0.91066  1.0000
  C   C520      1.0  0.27989  0.88275  0.92620  1.0000
  C   C521      1.0  0.29876  0.86782  0.92251  1.0000
  C   C522      1.0  0.29934  0.85368  0.90309  1.0000
  C   C523      1.0  0.28084  0.85457  0.88752  1.0000
  C   C524      1.0  0.26185  0.86935  0.89133  1.0000
  H   H527      1.0  0.27966  0.89375  0.94118  1.0000
  H   H528      1.0  0.31292  0.86736  0.93457  1.0000
  H   H529      1.0  0.28115  0.84374  0.87242  1.0000
  H   H530      1.0  0.24774  0.86986  0.87920  1.0000
  C   C525      1.0  0.35539  0.52153  0.87026  1.0000
  N   N47       1.0  0.18764  0.89528  0.98302  1.0000
  H   H531      1.0  0.35246  0.66448  0.83232  1.0000
  C   C526      1.0  0.12264  0.87898  0.98342  1.0000
  N   N48       1.0  0.49729  0.67751  0.90806  1.0000
  C   C527      1.0  0.47048  0.84519  0.87267  1.0000
  C   C528      1.0  0.45233  0.84904  0.88832  1.0000
  C   C529      1.0  0.45402  0.86653  0.90467  1.0000
  C   C530      1.0  0.47396  0.88019  0.90513  1.0000
  C   C531      1.0  0.38870  0.59583  0.76178  1.0000
  H   H532      1.0  0.43713  0.83838  0.88778  1.0000
  H   H533      1.0  0.47536  0.89384  0.91766  1.0000
  H   H534      1.0  0.46635  0.77824  0.89648  1.0000
  C   C532      1.0  0.11182  0.87921  0.76925  1.0000
  C   C533      1.0  0.11010  0.89315  0.78895  1.0000
  C   C534      1.0  0.12649  0.89155  0.80676  1.0000
  C   C535      1.0  0.14462  0.87566  0.80524  1.0000
  C   C536      1.0  0.14647  0.86188  0.78544  1.0000
  C   C537      1.0  0.13031  0.86378  0.76742  1.0000
  H   H535      1.0  0.09588  0.90516  0.79052  1.0000
  H   H536      1.0  0.12482  0.90224  0.82187  1.0000
  H   H537      1.0  0.16037  0.84945  0.78415  1.0000
  C   C538      1.0  0.34084  0.90026  0.89408  1.0000
  C   C539      1.0  0.33402  0.63862  0.85108  1.0000
  C   C540      1.0  0.13444  0.87663  0.96239  1.0000
  C   C541      1.0  0.14992  0.85832  0.95961  1.0000
  C   C542      1.0  0.39150  0.51421  0.90098  1.0000
  H   H538      1.0  0.15911  0.85624  0.94354  1.0000
  H   H539      1.0  0.22472  0.83985  0.98340  1.0000
  H   H540      1.0  0.32334  0.58476  0.83137  1.0000
  H   H541      1.0  0.49099  0.60541  0.88834  1.0000
  C   C543      1.0  0.47392  0.82157  0.93468  1.0000
  H   H542      1.0  0.14196  0.82699  0.85156  1.0000
  H   H543      1.0  0.36463  0.86250  0.83963  1.0000
  C   C544      1.0  0.12666  0.86353  0.00172  1.0000
  N   N49       1.0  0.34854  0.63377  0.81265  1.0000
  H   H544      1.0  0.34136  0.52450  0.85838  1.0000
  H   H545      1.0  0.20322  0.90244  0.95056  1.0000
  C   C545      1.0  0.12685  0.99711  0.88316  1.0000
  C   C546      1.0  0.49227  0.87615  0.88962  1.0000
  H   H546      1.0  0.46480  0.83076  0.94819  1.0000
  H   H547      1.0  0.11111  0.99846  0.83189  1.0000
  H   H548      1.0  0.34381  0.60071  0.79757  1.0000
  H   H549      1.0  0.32349  0.90668  0.89715  1.0000
  C   C547      1.0  0.36186  0.64261  0.79314  1.0000
  H   H550      1.0  0.40983  0.62611  0.76328  1.0000
  H   H551      1.0  0.33235  0.64919  0.86640  1.0000
  H   H552      1.0  0.18385  0.93110  0.98879  1.0000
  H   H553      1.0  0.44611  0.79796  0.92834  1.0000
  C   C548      1.0  0.15343  0.84250  0.97767  1.0000
  N   N50       1.0  0.10198  0.86667  0.88722  1.0000
  C   C549      1.0  0.11818  0.85339  0.89811  1.0000
  C   C550      1.0  0.09985  0.86592  0.86380  1.0000
  C   C551      1.0  0.13262  0.83871  0.88553  1.0000
  C   C552      1.0  0.11373  0.85114  0.85076  1.0000
  C   C553      1.0  0.13037  0.83766  0.86169  1.0000
  C   C554      1.0  0.08772  0.88280  0.90048  1.0000
  H   H554      1.0  0.12024  0.85432  0.91661  1.0000
  H   H555      1.0  0.08758  0.87698  0.85502  1.0000
  H   H556      1.0  0.14581  0.82862  0.89415  1.0000
  H   H557      1.0  0.11222  0.85072  0.83217  1.0000
  C   C555      1.0  0.32583  0.61611  0.85094  1.0000
  H   H558      1.0  0.08598  0.87718  0.91870  1.0000
  H   H559      1.0  0.09591  0.90006  0.90047  1.0000
  H   H560      1.0  0.07009  0.88422  0.89320  1.0000
  C   C556      1.0  0.34547  0.64720  0.83171  1.0000
  C   C557      1.0  0.38460  0.88228  0.88662  1.0000
  C   C558      1.0  0.32912  0.60248  0.83146  1.0000
  H   H561      1.0  0.35958  0.66150  0.79119  1.0000
  H   H562      1.0  0.38780  0.85008  0.85619  1.0000
  H   H563      1.0  0.35870  0.84115  0.86149  1.0000
  C   C559      1.0  0.21462  0.85560  0.98349  1.0000
  H   H564      1.0  0.35648  0.92102  0.92038  1.0000
  H   H565      1.0  0.31749  0.60908  0.86611  1.0000
  C   C560      1.0  0.21583  0.87081  0.96495  1.0000
  H   H566      1.0  0.35644  0.63445  0.77675  1.0000
  C   C561      1.0  0.34067  0.61162  0.81238  1.0000
  C   C562      1.0  0.47419  0.67055  0.90070  1.0000
  C   C563      1.0  0.20221  0.89073  0.96505  1.0000
  H   H567      1.0  0.40177  0.87518  0.88413  1.0000
  H   H568      1.0  0.38045  0.63880  0.79584  1.0000
  H   H569      1.0  0.11050  0.89300  0.98569  1.0000
  H   H570      1.0  0.49902  0.65234  0.93476  1.0000
  C   C564      1.0  0.17355  0.91629  0.98269  1.0000
  C   C565      1.0  0.49058  0.85859  0.87332  1.0000
  H   H571      1.0  0.40545  0.51129  0.91296  1.0000
  H   H572      1.0  0.47146  0.67414  0.88210  1.0000
  H   H573      1.0  0.46905  0.83156  0.86012  1.0000
  C   C566      1.0  0.38136  0.89929  0.90331  1.0000
  C   C567      1.0  0.14212  0.84519  0.99894  1.0000
  C   C568      1.0  0.35930  0.90820  0.90714  1.0000
  H   H574      1.0  0.36680  0.56691  0.75441  1.0000
  H   H575      1.0  0.22711  0.86718  0.95044  1.0000
  H   H576      1.0  0.47177  0.65171  0.90292  1.0000
  C   C569      1.0  0.46332  0.80332  0.92342  1.0000
  H   H577      1.0  0.16731  0.92000  0.96499  1.0000
  C   C570      1.0  0.49601  0.82842  0.92785  1.0000
  H   H578      1.0  0.37689  0.51003  0.81332  1.0000
  C   C571      1.0  0.49685  0.79954  0.89903  1.0000
  C   C572      1.0  0.40678  0.52516  0.82868  1.0000
  C   C573      1.0  0.20010  0.86063  0.00200  1.0000
  H   H579      1.0  0.49997  0.70411  0.88289  1.0000
  H   H580      1.0  0.15789  0.91446  0.99358  1.0000
  C   C574      1.0  0.14771  0.00189  0.87208  1.0000
  H   H581      1.0  0.43642  0.53605  0.84807  1.0000
  C   C575      1.0  0.18677  0.88076  0.00155  1.0000
  C   C576      1.0  0.42451  0.52216  0.84458  1.0000
  C   C577      1.0  0.39089  0.50743  0.82536  1.0000
  C   C578      1.0  0.39909  0.61545  0.75253  1.0000
  H   H582      1.0  0.13182  0.85288  0.75244  1.0000
  Fe  Fe97      1.0  0.55598  0.36935  0.18552  1.0000
  S   S193      1.0  0.58010  0.36573  0.15553  1.0000
  H   H583      1.0  0.89672  0.01320  0.19634  1.0000
  Fe  Fe98      1.0  0.59488  0.38354  0.21888  1.0000
  S   S194      1.0  0.62195  0.38078  0.19116  1.0000
  C   C579      1.0  0.50777  0.42201  0.17452  1.0000
  Fe  Fe99      1.0  0.59616  0.39871  0.16842  1.0000
  S   S195      1.0  0.60176  0.42873  0.14383  1.0000
  Fe  Fe100     1.0  0.60358  0.34801  0.18081  1.0000
  S   S196      1.0  0.62323  0.31434  0.17505  1.0000
  S   S197      1.0  0.57017  0.40337  0.19651  1.0000
  S   S198      1.0  0.57837  0.34969  0.21032  1.0000
  Fe  Fe101     1.0  0.84137  0.04675  0.14692  1.0000
  S   S199      1.0  0.86777  0.07264  0.13556  1.0000
  C   C580      1.0  0.93727  0.06611  0.23918  1.0000
  Fe  Fe102     1.0  0.80084  0.08070  0.13618  1.0000
  S   S200      1.0  0.82491  0.10892  0.12535  1.0000
  S   S201      1.0  0.76205  0.08099  0.12938  1.0000
  Fe  Fe103     1.0  0.84391  0.08119  0.10608  1.0000
  S   S202      1.0  0.85221  0.08145  0.06764  1.0000
  Fe  Fe104     1.0  0.84647  0.09780  0.15601  1.0000
  S   S203      1.0  0.86412  0.12206  0.18119  1.0000
  S   S204      1.0  0.81912  0.05310  0.11594  1.0000
  S   S205      1.0  0.82073  0.07189  0.16831  1.0000
  Fe  Fe105     1.0  0.64041  0.16353  0.06629  1.0000
  S   S206      1.0  0.64059  0.13612  0.09357  1.0000
  S   S207      1.0  0.65969  0.15864  0.03233  1.0000
  Fe  Fe106     1.0  0.62021  0.20000  0.09990  1.0000
  S   S208      1.0  0.61951  0.17509  0.12950  1.0000
  S   S209      1.0  0.60606  0.23675  0.10060  1.0000
  Fe  Fe107     1.0  0.65454  0.16342  0.11677  1.0000
  S   S210      1.0  0.68587  0.15982  0.13997  1.0000
  Fe  Fe108     1.0  0.60550  0.15011  0.10363  1.0000
  S   S211      1.0  0.57569  0.12554  0.11004  1.0000
  S   S212      1.0  0.65625  0.19038  0.08921  1.0000
  S   S213      1.0  0.60430  0.17551  0.07441  1.0000
  C   C581      1.0  0.55210  0.13212  0.12828  1.0000
  C   C582      1.0  0.53362  0.11662  0.12988  1.0000
  H   H584      1.0  0.89268  0.04003  0.16370  1.0000
  C   C583      1.0  0.53337  0.15597  0.15713  1.0000
  C   C584      1.0  0.55179  0.15195  0.14183  1.0000
  H   H585      1.0  0.53374  0.10122  0.11946  1.0000
  C   C585      1.0  0.64751  0.31956  0.11376  1.0000
  H   H586      1.0  0.56589  0.16402  0.14075  1.0000
  C   C586      1.0  0.74153  0.10351  0.13222  1.0000
  C   C587      1.0  0.72004  0.10118  0.12133  1.0000
  C   C588      1.0  0.70308  0.11851  0.12308  1.0000
  C   C589      1.0  0.70720  0.13813  0.13629  1.0000
  C   C590      1.0  0.72869  0.14049  0.14718  1.0000
  C   C591      1.0  0.74590  0.12339  0.14494  1.0000
  H   H587      1.0  0.71654  0.08587  0.11140  1.0000
  H   H588      1.0  0.68678  0.11651  0.11437  1.0000
  H   H589      1.0  0.73204  0.15559  0.15746  1.0000
  H   H590      1.0  0.76234  0.12536  0.15347  1.0000
  H   H591      1.0  0.91659  0.13480  0.02841  1.0000
  C   C592      1.0  0.87378  0.11253  0.20847  1.0000
  C   C593      1.0  0.86945  0.09021  0.21629  1.0000
  H   H592      1.0  0.92853  0.09172  0.20194  1.0000
  H   H593      1.0  0.86022  0.07828  0.20546  1.0000
  C   C594      1.0  0.86769  0.14143  0.01843  1.0000
  C   C595      1.0  0.86877  0.14476  0.04236  1.0000
  C   C596      1.0  0.86282  0.12698  0.05776  1.0000
  C   C597      1.0  0.85601  0.10557  0.04933  1.0000
  C   C598      1.0  0.85420  0.10250  0.02542  1.0000
  H   H594      1.0  0.52191  0.41495  0.18533  1.0000
  H   H595      1.0  0.87487  0.16098  0.04903  1.0000
  H   H596      1.0  0.86438  0.12956  0.07611  1.0000
  H   H597      1.0  0.84884  0.08601  0.01875  1.0000
  H   H598      1.0  0.62463  0.09312  0.13127  1.0000
  C   C599      1.0  0.61448  0.29169  0.15667  1.0000
  C   C600      1.0  0.60021  0.29571  0.13772  1.0000
  C   C601      1.0  0.59700  0.27832  0.12119  1.0000
  C   C602      1.0  0.60767  0.25665  0.12362  1.0000
  C   C603      1.0  0.62082  0.25222  0.14326  1.0000
  C   C604      1.0  0.62432  0.26972  0.15961  1.0000
  H   H599      1.0  0.59259  0.31254  0.13521  1.0000
  H   H600      1.0  0.58675  0.28187  0.10607  1.0000
  H   H601      1.0  0.62904  0.23561  0.14540  1.0000
  H   H602      1.0  0.63532  0.26643  0.17426  1.0000
  C   C605      1.0  0.89340  0.12083  0.24479  1.0000
  C   C606      1.0  0.63297  0.49149  0.14069  1.0000
  C   C607      1.0  0.61992  0.47174  0.13547  1.0000
  C   C608      1.0  0.61815  0.45342  0.15123  1.0000
  C   C609      1.0  0.62949  0.45511  0.17235  1.0000
  C   C610      1.0  0.64263  0.47478  0.17751  1.0000
  C   C611      1.0  0.87708  0.08325  0.23819  1.0000
  H   H603      1.0  0.61127  0.47061  0.11907  1.0000
  H   H604      1.0  0.62835  0.44114  0.18461  1.0000
  H   H605      1.0  0.65158  0.47571  0.19375  1.0000
  C   C612      1.0  0.91560  0.03750  0.21726  1.0000
  H   H606      1.0  0.72726  0.16639  0.09532  1.0000
  H   H607      1.0  0.90599  0.10767  0.03798  1.0000
  C   C613      1.0  0.92198  0.07432  0.20072  1.0000
  H   H608      1.0  0.53339  0.17125  0.16773  1.0000
  H   H609      1.0  0.64249  0.28458  0.08453  1.0000
  S   S214      1.0  0.51731  0.36307  0.18576  1.0000
  H   H610      1.0  0.57575  0.11229  0.20290  1.0000
  H   H611      1.0  0.90814  0.07990  0.16673  1.0000
  H   H612      1.0  0.51194  0.16169  0.10455  1.0000
  H   H613      1.0  0.56055  0.42753  0.11537  1.0000
  C   C614      1.0  0.67507  0.25203  0.12043  1.0000
  H   H614      1.0  0.63064  0.31937  0.10473  1.0000
  C   C615      1.0  0.71138  0.14671  0.06836  1.0000
  H   H615      1.0  0.68868  0.26380  0.15278  1.0000
  C   C616      1.0  0.66213  0.25804  0.10114  1.0000
  C   C617      1.0  0.65160  0.14067  0.00909  1.0000
  C   C618      1.0  0.51913  0.30582  0.16409  1.0000
  C   C619      1.0  0.67906  0.26841  0.13747  1.0000
  H   H616      1.0  0.69630  0.15778  0.06714  1.0000
  H   H617      1.0  0.65979  0.33048  0.10404  1.0000
  C   C620      1.0  0.66983  0.29058  0.13502  1.0000
  C   C621      1.0  0.51499  0.12084  0.14493  1.0000
  C   C622      1.0  0.71325  0.12731  0.05442  1.0000
  H   H618      1.0  0.58673  0.09515  0.15055  1.0000
  H   H619      1.0  0.56937  0.13979  0.18956  1.0000
  H   H620      1.0  0.61868  0.13090  0.02302  1.0000
  C   C623      1.0  0.85977  0.12040  0.01002  1.0000
  C   C624      1.0  0.60068  0.10582  0.15680  1.0000
  N   N51       1.0  0.74961  0.11782  0.07197  1.0000
  C   C625      1.0  0.57472  0.12169  0.18630  1.0000
  C   C626      1.0  0.88586  0.12776  0.22279  1.0000
  H   H621      1.0  0.73391  0.09779  0.04568  1.0000
  C   C627      1.0  0.76960  0.10235  0.07381  1.0000
  H   H622      1.0  0.56086  0.11382  0.17576  1.0000
  H   H623      1.0  0.65023  0.14485  0.17707  1.0000
  C   C628      1.0  0.90400  0.03034  0.19748  1.0000
  N   N52       1.0  0.92433  0.05928  0.21870  1.0000
  C   C629      1.0  0.63049  0.12917  0.00870  1.0000
  H   H624      1.0  0.93617  0.08500  0.24201  1.0000
  C   C630      1.0  0.62213  0.10454  0.14581  1.0000
  H   H625      1.0  0.51003  0.31062  0.11939  1.0000
  H   H626      1.0  0.88936  0.14504  0.21681  1.0000
  C   C631      1.0  0.61463  0.13467  0.18196  1.0000
  H   H627      1.0  0.77988  0.10264  0.05768  1.0000
  C   C632      1.0  0.72886  0.15165  0.08400  1.0000
  H   H628      1.0  0.68150  0.23456  0.12240  1.0000
  H   H629      1.0  0.76381  0.08448  0.07740  1.0000
  H   H630      1.0  0.78116  0.10716  0.08824  1.0000
  H   H631      1.0  0.69967  0.12345  0.04219  1.0000
  H   H632      1.0  0.52688  0.36584  0.13642  1.0000
  C   C633      1.0  0.50852  0.36374  0.13895  1.0000
  H   H633      1.0  0.93644  0.11090  0.03221  1.0000
  H   H634      1.0  0.52822  0.28897  0.16391  1.0000
  H   H635      1.0  0.87363  0.06592  0.24403  1.0000
  N   N53       1.0  0.51406  0.42143  0.15011  1.0000
  H   H636      1.0  0.61182  0.14662  0.19599  1.0000
  H   H637      1.0  0.95565  0.06103  0.23733  1.0000
  H   H638      1.0  0.65680  0.11775  0.14494  1.0000
  C   C634      1.0  0.73261  0.11294  0.05647  1.0000
  N   N54       1.0  0.59710  0.12090  0.17450  1.0000
  H   H639      1.0  0.53005  0.31884  0.15529  1.0000
  C   C635      1.0  0.53644  0.42513  0.14360  1.0000
  H   H640      1.0  0.67234  0.30301  0.14868  1.0000
  H   H641      1.0  0.64423  0.32752  0.13087  1.0000
  C   C636      1.0  0.83064  0.12928  0.24461  1.0000
  C   C637      1.0  0.64451  0.49305  0.16172  1.0000
  H   H642      1.0  0.65822  0.24526  0.08814  1.0000
  C   C638      1.0  0.91048  0.06772  0.18071  1.0000
  C   C639      1.0  0.65316  0.28035  0.09924  1.0000
  N   N55       1.0  0.65684  0.29619  0.11619  1.0000
  H   H643      1.0  0.76128  0.14069  0.09810  1.0000
  C   C640      1.0  0.74802  0.13698  0.08553  1.0000
  S   S215      1.0  0.85081  0.01396  0.16691  1.0000
  C   C641      1.0  0.63637  0.13369  0.17147  1.0000
  C   C642      1.0  0.54268  0.42486  0.12036  1.0000
  C   C643      1.0  0.64009  0.11848  0.15333  1.0000
  H   H644      1.0  0.54971  0.42822  0.15633  1.0000
  C   C644      1.0  0.91889  0.11589  0.02645  1.0000
  H   H645      1.0  0.53049  0.42063  0.08566  1.0000
  H   H646      1.0  0.89753  0.07829  0.01103  1.0000
  C   C645      1.0  0.90160  0.04552  0.17909  1.0000
  C   C646      1.0  0.51489  0.14047  0.15877  1.0000
  H   H647      1.0  0.91743  0.02557  0.23149  1.0000
  H   H648      1.0  0.82687  0.13604  0.22759  1.0000
  C   C647      1.0  0.52583  0.42108  0.10373  1.0000
  C   C648      1.0  0.82473  0.10672  0.25019  1.0000
  H   H649      1.0  0.81617  0.09598  0.23760  1.0000
  H   H650      1.0  0.51729  0.31180  0.18217  1.0000
  H   H651      1.0  0.50398  0.43994  0.17990  1.0000
  N   N56       1.0  0.91551  0.10909  0.00244  1.0000
  Fe  Fe109     1.0  0.70399  0.40994  0.40367  1.0000
  S   S216      1.0  0.67781  0.38157  0.40404  1.0000
  S   S217      1.0  0.73835  0.40474  0.42225  1.0000
  Fe  Fe110     1.0  0.66886  0.44511  0.38314  1.0000
  S   S218      1.0  0.64041  0.41897  0.38297  1.0000
  S   S219      1.0  0.66468  0.47917  0.36369  1.0000
  Fe  Fe111     1.0  0.65358  0.40828  0.41795  1.0000
  S   S220      1.0  0.62915  0.40212  0.44802  1.0000
  Fe  Fe112     1.0  0.66720  0.39478  0.36912  1.0000
  S   S221      1.0  0.66123  0.37066  0.33909  1.0000
  S   S222      1.0  0.67999  0.43644  0.41925  1.0000
  S   S223      1.0  0.69540  0.42107  0.36757  1.0000
  Fe  Fe113     1.0  0.90633  0.34698  0.42190  1.0000
  S   S224      1.0  0.90857  0.31717  0.44634  1.0000
  S   S225      1.0  0.93792  0.36984  0.41814  1.0000
  Fe  Fe114     1.0  0.85632  0.33618  0.41010  1.0000
  S   S226      1.0  0.85566  0.30481  0.43280  1.0000
  S   S227      1.0  0.82549  0.34634  0.38809  1.0000
  Fe  Fe115     1.0  0.87333  0.32769  0.45855  1.0000
  H   H652      1.0  0.94349  0.29922  0.41039  1.0000
  Fe  Fe116     1.0  0.89097  0.29691  0.41854  1.0000
  S   S228      1.0  0.91005  0.26303  0.41205  1.0000
  S   S229      1.0  0.87223  0.35941  0.43644  1.0000
  S   S230      1.0  0.89044  0.32647  0.39354  1.0000
  Fe  Fe117     1.0  0.90384  0.14193  0.35016  1.0000
  S   S231      1.0  0.92728  0.14104  0.31923  1.0000
  S   S232      1.0  0.88086  0.17333  0.35621  1.0000
  Fe  Fe118     1.0  0.91406  0.09129  0.36214  1.0000
  S   S233      1.0  0.93868  0.08757  0.33263  1.0000
  S   S234      1.0  0.90900  0.06060  0.38597  1.0000
  Fe  Fe119     1.0  0.95189  0.12236  0.34301  1.0000
  S   S235      1.0  0.99030  0.13077  0.34210  1.0000
  Fe  Fe120     1.0  0.91180  0.10639  0.31186  1.0000
  S   S236      1.0  0.89845  0.08837  0.27971  1.0000
  S   S237      1.0  0.92919  0.12502  0.37425  1.0000
  S   S238      1.0  0.88657  0.10841  0.34115  1.0000
  C   C649      1.0  0.97418  0.31763  0.41979  1.0000
  H   H653      1.0  0.82365  0.41367  0.41502  1.0000
  C   C650      1.0  0.85062  0.24875  0.46090  1.0000
  H   H654      1.0  0.89863  0.01828  0.40967  1.0000
  H   H655      1.0  0.86669  0.42402  0.41885  1.0000
  H   H656      1.0  0.91101  0.38247  0.37667  1.0000
  H   H657      1.0  0.87713  0.37154  0.35290  1.0000
  C   C651      1.0  0.90181  0.23877  0.39556  1.0000
  C   C652      1.0  0.88080  0.23779  0.38387  1.0000
  C   C653      1.0  0.87467  0.21767  0.37184  1.0000
  C   C654      1.0  0.88953  0.19844  0.37119  1.0000
  C   C655      1.0  0.91059  0.19953  0.38278  1.0000
  C   C656      1.0  0.91664  0.21956  0.39494  1.0000
  H   H658      1.0  0.86924  0.25245  0.38414  1.0000
  H   H659      1.0  0.85835  0.21701  0.36290  1.0000
  H   H660      1.0  0.92216  0.18487  0.38246  1.0000
  H   H661      1.0  0.93293  0.22013  0.40392  1.0000
  C   C657      1.0  0.89027  0.01758  0.39309  1.0000
  C   C658      1.0  0.89246  0.03624  0.37779  1.0000
  C   C659      1.0  0.88150  0.03509  0.35642  1.0000
  C   C660      1.0  0.69831  0.38953  0.50067  1.0000
  H   H662      1.0  0.88300  0.04928  0.34447  1.0000
  C   C661      1.0  0.76183  0.38739  0.41274  1.0000
  C   C662      1.0  0.78034  0.38317  0.42781  1.0000
  C   C663      1.0  0.79963  0.37003  0.42078  1.0000
  C   C664      1.0  0.80075  0.36125  0.39842  1.0000
  C   C665      1.0  0.78226  0.36547  0.38336  1.0000
  C   C666      1.0  0.76284  0.37834  0.39050  1.0000
  H   H663      1.0  0.77975  0.39012  0.44504  1.0000
  H   H664      1.0  0.81374  0.36698  0.43254  1.0000
  H   H665      1.0  0.78294  0.35876  0.36604  1.0000
  H   H666      1.0  0.74876  0.38145  0.37871  1.0000
  C   C667      1.0  0.63445  0.38180  0.47020  1.0000
  C   C668      1.0  0.65282  0.36617  0.46899  1.0000
  C   C669      1.0  0.85844  0.21708  0.43432  1.0000
  H   H667      1.0  0.66434  0.36642  0.45435  1.0000
  S   S239      1.0  0.59906  0.40045  0.25402  1.0000
  C   C670      1.0  0.64344  0.37864  0.31570  1.0000
  C   C671      1.0  0.64397  0.36554  0.29543  1.0000
  C   C672      1.0  0.63017  0.37165  0.27643  1.0000
  C   C673      1.0  0.61540  0.39068  0.27779  1.0000
  C   C674      1.0  0.61442  0.40336  0.29833  1.0000
  C   C675      1.0  0.62860  0.39760  0.31707  1.0000
  H   H668      1.0  0.65531  0.35073  0.29428  1.0000
  H   H669      1.0  0.85978  0.01506  0.33409  1.0000
  H   H670      1.0  0.60300  0.41809  0.29953  1.0000
  H   H671      1.0  0.62801  0.40783  0.33257  1.0000
  H   H672      1.0  0.00045  0.29426  0.36346  1.0000
  C   C676      1.0  0.82760  0.41619  0.39648  1.0000
  N   N57       1.0  0.66804  0.43050  0.29369  1.0000
  C   C677      1.0  0.99671  0.32320  0.41327  1.0000
  H   H673      1.0  0.90565  0.40869  0.40983  1.0000
  C   C678      1.0  0.97305  0.35196  0.35983  1.0000
  C   C679      1.0  0.95562  0.35387  0.37665  1.0000
  C   C680      1.0  0.95933  0.36697  0.39643  1.0000
  C   C681      1.0  0.98066  0.37802  0.39920  1.0000
  H   H674      1.0  0.63805  0.35456  0.42205  1.0000
  H   H675      1.0  0.93933  0.34526  0.37425  1.0000
  H   H676      1.0  0.98366  0.38830  0.41439  1.0000
  H   H677      1.0  0.58374  0.38950  0.34619  1.0000
  H   H678      1.0  0.64013  0.47443  0.32005  1.0000
  H   H679      1.0  0.59227  0.38563  0.41941  1.0000
  C   C682      1.0  0.60532  0.36203  0.35881  1.0000
  H   H680      1.0  0.84527  0.27722  0.48431  1.0000
  C   C683      1.0  0.86895  0.41278  0.40416  1.0000
  H   H681      1.0  0.87306  0.20809  0.42568  1.0000
  H   H682      1.0  0.91522  0.25444  0.47519  1.0000
  N   N58       1.0  0.86639  0.23436  0.45081  1.0000
  H   H683      1.0  0.62687  0.33748  0.37612  1.0000
  H   H684      1.0  0.68759  0.40902  0.31620  1.0000
  H   H685      1.0  0.63581  0.49189  0.40343  1.0000
  H   H686      1.0  0.85950  0.16633  0.29482  1.0000
  H   H687      1.0  0.82696  0.08001  0.27588  1.0000
  H   H688      1.0  0.60953  0.35553  0.34182  1.0000
  H   H689      1.0  0.82695  0.43483  0.39233  1.0000
  C   C684      1.0  0.88103  0.26749  0.48190  1.0000
  C   C685      1.0  0.89101  0.40426  0.39912  1.0000
  C   C686      1.0  0.87509  0.38345  0.36710  1.0000
  C   C687      1.0  0.89403  0.38947  0.38049  1.0000
  H   H690      1.0  0.90277  0.13266  0.25558  1.0000
  H   H691      1.0  0.61044  0.35299  0.43601  1.0000
  C   C688      1.0  0.68686  0.41407  0.29776  1.0000
  C   C689      1.0  0.96706  0.06431  0.38659  1.0000
  H   H692      1.0  0.81369  0.40746  0.38673  1.0000
  C   C690      1.0  0.86835  0.01562  0.35057  1.0000
  H   H693      1.0  0.83865  0.38739  0.36216  1.0000
  H   H694      1.0  0.66045  0.41747  0.26024  1.0000
  H   H695      1.0  0.60553  0.39332  0.49062  1.0000
  H   H696      1.0  0.84810  0.22543  0.42054  1.0000
  C   C691      1.0  0.69453  0.40512  0.48268  1.0000
  N   N59       1.0  0.60974  0.35983  0.39981  1.0000
  C   C692      1.0  0.65636  0.35012  0.48681  1.0000
  H   H697      1.0  0.57534  0.40477  0.38537  1.0000
  N   N60       1.0  0.84811  0.13382  0.28177  1.0000
  C   C693      1.0  0.61498  0.35178  0.37833  1.0000
  C   C694      1.0  0.65642  0.43025  0.27323  1.0000
  C   C695      1.0  0.97068  0.29467  0.38551  1.0000
  C   C696      1.0  0.61983  0.38133  0.48952  1.0000
  H   H698      1.0  0.84776  0.20395  0.44317  1.0000
  C   C697      1.0  0.59579  0.37872  0.40243  1.0000
  C   C698      1.0  0.58614  0.38963  0.38323  1.0000
  C   C699      1.0  0.89696  0.25266  0.47165  1.0000
  H   H699      1.0  0.96996  0.34190  0.34452  1.0000
  H   H700      1.0  0.98408  0.12251  0.39142  1.0000
  C   C700      1.0  0.59088  0.38112  0.36130  1.0000
  H   H701      1.0  0.96292  0.05316  0.40157  1.0000
  H   H702      1.0  0.92998  0.05797  0.25490  1.0000
  C   C701      1.0  0.85333  0.39248  0.37247  1.0000
  H   H703      1.0  0.70357  0.42178  0.29267  1.0000
  C   C702      1.0  0.84245  0.14266  0.26068  1.0000
  C   C703      1.0  0.99827  0.37575  0.38256  1.0000
  C   C704      1.0  0.96112  0.30330  0.40578  1.0000
  H   H704      1.0  0.63105  0.36173  0.26073  1.0000
  H   H705      1.0  0.83250  0.24761  0.45652  1.0000
  H   H706      1.0  0.88013  0.14302  0.29638  1.0000
  C   C705      1.0  0.64462  0.46215  0.30669  1.0000
  H   H707      1.0  0.70567  0.40510  0.46759  1.0000
  H   H708      1.0  0.87766  0.37195  0.49285  1.0000
  N   N61       1.0  0.85045  0.40674  0.39096  1.0000
  H   H709      1.0  0.95822  0.08114  0.38899  1.0000
  H   H710      1.0  0.98937  0.07555  0.34813  1.0000
  C   C706      1.0  0.62002  0.34869  0.41997  1.0000
  C   C707      1.0  0.00197  0.12663  0.38823  1.0000
  C   C708      1.0  0.88928  0.23593  0.45623  1.0000
  H   H711      1.0  0.67205  0.44691  0.32624  1.0000
  H   H712      1.0  0.67050  0.33796  0.48562  1.0000
  H   H713      1.0  0.61991  0.32967  0.41817  1.0000
  C   C709      1.0  0.83079  0.09777  0.27163  1.0000
  H   H714      1.0  0.95958  0.05576  0.37125  1.0000
  H   H715      1.0  0.85598  0.14440  0.31601  1.0000
  H   H716      1.0  0.61789  0.47331  0.28346  1.0000
  C   C710      1.0  0.67592  0.42036  0.48398  1.0000
  C   C711      1.0  0.63228  0.46163  0.28613  1.0000
  H   H717      1.0  0.90189  0.22486  0.44792  1.0000
  C   C712      1.0  0.99451  0.36273  0.36274  1.0000
  H   H718      1.0  0.96046  0.28371  0.37445  1.0000
  H   H719      1.0  0.84813  0.10422  0.30353  1.0000
  C   C713      1.0  0.84269  0.11159  0.28725  1.0000
  C   C714      1.0  0.66265  0.44645  0.31014  1.0000
  C   C715      1.0  0.63829  0.44570  0.26920  1.0000
  H   H720      1.0  0.68417  0.39786  0.28800  1.0000
  H   H721      1.0  0.67230  0.43208  0.46989  1.0000
  C   C716      1.0  0.86158  0.14757  0.29797  1.0000
  C   C717      1.0  0.85768  0.26545  0.47666  1.0000
  H   H722      1.0  0.84760  0.15992  0.25590  1.0000
  H   H723      1.0  0.88676  0.28081  0.49363  1.0000
  C   C718      1.0  0.99326  0.30066  0.37946  1.0000
  H   H724      1.0  0.96659  0.32504  0.43520  1.0000
  H   H725      1.0  0.99899  0.06288  0.41958  1.0000
  H   H726      1.0  0.62842  0.44464  0.25338  1.0000
  C   C719      1.0  0.00070  0.07352  0.36283  1.0000
  S   S240      1.0  0.86133  0.32449  0.49580  1.0000
  N   N62       1.0  0.99195  0.06773  0.38391  1.0000
  H   H727      1.0  0.71258  0.37749  0.49940  1.0000
  C   C720      1.0  0.88892  0.09853  0.25261  1.0000
  H   H728      1.0  0.00239  0.17566  0.41104  1.0000
  Fe  Fe121     1.0  0.59015  0.11374  0.70802  1.0000
  S   S241      1.0  0.61521  0.10801  0.67895  1.0000
  C   C721      1.0  0.63357  0.24981  0.67309  1.0000
  Fe  Fe122     1.0  0.55206  0.13060  0.67443  1.0000
  S   S242      1.0  0.57474  0.12497  0.64359  1.0000
  C   C722      1.0  0.87277  0.49826  0.63778  1.0000
  Fe  Fe123     1.0  0.58558  0.09175  0.66069  1.0000
  S   S243      1.0  0.58795  0.05838  0.64018  1.0000
  Fe  Fe124     1.0  0.60224  0.14179  0.66464  1.0000
  S   S244      1.0  0.62711  0.16710  0.64781  1.0000
  S   S245      1.0  0.56060  0.09604  0.69002  1.0000
  S   S246      1.0  0.57945  0.14894  0.69516  1.0000
  Fe  Fe125     1.0  0.59874  0.34931  0.60044  1.0000
  S   S247      1.0  0.59625  0.31972  0.57579  1.0000
  S   S248      1.0  0.56664  0.37171  0.60480  1.0000
  Fe  Fe126     1.0  0.64888  0.33706  0.61303  1.0000
  S   S249      1.0  0.64889  0.30592  0.59026  1.0000
  S   S250      1.0  0.68052  0.34206  0.63561  1.0000
  Fe  Fe127     1.0  0.63197  0.32971  0.56444  1.0000
  S   S251      1.0  0.64772  0.32969  0.52844  1.0000
  Fe  Fe128     1.0  0.61325  0.29895  0.60387  1.0000
  S   S252      1.0  0.59413  0.26779  0.61828  1.0000
  S   S253      1.0  0.63344  0.36112  0.58686  1.0000
  S   S254      1.0  0.61437  0.32842  0.62874  1.0000
  Fe  Fe129     1.0  0.80305  0.40546  0.62670  1.0000
  S   S255      1.0  0.82908  0.37735  0.62033  1.0000
  S   S256      1.0  0.76750  0.40424  0.60990  1.0000
  Fe  Fe130     1.0  0.84060  0.43866  0.64549  1.0000
  S   S257      1.0  0.86882  0.41311  0.63872  1.0000
  S   S258      1.0  0.84722  0.47056  0.66714  1.0000
  Fe  Fe131     1.0  0.85086  0.40541  0.60531  1.0000
  S   S259      1.0  0.86746  0.40515  0.56978  1.0000
  Fe  Fe132     1.0  0.84437  0.38781  0.65459  1.0000
  S   S260      1.0  0.85853  0.36371  0.68203  1.0000
  S   S261      1.0  0.82461  0.43352  0.61082  1.0000
  S   S262      1.0  0.81633  0.41347  0.66221  1.0000
  C   C723      1.0  0.86417  0.34679  0.51640  1.0000
  C   C724      1.0  0.85728  0.34274  0.53926  1.0000
  C   C725      1.0  0.85817  0.36039  0.55584  1.0000
  C   C726      1.0  0.86624  0.38221  0.54975  1.0000
  C   C727      1.0  0.87334  0.38616  0.52696  1.0000
  H   H729      1.0  0.80000  0.47070  0.64037  1.0000
  H   H730      1.0  0.85106  0.32592  0.54416  1.0000
  H   H731      1.0  0.85280  0.35705  0.57335  1.0000
  H   H732      1.0  0.87974  0.40295  0.52212  1.0000
  H   H733      1.0  0.86809  0.42373  0.74092  1.0000
  C   C728      1.0  0.86280  0.39741  0.71544  1.0000
  C   C729      1.0  0.86654  0.37440  0.70943  1.0000
  C   C730      1.0  0.87797  0.35984  0.72508  1.0000
  H   H734      1.0  0.85398  0.40881  0.70361  1.0000
  H   H735      1.0  0.88092  0.34201  0.72061  1.0000
  H   H736      1.0  0.54275  0.27661  0.63505  1.0000
  H   H737      1.0  0.53590  0.33085  0.58536  1.0000
  H   H738      1.0  0.55893  0.29927  0.60288  1.0000
  H   H739      1.0  0.67261  0.36994  0.54877  1.0000
  C   C731      1.0  0.60968  0.08948  0.59553  1.0000
  C   C732      1.0  0.70488  0.35881  0.62771  1.0000
  C   C733      1.0  0.72461  0.35834  0.64173  1.0000
  C   C734      1.0  0.74408  0.37183  0.63638  1.0000
  C   C735      1.0  0.74389  0.38616  0.61704  1.0000
  C   C736      1.0  0.72423  0.38647  0.60289  1.0000
  C   C737      1.0  0.70487  0.37280  0.60810  1.0000
  H   H740      1.0  0.72480  0.34765  0.65697  1.0000
  H   H741      1.0  0.75903  0.37144  0.64746  1.0000
  H   H742      1.0  0.72385  0.39761  0.58799  1.0000
  H   H743      1.0  0.68975  0.37345  0.59728  1.0000
  H   H744      1.0  0.81335  0.49178  0.60703  1.0000
  C   C738      1.0  0.52431  0.37906  0.62524  1.0000
  C   C739      1.0  0.54528  0.36679  0.62620  1.0000
  C   C740      1.0  0.54842  0.35048  0.64364  1.0000
  C   C741      1.0  0.53079  0.34650  0.65987  1.0000
  H   H745      1.0  0.53342  0.33385  0.67329  1.0000
  N   N63       1.0  0.80195  0.37919  0.54976  1.0000
  H   H746      1.0  0.56441  0.34091  0.64461  1.0000
  H   H747      1.0  0.78421  0.36851  0.58009  1.0000
  S   S263      1.0  0.60142  0.09787  0.74234  1.0000
  N   N64       1.0  0.68385  0.38906  0.51932  1.0000
  C   C742      1.0  0.92212  0.41826  0.72066  1.0000
  C   C743      1.0  0.80710  0.40188  0.55925  1.0000
  H   H748      1.0  0.81747  0.41261  0.54728  1.0000
  H   H749      1.0  0.66926  0.05526  0.63568  1.0000
  C   C744      1.0  0.60778  0.03579  0.64625  1.0000
  C   C745      1.0  0.60711  0.01552  0.63308  1.0000
  C   C746      1.0  0.62503  0.03818  0.66280  1.0000
  C   C747      1.0  0.86354  0.49513  0.65976  1.0000
  H   H750      1.0  0.62578  0.05366  0.67306  1.0000
  C   C748      1.0  0.61765  0.19480  0.63891  1.0000
  C   C749      1.0  0.59529  0.20259  0.64357  1.0000
  C   C750      1.0  0.58841  0.22486  0.63683  1.0000
  C   C751      1.0  0.60375  0.23964  0.62536  1.0000
  C   C752      1.0  0.62610  0.23182  0.62048  1.0000
  C   C753      1.0  0.63302  0.20951  0.62730  1.0000
  H   H751      1.0  0.58328  0.19146  0.65244  1.0000
  H   H752      1.0  0.57107  0.23069  0.64062  1.0000
  H   H753      1.0  0.63802  0.24297  0.61154  1.0000
  H   H754      1.0  0.65033  0.20359  0.62354  1.0000
  H   H755      1.0  0.87095  0.48492  0.62497  1.0000
  H   H756      1.0  0.89580  0.43617  0.67241  1.0000
  C   C754      1.0  0.52854  0.32036  0.59897  1.0000
  C   C755      1.0  0.62395  0.29016  0.67492  1.0000
  H   H757      1.0  0.65531  0.02300  0.67825  1.0000
  C   C756      1.0  0.68826  0.37267  0.53801  1.0000
  H   H758      1.0  0.61239  0.36549  0.52245  1.0000
  C   C757      1.0  0.90930  0.45761  0.72469  1.0000
  C   C758      1.0  0.50660  0.37496  0.64140  1.0000
  C   C759      1.0  0.50636  0.32496  0.60736  1.0000
  N   N65       1.0  0.62937  0.09020  0.61126  1.0000
  C   C760      1.0  0.64151  0.07054  0.61617  1.0000
  C   C761      1.0  0.63583  0.11079  0.62053  1.0000
  C   C762      1.0  0.66024  0.07107  0.63126  1.0000
  C   C763      1.0  0.65461  0.11197  0.63553  1.0000
  C   C764      1.0  0.66672  0.09193  0.64107  1.0000
  H   H759      1.0  0.77599  0.32957  0.56532  1.0000
  H   H760      1.0  0.63629  0.05415  0.60902  1.0000
  H   H761      1.0  0.62622  0.12640  0.61670  1.0000
  H   H762      1.0  0.65410  0.40364  0.53546  1.0000
  H   H763      1.0  0.65927  0.12829  0.64326  1.0000
  C   C765      1.0  0.90058  0.45683  0.70239  1.0000
  C   C766      1.0  0.53247  0.29013  0.62715  1.0000
  C   C767      1.0  0.78528  0.34176  0.55466  1.0000
  C   C768      1.0  0.78996  0.36382  0.56293  1.0000
  C   C769      1.0  0.68374  0.28411  0.65147  1.0000
  H   H764      1.0  0.65064  0.31323  0.66390  1.0000
  H   H765      1.0  0.68150  0.28922  0.63317  1.0000
  H   H766      1.0  0.69144  0.29892  0.66075  1.0000
  H   H767      1.0  0.91664  0.38094  0.69646  1.0000
  C   C770      1.0  0.90276  0.43657  0.68965  1.0000
  H   H768      1.0  0.89191  0.47170  0.69504  1.0000
  C   C771      1.0  0.92021  0.43825  0.73390  1.0000
  C   C772      1.0  0.65532  0.25559  0.66444  1.0000
  C   C773      1.0  0.64178  0.02076  0.66568  1.0000
  H   H769      1.0  0.92996  0.40307  0.72826  1.0000
  C   C774      1.0  0.51023  0.29521  0.63514  1.0000
  C   C775      1.0  0.87223  0.36860  0.51033  1.0000
  C   C776      1.0  0.61771  0.26722  0.67805  1.0000
  H   H770      1.0  0.89959  0.39378  0.67464  1.0000
  C   C777      1.0  0.87079  0.40582  0.73665  1.0000
  H   H771      1.0  0.68092  0.09252  0.65316  1.0000
  C   C778      1.0  0.80949  0.37326  0.52825  1.0000
  H   H772      1.0  0.69620  0.26958  0.65241  1.0000
  C   C779      1.0  0.80511  0.35135  0.51942  1.0000
  H   H773      1.0  0.81744  0.39976  0.57510  1.0000
  C   C780      1.0  0.64598  0.29535  0.66660  1.0000
  H   H774      1.0  0.60351  0.07157  0.59292  1.0000
  H   H775      1.0  0.79089  0.41118  0.56366  1.0000
  H   H776      1.0  0.61448  0.09700  0.57866  1.0000
  C   C781      1.0  0.54161  0.30283  0.60898  1.0000
  H   H777      1.0  0.60047  0.26289  0.68383  1.0000
  C   C782      1.0  0.79300  0.33551  0.53278  1.0000
  N   N66       1.0  0.91312  0.41751  0.69895  1.0000
  H   H778      1.0  0.66715  0.24187  0.65976  1.0000
  N   N67       1.0  0.66131  0.27815  0.66143  1.0000
  H   H779      1.0  0.70235  0.37897  0.54920  1.0000
  H   H780      1.0  0.81966  0.38517  0.51809  1.0000
  H   H781      1.0  0.61163  0.30384  0.67839  1.0000
  H   H782      1.0  0.59485  0.09916  0.60292  1.0000
  H   H783      1.0  0.62870  0.23188  0.67502  1.0000
  C   C783      1.0  0.91524  0.39643  0.68528  1.0000
  H   H784      1.0  0.69288  0.35546  0.53099  1.0000
  S   S264      1.0  0.51754  0.14942  0.66967  1.0000
  H   H785      1.0  0.52174  0.39176  0.61186  1.0000
  H   H786      1.0  0.78990  0.31832  0.52629  1.0000
  H   H787      1.0  0.93055  0.39740  0.67387  1.0000
  H   H788      1.0  0.59386  0.01351  0.62019  1.0000
  C   C784      1.0  0.66575  0.40418  0.52084  1.0000
  H   H789      1.0  0.90741  0.47313  0.73485  1.0000
  C   C785      1.0  0.88608  0.36830  0.74629  1.0000
  C   C786      1.0  0.66146  0.41998  0.50317  1.0000
  C   C787      1.0  0.64192  0.34982  0.50626  1.0000
  C   C788      1.0  0.62368  0.36559  0.50761  1.0000
  H   H790      1.0  0.64657  0.43133  0.50397  1.0000
  C   C789      1.0  0.50978  0.35864  0.65884  1.0000
  H   H791      1.0  0.79718  0.48440  0.66745  1.0000
  C   C790      1.0  0.79459  0.48708  0.64869  1.0000
  H   H792      1.0  0.77603  0.49020  0.64521  1.0000
  H   H793      1.0  0.92648  0.43835  0.75146  1.0000
  H   H794      1.0  0.81182  0.34646  0.50266  1.0000
  C   C791      1.0  0.88276  0.39143  0.75206  1.0000
  Fe  Fe133     1.0  0.65686  0.05581  0.87452  1.0000
  S   S265      1.0  0.63094  0.08364  0.88171  1.0000
  C   C792      1.0  0.92239  0.11580  0.96224  1.0000
  Fe  Fe134     1.0  0.69736  0.08710  0.88918  1.0000
  S   S266      1.0  0.67396  0.11720  0.89651  1.0000
  S   S267      1.0  0.73620  0.08471  0.89555  1.0000
  Fe  Fe135     1.0  0.65130  0.09111  0.91378  1.0000
  S   S268      1.0  0.63051  0.09720  0.94648  1.0000
  Fe  Fe136     1.0  0.65555  0.10716  0.86376  1.0000
  S   S269      1.0  0.63966  0.13274  0.83860  1.0000
  S   S270      1.0  0.67538  0.06112  0.90810  1.0000
  S   S271      1.0  0.68086  0.07923  0.85504  1.0000
  Fe  Fe137     1.0  0.84721  0.16428  0.91754  1.0000
  S   S272      1.0  0.85650  0.19183  0.94321  1.0000
  S   S273      1.0  0.81007  0.16580  0.90452  1.0000
  Fe  Fe138     1.0  0.89706  0.14679  0.91534  1.0000
  S   S274      1.0  0.90899  0.17247  0.94113  1.0000
  S   S275      1.0  0.92273  0.12160  0.89944  1.0000
  Fe  Fe139     1.0  0.87676  0.16383  0.96082  1.0000
  C   C793      1.0  0.96799  0.17707  0.84447  1.0000
  Fe  Fe140     1.0  0.88782  0.19809  0.92122  1.0000
  S   S276      1.0  0.90737  0.23163  0.91522  1.0000
  S   S277      1.0  0.86602  0.13590  0.93640  1.0000
  S   S278      1.0  0.87733  0.17267  0.89424  1.0000
  Fe  Fe141     1.0  0.94969  0.36830  0.83864  1.0000
  S   S279      1.0  0.92905  0.36861  0.87132  1.0000
  S   S280      1.0  0.98780  0.35862  0.83654  1.0000
  Fe  Fe142     1.0  0.90822  0.38515  0.80903  1.0000
  S   S281      1.0  0.88492  0.38609  0.83996  1.0000
  S   S282      1.0  0.89545  0.40386  0.77684  1.0000
  Fe  Fe143     1.0  0.91452  0.40245  0.85839  1.0000
  S   S283      1.0  0.91608  0.43702  0.87667  1.0000
  Fe  Fe144     1.0  0.90150  0.35203  0.84966  1.0000
  S   S284      1.0  0.87906  0.32122  0.85918  1.0000
  S   S285      1.0  0.93722  0.40301  0.82718  1.0000
  S   S286      1.0  0.92290  0.35010  0.81732  1.0000
  H   H795      1.0  0.56935  0.11226  0.81512  1.0000
  H   H796      1.0  0.89176  0.46022  0.82865  1.0000
  C   C794      1.0  0.72229  0.02568  0.89661  1.0000
  H   H797      1.0  0.96671  0.43508  0.85949  1.0000
  C   C795      1.0  0.94736  0.14155  0.83505  1.0000
  C   C796      1.0  0.85487  0.48682  0.88544  1.0000
  N   N68       1.0  0.59690  0.05196  0.80862  1.0000
  C   C797      1.0  0.89601  0.47970  0.88129  1.0000
  C   C798      1.0  0.89218  0.45593  0.87907  1.0000
  C   C799      1.0  0.86957  0.44774  0.87961  1.0000
  C   C800      1.0  0.85104  0.46310  0.88305  1.0000
  H   H798      1.0  0.00002  0.10781  0.86709  1.0000
  H   H799      1.0  0.91346  0.48618  0.88090  1.0000
  H   H800      1.0  0.86641  0.42947  0.87805  1.0000
  H   H801      1.0  0.83365  0.45651  0.88404  1.0000
  C   C801      1.0  0.90099  0.25523  0.89694  1.0000
  C   C802      1.0  0.91434  0.27527  0.89880  1.0000
  C   C803      1.0  0.90868  0.29525  0.88624  1.0000
  C   C804      1.0  0.88958  0.29535  0.87162  1.0000
  C   C805      1.0  0.87689  0.27496  0.86893  1.0000
  C   C806      1.0  0.88253  0.25497  0.88154  1.0000
  H   H802      1.0  0.92869  0.27560  0.91064  1.0000
  H   H803      1.0  0.91850  0.31083  0.88857  1.0000
  H   H804      1.0  0.86229  0.27475  0.85741  1.0000
  H   H805      1.0  0.87224  0.23960  0.87977  1.0000
  C   C807      1.0  0.95189  0.12915  0.89418  1.0000
  C   C808      1.0  0.96031  0.15092  0.89977  1.0000
  C   C809      1.0  0.98284  0.15720  0.89334  1.0000
  C   C810      1.0  0.63148  0.15892  0.93444  1.0000
  C   C811      1.0  0.96661  0.11343  0.88298  1.0000
  H   H806      1.0  0.94927  0.16320  0.90844  1.0000
  H   H807      1.0  0.96031  0.09648  0.87871  1.0000
  C   C812      1.0  0.75624  0.10766  0.89861  1.0000
  C   C813      1.0  0.75014  0.13061  0.89446  1.0000
  C   C814      1.0  0.76679  0.14813  0.89646  1.0000
  C   C815      1.0  0.78968  0.14302  0.90282  1.0000
  C   C816      1.0  0.79570  0.12009  0.90721  1.0000
  C   C817      1.0  0.77910  0.10254  0.90501  1.0000
  H   H808      1.0  0.73269  0.13483  0.88944  1.0000
  H   H809      1.0  0.76195  0.16578  0.89295  1.0000
  H   H810      1.0  0.81321  0.11585  0.91207  1.0000
  H   H811      1.0  0.78405  0.08487  0.90823  1.0000
  C   C818      1.0  0.63153  0.12393  0.81053  1.0000
  C   C819      1.0  0.61893  0.13906  0.79636  1.0000
  H   H812      1.0  0.67513  0.18423  0.90475  1.0000
  C   C820      1.0  0.61079  0.13193  0.77465  1.0000
  C   C821      1.0  0.62847  0.09472  0.78082  1.0000
  C   C822      1.0  0.63658  0.10183  0.80246  1.0000
  H   H813      1.0  0.61503  0.15624  0.80238  1.0000
  C   C823      1.0  0.87437  0.46231  0.82086  1.0000
  H   H814      1.0  0.63200  0.07739  0.77502  1.0000
  H   H815      1.0  0.64639  0.09005  0.81306  1.0000
  C   C824      1.0  0.63963  0.11314  0.97078  1.0000
  C   C825      1.0  0.62452  0.11557  0.98959  1.0000
  C   C826      1.0  0.66085  0.12446  0.97126  1.0000
  C   C827      1.0  0.97409  0.42584  0.87453  1.0000
  H   H816      1.0  0.67263  0.12279  0.95690  1.0000
  N   N69       1.0  0.61870  0.15102  0.91638  1.0000
  C   C828      1.0  0.99718  0.14192  0.88114  1.0000
  C   C829      1.0  0.92899  0.17306  0.85630  1.0000
  H   H817      1.0  0.93267  0.13869  0.98921  1.0000
  H   H818      1.0  0.85876  0.11763  0.99167  1.0000
  H   H819      1.0  0.99622  0.41335  0.83645  1.0000
  H   H820      1.0  0.89272  0.06625  0.97051  1.0000
  C   C830      1.0  0.61521  0.10954  0.76693  1.0000
  C   C831      1.0  0.58940  0.08557  0.83149  1.0000
  H   H821      1.0  0.58237  0.14738  0.91392  1.0000
  H   H822      1.0  0.58302  0.05234  0.77458  1.0000
  H   H823      1.0  0.87510  0.45678  0.80258  1.0000
  C   C832      1.0  0.64566  0.16761  0.88973  1.0000
  C   C833      1.0  0.98916  0.11978  0.87643  1.0000
  H   H824      1.0  0.81352  0.50007  0.96620  1.0000
  C   C834      1.0  0.72293  0.03039  0.87310  1.0000
  C   C835      1.0  0.58427  0.06114  0.79096  1.0000
  C   C836      1.0  0.70816  0.00801  0.90481  1.0000
  H   H825      1.0  0.98338  0.17006  0.83636  1.0000
  C   C837      1.0  0.92938  0.19487  0.86643  1.0000
  N   N70       1.0  0.86656  0.48632  0.82251  1.0000
  H   H826      1.0  0.73333  0.04450  0.86663  1.0000
  H   H827      1.0  0.62616  0.15554  0.95201  1.0000
  H   H828      1.0  0.59892  0.12083  0.91186  1.0000
  C   C838      1.0  0.59950  0.06384  0.82871  1.0000
  C   C839      1.0  0.70973  0.01726  0.85808  1.0000
  H   H829      1.0  0.60996  0.05672  0.84246  1.0000
  H   H830      1.0  0.94054  0.14301  0.81730  1.0000
  C   C840      1.0  0.00055  0.30428  0.86410  1.0000
  N   N71       1.0  0.83675  0.28907  0.90462  1.0000
  C   C841      1.0  0.85511  0.29458  0.91827  1.0000
  C   C842      1.0  0.82725  0.26759  0.90568  1.0000
  C   C843      1.0  0.86431  0.27839  0.93359  1.0000
  C   C844      1.0  0.83607  0.25096  0.92076  1.0000
  C   C845      1.0  0.85473  0.25647  0.93478  1.0000
  C   C846      1.0  0.82751  0.30590  0.88818  1.0000
  H   H831      1.0  0.86330  0.31126  0.91676  1.0000
  H   H832      1.0  0.81303  0.26305  0.89451  1.0000
  H   H833      1.0  0.87940  0.28246  0.94376  1.0000
  H   H834      1.0  0.82882  0.23376  0.92123  1.0000
  H   H835      1.0  0.86227  0.24356  0.94604  1.0000
  H   H836      1.0  0.83029  0.29971  0.87031  1.0000
  H   H837      1.0  0.80879  0.30869  0.89118  1.0000
  H   H838      1.0  0.83632  0.32280  0.88946  1.0000
  H   H839      1.0  0.83352  0.47790  0.83641  1.0000
  S   S287      1.0  0.64722  0.02395  0.85369  1.0000
  H   H840      1.0  0.95007  0.22446  0.87401  1.0000
  C   C847      1.0  0.62546  0.15533  0.89425  1.0000
  H   H841      1.0  0.66237  0.17651  0.94499  1.0000
  C   C848      1.0  0.90462  0.08889  0.99737  1.0000
  C   C849      1.0  0.91091  0.09552  0.95686  1.0000
  H   H842      1.0  0.61548  0.14890  0.87990  1.0000
  S   S288      1.0  0.87912  0.16285  0.99993  1.0000
  H   H843      1.0  0.91336  0.16292  0.85736  1.0000
  N   N72       1.0  0.99902  0.42250  0.87184  1.0000
  H   H844      1.0  0.56452  0.09029  0.77886  1.0000
  C   C850      1.0  0.87741  0.49515  0.88414  1.0000
  H   H845      1.0  0.98203  0.36949  0.88532  1.0000
  H   H846      1.0  0.96541  0.40892  0.87612  1.0000
  N   N73       1.0  0.94824  0.16433  0.84576  1.0000
  H   H847      1.0  0.59230  0.09535  0.84705  1.0000
  H   H848      1.0  0.70963  0.02118  0.83984  1.0000
  C   C851      1.0  0.66673  0.13823  0.99028  1.0000
  C   C852      1.0  0.59760  0.13783  0.92050  1.0000
  H   H849      1.0  0.70730  0.00485  0.92318  1.0000
  H   H850      1.0  0.59493  0.13420  0.93911  1.0000
  H   H851      1.0  0.89532  0.35703  0.75792  1.0000
  C   C853      1.0  0.96903  0.19886  0.85460  1.0000
  C   C854      1.0  0.00003  0.36582  0.88205  1.0000
  H   H852      1.0  0.91424  0.20172  0.87506  1.0000
  H   H853      1.0  0.93613  0.12977  0.84518  1.0000
  H   H854      1.0  0.65121  0.17043  0.87209  1.0000
  H   H855      1.0  0.73219  0.03618  0.90842  1.0000
  H   H856      1.0  0.98498  0.20850  0.85421  1.0000
  C   C855      1.0  0.57366  0.08268  0.79328  1.0000
  C   C856      1.0  0.94957  0.20774  0.86573  1.0000
  H   H857      1.0  0.68311  0.14705  0.99042  1.0000
  H   H858      1.0  0.86270  0.45038  0.83022  1.0000
  H   H859      1.0  0.60043  0.14345  0.76428  1.0000
  C   C857      1.0  0.84492  0.49143  0.83053  1.0000
  C   C858      1.0  0.65907  0.17529  0.90803  1.0000
  H   H860      1.0  0.90895  0.09045  0.93900  1.0000
  H   H861      1.0  0.60805  0.10691  0.98938  1.0000
  H   H862      1.0  0.92959  0.12633  0.94862  1.0000
  H   H863      1.0  0.82915  0.48909  0.94188  1.0000
  H   H864      1.0  0.96975  0.43624  0.88998  1.0000
  C   C859      1.0  0.65195  0.17096  0.93056  1.0000
  C   C860      1.0  0.90187  0.08196  0.97451  1.0000
  C   C861      1.0  0.92432  0.12252  0.98523  1.0000
  H   H865      1.0  0.89802  0.49951  0.80890  1.0000
  H   H866      1.0  0.98244  0.30892  0.86269  1.0000
  H   H867      1.0  0.96475  0.13340  0.83449  1.0000
  H   H868      1.0  0.98892  0.17433  0.89718  1.0000
  C   C862      1.0  0.57647  0.09504  0.81359  1.0000
  H   H869      1.0  0.62772  0.03265  0.80501  1.0000
  C   C863      1.0  0.60878  0.02983  0.80588  1.0000
  H   H870      1.0  0.60510  0.01847  0.82085  1.0000
  H   H871      1.0  0.62759  0.00815  0.89758  1.0000
  H   H872      1.0  0.60331  0.02069  0.79008  1.0000
  H   H873      1.0  0.00265  0.31283  0.89989  1.0000
  Fe  Fe145     1.0  0.90675  0.64165  0.10498  1.0000
  S   S289      1.0  0.90721  0.66629  0.07515  1.0000
  S   S290      1.0  0.93818  0.61867  0.11088  1.0000
  Fe  Fe146     1.0  0.85745  0.65558  0.11828  1.0000
  S   S291      1.0  0.85560  0.68220  0.09037  1.0000
  S   S292      1.0  0.82616  0.65167  0.14167  1.0000
  Fe  Fe147     1.0  0.87099  0.65447  0.06778  1.0000
  S   S293      1.0  0.84938  0.64608  0.03598  1.0000
  Fe  Fe148     1.0  0.89181  0.69148  0.10061  1.0000
  S   S294      1.0  0.91032  0.72604  0.10345  1.0000
  S   S295      1.0  0.87165  0.62769  0.09572  1.0000
  S   S296      1.0  0.89259  0.66694  0.13051  1.0000
  Fe  Fe149     1.0  0.95729  0.86218  0.17666  1.0000
  S   S297      1.0  0.93113  0.86111  0.14823  1.0000
  S   S298      1.0  0.99408  0.84822  0.17356  1.0000
  Fe  Fe150     1.0  0.92095  0.87743  0.21267  1.0000
  S   S299      1.0  0.89225  0.87699  0.18671  1.0000
  H   H874      1.0  0.65394  0.64423  0.23790  1.0000
  Fe  Fe151     1.0  0.90825  0.84370  0.17405  1.0000
  S   S300      1.0  0.88513  0.81301  0.16611  1.0000
  Fe  Fe152     1.0  0.91746  0.89445  0.16316  1.0000
  S   S301      1.0  0.90784  0.92383  0.13890  1.0000
  S   S302      1.0  0.93496  0.84289  0.20196  1.0000
  S   S303      1.0  0.94556  0.89680  0.18958  1.0000
  Fe  Fe153     1.0  0.70599  0.58364  0.13125  1.0000
  S   S304      1.0  0.68122  0.61342  0.12825  1.0000
  S   S305      1.0  0.74306  0.58447  0.11774  1.0000
  Fe  Fe154     1.0  0.66792  0.55063  0.14931  1.0000
  S   S306      1.0  0.64067  0.57817  0.14696  1.0000
  S   S307      1.0  0.66144  0.51731  0.16929  1.0000
  Fe  Fe155     1.0  0.65705  0.58761  0.11286  1.0000
  S   S308      1.0  0.63416  0.59358  0.08152  1.0000
  Fe  Fe156     1.0  0.66713  0.60132  0.16250  1.0000
  S   S309      1.0  0.66017  0.62539  0.19255  1.0000
  S   S310      1.0  0.68233  0.55812  0.11409  1.0000
  S   S311      1.0  0.69390  0.57363  0.16658  1.0000
  C   C864      1.0  0.63989  0.61184  0.05766  1.0000
  C   C865      1.0  0.65805  0.62759  0.05771  1.0000
  C   C866      1.0  0.66106  0.64278  0.03900  1.0000
  C   C867      1.0  0.64614  0.64227  0.01995  1.0000
  C   C868      1.0  0.62814  0.62635  0.01981  1.0000
  C   C869      1.0  0.62496  0.61135  0.03863  1.0000
  H   H875      1.0  0.66959  0.62824  0.07227  1.0000
  H   H876      1.0  0.67498  0.65508  0.03932  1.0000
  H   H877      1.0  0.99671  0.88254  0.13648  1.0000
  H   H878      1.0  0.61084  0.59926  0.03841  1.0000
  H   H879      1.0  0.61445  0.63159  0.16991  1.0000
  C   C870      1.0  0.64038  0.61866  0.21486  1.0000
  C   C871      1.0  0.62383  0.60146  0.21219  1.0000
  C   C872      1.0  0.99687  0.66421  0.10422  1.0000
  H   H880      1.0  0.62279  0.59210  0.19620  1.0000
  C   C873      1.0  0.89272  0.94918  0.14722  1.0000
  C   C874      1.0  0.88372  0.95191  0.16939  1.0000
  C   C875      1.0  0.87095  0.97184  0.17503  1.0000
  H   H881      1.0  0.64548  0.65719  0.15584  1.0000
  C   C876      1.0  0.87616  0.98663  0.13653  1.0000
  C   C877      1.0  0.88884  0.96663  0.13085  1.0000
  H   H882      1.0  0.88647  0.93859  0.18212  1.0000
  H   H883      1.0  0.86391  0.97370  0.19217  1.0000
  C   C878      1.0  0.63496  0.65480  0.12034  1.0000
  H   H884      1.0  0.89562  0.96464  0.11362  1.0000
  C   C879      1.0  0.61575  0.63557  0.15170  1.0000
  C   C880      1.0  0.66014  0.55684  0.22058  1.0000
  H   H885      1.0  0.58581  0.60141  0.09903  1.0000
  H   H886      1.0  0.64868  0.66570  0.11394  1.0000
  H   H887      1.0  0.89352  0.63277  0.01451  1.0000
  C   C881      1.0  0.90320  0.74973  0.12151  1.0000
  C   C882      1.0  0.91841  0.76851  0.12264  1.0000
  C   C883      1.0  0.91336  0.78781  0.13649  1.0000
  C   C884      1.0  0.89288  0.78864  0.14925  1.0000
  C   C885      1.0  0.87765  0.76991  0.14807  1.0000
  C   C886      1.0  0.88282  0.75050  0.13441  1.0000
  H   H888      1.0  0.93417  0.76814  0.11267  1.0000
  H   H889      1.0  0.92521  0.80209  0.13717  1.0000
  H   H890      1.0  0.86176  0.77037  0.15784  1.0000
  H   H891      1.0  0.87093  0.73625  0.13370  1.0000
  C   C887      1.0  0.80339  0.63241  0.13547  1.0000
  C   C888      1.0  0.80582  0.61522  0.11887  1.0000
  C   C889      1.0  0.78739  0.60025  0.11428  1.0000
  C   C890      1.0  0.76619  0.60255  0.12587  1.0000
  C   C891      1.0  0.76377  0.61970  0.14256  1.0000
  C   C892      1.0  0.78239  0.63442  0.14747  1.0000
  H   H892      1.0  0.82185  0.61343  0.10951  1.0000
  H   H893      1.0  0.78941  0.58704  0.10135  1.0000
  H   H894      1.0  0.74757  0.62162  0.15164  1.0000
  H   H895      1.0  0.78038  0.64759  0.16045  1.0000
  C   C893      1.0  0.97828  0.64621  0.16145  1.0000
  C   C894      1.0  0.95980  0.64235  0.14625  1.0000
  C   C895      1.0  0.96128  0.62480  0.12987  1.0000
  C   C896      1.0  0.98152  0.61142  0.12869  1.0000
  C   C897      1.0  0.67319  0.57317  0.23236  1.0000
  H   H896      1.0  0.94438  0.65284  0.14733  1.0000
  H   H897      1.0  0.98281  0.59775  0.11615  1.0000
  H   H898      1.0  0.74766  0.65179  0.10102  1.0000
  C   C898      1.0  0.60037  0.62595  0.13597  1.0000
  H   H899      1.0  0.80530  0.62375  0.04484  1.0000
  N   N74       1.0  0.87293  0.62256  0.17391  1.0000
  C   C899      1.0  0.86168  0.60797  0.15934  1.0000
  C   C900      1.0  0.89650  0.62249  0.17491  1.0000
  C   C901      1.0  0.87408  0.59282  0.14526  1.0000
  C   C902      1.0  0.90940  0.60733  0.16132  1.0000
  C   C903      1.0  0.89811  0.59260  0.14623  1.0000
  C   C904      1.0  0.85990  0.63928  0.18768  1.0000
  H   H900      1.0  0.84300  0.60823  0.15822  1.0000
  H   H901      1.0  0.90548  0.63442  0.18601  1.0000
  H   H902      1.0  0.86511  0.58170  0.13333  1.0000
  H   H903      1.0  0.92810  0.60738  0.16198  1.0000
  H   H904      1.0  0.90807  0.58144  0.13497  1.0000
  H   H905      1.0  0.84134  0.63465  0.18891  1.0000
  H   H906      1.0  0.86681  0.64025  0.20544  1.0000
  H   H907      1.0  0.86090  0.65654  0.17946  1.0000
  H   H908      1.0  0.77737  0.67608  0.11721  1.0000
  C   C905      1.0  0.76018  0.64600  0.08838  1.0000
  C   C906      1.0  0.78592  0.67718  0.10012  1.0000
  H   H909      1.0  0.59606  0.58274  0.22824  1.0000
  C   C907      1.0  0.75511  0.62665  0.07509  1.0000
  H   H910      1.0  0.76796  0.60306  0.04955  1.0000
  H   H911      1.0  0.81320  0.65801  0.06839  1.0000
  H   H912      1.0  0.96184  0.71534  0.12849  1.0000
  H   H913      1.0  0.87327  0.99985  0.12374  1.0000
  C   C908      1.0  0.64133  0.63076  0.23575  1.0000
  C   C909      1.0  0.87447  0.84276  0.11643  1.0000
  H   H914      1.0  0.89218  0.84070  0.12336  1.0000
  H   H915      1.0  0.99287  0.83145  0.10501  1.0000
  H   H916      1.0  0.73901  0.61749  0.07765  1.0000
  H   H917      1.0  0.86601  0.82565  0.11746  1.0000
  N   N75       1.0  0.86190  0.86016  0.12978  1.0000
  C   C910      1.0  0.84695  0.85358  0.14679  1.0000
  C   C911      1.0  0.86592  0.88299  0.12574  1.0000
  C   C912      1.0  0.83518  0.87006  0.15991  1.0000
  C   C913      1.0  0.85416  0.89990  0.13827  1.0000
  C   C914      1.0  0.83878  0.89338  0.15551  1.0000
  H   H918      1.0  0.84430  0.83549  0.15055  1.0000
  H   H919      1.0  0.87850  0.88831  0.11296  1.0000
  H   H920      1.0  0.82363  0.86473  0.17358  1.0000
  H   H921      1.0  0.85741  0.91798  0.13496  1.0000
  H   H922      1.0  0.82998  0.90641  0.16564  1.0000
  H   H923      1.0  0.87549  0.84773  0.09802  1.0000
  C   C915      1.0  0.61917  0.64505  0.10510  1.0000
  C   C916      1.0  0.00015  0.61556  0.14363  1.0000
  H   H924      1.0  0.94505  0.69107  0.09805  1.0000
  C   C917      1.0  0.96221  0.68733  0.10444  1.0000
  H   H925      1.0  0.98432  0.80897  0.14005  1.0000
  C   C918      1.0  0.97172  0.70098  0.12161  1.0000
  H   H926      1.0  0.63428  0.50537  0.12835  1.0000
  C   C919      1.0  0.58573  0.62045  0.09700  1.0000
  C   C920      1.0  0.85682  0.63315  0.00923  1.0000
  C   C921      1.0  0.60867  0.59621  0.23038  1.0000
  H   H927      1.0  0.62413  0.53749  0.19978  1.0000
  H   H928      1.0  0.87195  0.92059  0.23949  1.0000
  N   N76       1.0  0.60222  0.63073  0.11300  1.0000
  C   C922      1.0  0.62738  0.53078  0.21743  1.0000
  H   H929      1.0  0.66495  0.55232  0.20314  1.0000
  C   C923      1.0  0.79683  0.64928  0.07041  1.0000
  H   H930      1.0  0.56813  0.62731  0.10021  1.0000
  H   H931      1.0  0.61651  0.62576  0.00531  1.0000
  H   H932      1.0  0.59045  0.62390  0.07877  1.0000
  N   N77       1.0  0.78097  0.65683  0.08617  1.0000
  C   C924      1.0  0.79239  0.62991  0.05693  1.0000
  H   H933      1.0  0.97691  0.65969  0.17420  1.0000
  C   C925      1.0  0.63318  0.65002  0.14379  1.0000
  H   H934      1.0  0.78003  0.69295  0.09106  1.0000
  H   H935      1.0  0.80470  0.67858  0.10362  1.0000
  H   H936      1.0  0.90355  0.94815  0.24637  1.0000
  C   C926      1.0  0.77143  0.61846  0.05943  1.0000
  H   H937      1.0  0.68759  0.58155  0.22389  1.0000
  N   N78       1.0  0.64110  0.54726  0.23058  1.0000
  H   H938      1.0  0.58711  0.61441  0.14221  1.0000
  C   C927      1.0  0.86704  0.98928  0.15865  1.0000
  C   C928      1.0  0.87967  0.62857  0.00285  1.0000
  H   H939      1.0  0.96719  0.65772  0.08275  1.0000
  C   C929      1.0  0.97477  0.66880  0.09568  1.0000
  H   H940      1.0  0.62088  0.64858  0.08685  1.0000
  C   C930      1.0  0.00020  0.80584  0.13057  1.0000
  H   H941      1.0  0.61033  0.52755  0.22551  1.0000
  C   C931      1.0  0.99856  0.63287  0.16023  1.0000
  H   H942      1.0  0.63693  0.51425  0.21577  1.0000
  C   C932      1.0  0.99385  0.69587  0.12981  1.0000
  H   H943      1.0  0.87953  0.85932  0.25178  1.0000
  S   S312      1.0  0.91803  0.89189  0.24913  1.0000
  H   H944      1.0  0.00112  0.70646  0.14326  1.0000
  C   C933      1.0  0.61012  0.60773  0.25157  1.0000
  Fe  Fe157     1.0  0.59241  0.59689  0.36073  1.0000
  S   S313      1.0  0.56437  0.59388  0.33424  1.0000
  S   S314      1.0  0.60244  0.56789  0.38545  1.0000
  Fe  Fe158     1.0  0.60109  0.64755  0.34908  1.0000
  S   S315      1.0  0.57451  0.64761  0.32104  1.0000
  S   S316      1.0  0.62350  0.67897  0.35604  1.0000
  Fe  Fe159     1.0  0.55214  0.62861  0.34654  1.0000
  C   C934      1.0  0.63448  0.50534  0.39063  1.0000
  Fe  Fe160     1.0  0.58892  0.61308  0.31094  1.0000
  S   S317      1.0  0.59268  0.59809  0.27473  1.0000
  S   S318      1.0  0.57825  0.63038  0.37505  1.0000
  S   S319      1.0  0.61751  0.61425  0.33701  1.0000
  Fe  Fe161     1.0  0.80549  0.90579  0.39682  1.0000
  S   S320      1.0  0.83030  0.87599  0.39604  1.0000
  S   S321      1.0  0.77058  0.90299  0.41478  1.0000
  Fe  Fe162     1.0  0.84218  0.93963  0.37713  1.0000
  S   S322      1.0  0.86937  0.91199  0.37616  1.0000
  S   S323      1.0  0.84903  0.97306  0.35753  1.0000
  Fe  Fe163     1.0  0.84161  0.88987  0.36147  1.0000
  S   S324      1.0  0.84679  0.86802  0.32941  1.0000
  Fe  Fe164     1.0  0.85557  0.90099  0.41079  1.0000
  S   S325      1.0  0.87934  0.89307  0.44084  1.0000
  S   S326      1.0  0.81452  0.91760  0.36116  1.0000
  S   S327      1.0  0.83057  0.93055  0.41304  1.0000
  Fe  Fe165     1.0  0.65525  0.83201  0.41357  1.0000
  S   S328      1.0  0.65714  0.80503  0.44123  1.0000
  S   S329      1.0  0.68531  0.83879  0.38921  1.0000
  Fe  Fe166     1.0  0.60552  0.84514  0.42611  1.0000
  S   S330      1.0  0.60467  0.82001  0.45551  1.0000
  S   S331      1.0  0.57469  0.86881  0.41984  1.0000
  Fe  Fe167     1.0  0.64051  0.83207  0.46380  1.0000
  H   H945      1.0  0.51348  0.78283  0.38322  1.0000
  Fe  Fe168     1.0  0.62119  0.79534  0.43019  1.0000
  S   S332      1.0  0.60370  0.76015  0.42758  1.0000
  S   S333      1.0  0.64017  0.85923  0.43632  1.0000
  S   S334      1.0  0.62044  0.82030  0.40061  1.0000
  C   C935      1.0  0.53559  0.84253  0.36795  1.0000
  C   C936      1.0  0.55401  0.84643  0.38318  1.0000
  C   C937      1.0  0.55222  0.86359  0.39991  1.0000
  C   C938      1.0  0.53190  0.87685  0.40113  1.0000
  C   C939      1.0  0.66250  0.90604  0.39955  1.0000
  H   H946      1.0  0.56953  0.83609  0.38203  1.0000
  H   H947      1.0  0.53039  0.89024  0.41395  1.0000
  H   H948      1.0  0.62148  0.85482  0.35859  1.0000
  C   C940      1.0  0.61955  0.89013  0.38632  1.0000
  N   N79       1.0  0.85757  0.93756  0.29329  1.0000
  C   C941      1.0  0.88457  0.87401  0.48385  1.0000
  C   C942      1.0  0.64785  0.56895  0.26502  1.0000
  C   C943      1.0  0.63693  0.86587  0.35642  1.0000
  C   C944      1.0  0.74748  0.88437  0.40759  1.0000
  C   C945      1.0  0.74740  0.87143  0.38734  1.0000
  C   C946      1.0  0.72837  0.85736  0.38207  1.0000
  C   C947      1.0  0.70940  0.85581  0.39710  1.0000
  C   C948      1.0  0.70960  0.86857  0.41747  1.0000
  C   C949      1.0  0.72847  0.88287  0.42258  1.0000
  H   H949      1.0  0.76186  0.87246  0.37560  1.0000
  H   H950      1.0  0.72837  0.84762  0.36624  1.0000
  H   H951      1.0  0.69514  0.86756  0.42922  1.0000
  H   H952      1.0  0.72831  0.89282  0.43827  1.0000
  C   C950      1.0  0.87144  0.87433  0.46357  1.0000
  C   C951      1.0  0.51825  0.82263  0.42471  1.0000
  C   C952      1.0  0.85246  0.85974  0.46176  1.0000
  H   H953      1.0  0.85491  0.82615  0.35795  1.0000
  H   H954      1.0  0.84214  0.85984  0.44631  1.0000
  H   H955      1.0  0.63573  0.87522  0.33982  1.0000
  H   H956      1.0  0.65209  0.85407  0.35591  1.0000
  C   C953      1.0  0.64283  0.91369  0.41117  1.0000
  C   C954      1.0  0.66020  0.89047  0.38141  1.0000
  H   H957      1.0  0.51350  0.66724  0.40223  1.0000
  H   H958      1.0  0.88712  0.85360  0.35595  1.0000
  H   H959      1.0  0.83197  0.83373  0.47855  1.0000
  C   C955      1.0  0.61902  0.54290  0.37864  1.0000
  C   C956      1.0  0.62094  0.52512  0.39501  1.0000
  C   C957      1.0  0.63085  0.54066  0.35776  1.0000
  H   H960      1.0  0.61189  0.52666  0.41123  1.0000
  H   H961      1.0  0.62959  0.55418  0.34502  1.0000
  C   C958      1.0  0.61691  0.70191  0.37520  1.0000
  C   C959      1.0  0.63161  0.72107  0.37595  1.0000
  C   C960      1.0  0.62764  0.73921  0.39158  1.0000
  C   C961      1.0  0.60904  0.73824  0.40690  1.0000
  C   C962      1.0  0.59436  0.71902  0.40620  1.0000
  C   C963      1.0  0.59817  0.70102  0.39037  1.0000
  H   H962      1.0  0.64620  0.72193  0.36435  1.0000
  H   H963      1.0  0.63912  0.75382  0.39194  1.0000
  H   H964      1.0  0.57996  0.71806  0.41801  1.0000
  H   H965      1.0  0.58677  0.68636  0.39005  1.0000
  C   C964      1.0  0.89881  0.88383  0.27151  1.0000
  C   C965      1.0  0.88114  0.86790  0.26818  1.0000
  C   C966      1.0  0.86546  0.86311  0.28613  1.0000
  C   C967      1.0  0.86710  0.87436  0.30745  1.0000
  C   C968      1.0  0.88483  0.89020  0.31081  1.0000
  C   C969      1.0  0.90064  0.89481  0.29296  1.0000
  H   H966      1.0  0.67950  0.91172  0.40480  1.0000
  H   H967      1.0  0.85189  0.85071  0.28341  1.0000
  H   H968      1.0  0.88642  0.89892  0.32711  1.0000
  H   H969      1.0  0.91422  0.90719  0.29568  1.0000
  C   C970      1.0  0.85815  0.82082  0.39456  1.0000
  C   C971      1.0  0.86602  0.99703  0.36591  1.0000
  C   C972      1.0  0.87239  0.93035  0.25538  1.0000
  N   N80       1.0  0.89407  0.85224  0.39200  1.0000
  H   H970      1.0  0.87552  0.98392  0.39920  1.0000
  H   H971      1.0  0.86552  0.81963  0.43091  1.0000
  H   H972      1.0  0.90512  0.96956  0.28349  1.0000
  C   C973      1.0  0.51339  0.87281  0.38601  1.0000
  C   C974      1.0  0.88839  0.84256  0.41270  1.0000
  S   S335      1.0  0.65926  0.84142  0.49700  1.0000
  H   H973      1.0  0.77176  0.84957  0.49169  1.0000
  S   S336      1.0  0.51551  0.64333  0.34916  1.0000
  H   H974      1.0  0.82916  0.94761  0.31409  1.0000
  H   H975      1.0  0.62767  0.63426  0.27029  1.0000
  N   N81       1.0  0.50876  0.81019  0.40720  1.0000
  H   H976      1.0  0.87547  0.96234  0.31339  1.0000
  H   H977      1.0  0.64439  0.92537  0.42560  1.0000
  C   C975      1.0  0.85612  0.92632  0.27270  1.0000
  C   C976      1.0  0.54332  0.78729  0.40448  1.0000
  H   H978      1.0  0.65396  0.51966  0.33744  1.0000
  C   C977      1.0  0.62118  0.90583  0.40443  1.0000
  C   C978      1.0  0.89125  0.95760  0.28018  1.0000
  N   N82       1.0  0.63896  0.88231  0.37538  1.0000
  H   H979      1.0  0.60573  0.91126  0.41359  1.0000
  C   C979      1.0  0.64463  0.52102  0.35349  1.0000
  C   C980      1.0  0.78417  0.87769  0.47098  1.0000
  C   C981      1.0  0.62640  0.62521  0.25411  1.0000
  N   N83       1.0  0.64879  0.63621  0.39252  1.0000
  C   C982      1.0  0.63681  0.61691  0.39868  1.0000
  C   C983      1.0  0.64443  0.65674  0.40317  1.0000
  C   C984      1.0  0.62021  0.61784  0.41614  1.0000
  C   C985      1.0  0.62776  0.65835  0.42052  1.0000
  C   C986      1.0  0.61561  0.63873  0.42703  1.0000
  C   C987      1.0  0.66549  0.63532  0.37358  1.0000
  H   H980      1.0  0.63975  0.60070  0.38988  1.0000
  H   H981      1.0  0.65326  0.67224  0.39766  1.0000
  H   H982      1.0  0.61055  0.60252  0.42068  1.0000
  H   H983      1.0  0.62395  0.67488  0.42837  1.0000
  H   H984      1.0  0.60237  0.63978  0.44019  1.0000
  H   H985      1.0  0.65754  0.64264  0.35778  1.0000
  H   H986      1.0  0.68105  0.64554  0.37778  1.0000
  H   H987      1.0  0.67114  0.61741  0.36988  1.0000
  C   C988      1.0  0.51516  0.85561  0.36933  1.0000
  H   H988      1.0  0.55321  0.77355  0.39644  1.0000
  H   H989      1.0  0.57052  0.79616  0.42781  1.0000
  H   H990      1.0  0.85007  0.91208  0.49339  1.0000
  H   H991      1.0  0.60265  0.88388  0.38143  1.0000
  H   H992      1.0  0.84381  0.80895  0.39561  1.0000
  C   C989      1.0  0.87455  0.95334  0.29705  1.0000
  C   C990      1.0  0.54060  0.81779  0.43240  1.0000
  H   H993      1.0  0.77143  0.87543  0.45750  1.0000
  C   C991      1.0  0.84103  0.93273  0.31169  1.0000
  C   C992      1.0  0.86438  0.83042  0.37345  1.0000
  H   H994      1.0  0.54842  0.82820  0.44574  1.0000
  H   H995      1.0  0.50852  0.60712  0.38386  1.0000
  C   C993      1.0  0.87715  0.99806  0.38720  1.0000
  H   H996      1.0  0.80053  0.90610  0.45405  1.0000
  C   C994      1.0  0.80073  0.89501  0.46908  1.0000
  H   H997      1.0  0.89758  0.84734  0.42819  1.0000
  H   H998      1.0  0.92992  0.85914  0.39154  1.0000
  C   C995      1.0  0.88257  0.84612  0.37245  1.0000
  H   H999      1.0  0.51695  0.69278  0.36858  1.0000
  H   H1000     1.0  0.53712  0.82918  0.35509  1.0000
  H   H1001     1.0  0.89936  0.88518  0.48537  1.0000
  H   H1002     1.0  0.67631  0.59261  0.26369  1.0000
  H   H1003     1.0  0.83079  0.91698  0.30827  1.0000
  H   H1004     1.0  0.84292  0.91349  0.26990  1.0000
  H   H1005     1.0  0.91232  0.88091  0.40535  1.0000
  H   H1006     1.0  0.64224  0.57423  0.28205  1.0000
  H   H1007     1.0  0.82684  0.93267  0.48934  1.0000
  C   C996      1.0  0.55313  0.79999  0.42219  1.0000
  H   H1008     1.0  0.67559  0.88448  0.37256  1.0000
  H   H1009     1.0  0.91270  0.87893  0.37471  1.0000
  C   C997      1.0  0.84673  0.84495  0.48007  1.0000
  H   H1010     1.0  0.85039  0.92973  0.32806  1.0000
  C   C998      1.0  0.87028  0.82683  0.41433  1.0000
  C   C999      1.0  0.91324  0.86856  0.39078  1.0000
  H   H1011     1.0  0.61965  0.54577  0.26050  1.0000
  C   C1000     1.0  0.66689  0.57933  0.25468  1.0000
  C   C1001     1.0  0.52093  0.79261  0.39717  1.0000
  C   C1002     1.0  0.89023  0.94584  0.25930  1.0000
  H   H1012     1.0  0.83979  0.91784  0.46515  1.0000
  H   H1013     1.0  0.50881  0.83681  0.43243  1.0000
  N   N84       1.0  0.81705  0.89778  0.48578  1.0000
  C   C1003     1.0  0.78429  0.86328  0.49019  1.0000
  C   C1004     1.0  0.83422  0.91606  0.48339  1.0000
  C   C1005     1.0  0.64656  0.50325  0.36988  1.0000
  C   C1006     1.0  0.85945  0.84505  0.50064  1.0000
  C   C1007     1.0  0.63504  0.55287  0.25264  1.0000
  Fe  Fe169     1.0  0.66679  0.94263  0.64369  1.0000
  S   S337      1.0  0.64038  0.91560  0.65194  1.0000
  S   S338      1.0  0.66358  0.97988  0.65608  1.0000
  Fe  Fe170     1.0  0.70316  0.90591  0.62876  1.0000
  S   S339      1.0  0.67930  0.87671  0.63696  1.0000
  S   S340      1.0  0.73743  0.90082  0.60995  1.0000
  Fe  Fe171     1.0  0.65249  0.89831  0.61908  1.0000
  S   S341      1.0  0.62789  0.88129  0.59385  1.0000
  Fe  Fe172     1.0  0.66953  0.89658  0.66885  1.0000
  S   S342      1.0  0.66937  0.88251  0.70549  1.0000
  S   S343      1.0  0.67659  0.92693  0.60953  1.0000
  S   S344      1.0  0.69572  0.92413  0.66194  1.0000
  Fe  Fe173     1.0  0.85122  0.82597  0.60974  1.0000
  S   S345      1.0  0.84714  0.79854  0.58299  1.0000
  S   S346      1.0  0.82237  0.83515  0.63483  1.0000
  Fe  Fe174     1.0  0.90167  0.83423  0.59678  1.0000
  S   S347      1.0  0.90080  0.80791  0.56851  1.0000
  S   S348      1.0  0.93302  0.85692  0.60301  1.0000
  Fe  Fe175     1.0  0.86612  0.82295  0.55943  1.0000
  S   S349      1.0  0.84988  0.82777  0.52388  1.0000
  Fe  Fe176     1.0  0.88199  0.78580  0.59442  1.0000
  S   S350      1.0  0.89316  0.74807  0.59652  1.0000
  S   S351      1.0  0.86819  0.85109  0.58583  1.0000
  S   S352      1.0  0.88492  0.81146  0.62313  1.0000
  Fe  Fe177     1.0  0.91483  0.60596  0.71403  1.0000
  S   S353      1.0  0.88385  0.60851  0.69100  1.0000
  C   C1008     1.0  0.61079  0.83089  0.75018  1.0000
  Fe  Fe178     1.0  0.94839  0.62248  0.67562  1.0000
  S   S354      1.0  0.91970  0.62592  0.64995  1.0000
  S   S355      1.0  0.98400  0.63854  0.67157  1.0000
  Fe  Fe179     1.0  0.89917  0.64195  0.67848  1.0000
  S   S356      1.0  0.87989  0.67615  0.67835  1.0000
  Fe  Fe180     1.0  0.90709  0.59200  0.66451  1.0000
  S   S357      1.0  0.89623  0.56398  0.63949  1.0000
  S   S358      1.0  0.92841  0.64045  0.70348  1.0000
  S   S359      1.0  0.93743  0.58751  0.68828  1.0000
  C   C1009     1.0  0.88567  0.53686  0.64837  1.0000
  C   C1010     1.0  0.87731  0.53329  0.67065  1.0000
  H   H1014     1.0  0.82935  0.55772  0.65792  1.0000
  H   H1015     1.0  0.87873  0.54683  0.68330  1.0000
  C   C1011     1.0  0.63459  0.83032  0.74662  1.0000
  C   C1012     1.0  0.88726  0.72809  0.61884  1.0000
  C   C1013     1.0  0.89440  0.70511  0.61603  1.0000
  C   C1014     1.0  0.89204  0.68901  0.63400  1.0000
  C   C1015     1.0  0.88224  0.69567  0.65496  1.0000
  C   C1016     1.0  0.87456  0.71851  0.65762  1.0000
  C   C1017     1.0  0.87715  0.73470  0.63969  1.0000
  H   H1016     1.0  0.90211  0.69981  0.59993  1.0000
  H   H1017     1.0  0.89780  0.67147  0.63160  1.0000
  H   H1018     1.0  0.86682  0.72382  0.67370  1.0000
  H   H1019     1.0  0.87153  0.75232  0.64205  1.0000
  H   H1020     1.0  0.71221  0.84796  0.60759  1.0000
  H   H1021     1.0  0.92499  0.88415  0.64431  1.0000
  H   H1022     1.0  0.70568  0.87051  0.58719  1.0000
  H   H1023     1.0  0.95767  0.71180  0.60295  1.0000
  C   C1018     1.0  0.88187  0.65841  0.74309  1.0000
  C   C1019     1.0  0.93512  0.72860  0.65404  1.0000
  H   H1024     1.0  0.64070  0.81809  0.58053  1.0000
  C   C1020     1.0  0.76038  0.88179  0.61702  1.0000
  C   C1021     1.0  0.76100  0.86959  0.63776  1.0000
  C   C1022     1.0  0.78000  0.85522  0.64289  1.0000
  C   C1023     1.0  0.79838  0.85265  0.62724  1.0000
  C   C1024     1.0  0.79754  0.86453  0.60633  1.0000
  C   C1025     1.0  0.77869  0.87910  0.60133  1.0000
  H   H1025     1.0  0.74707  0.87154  0.65001  1.0000
  H   H1026     1.0  0.78049  0.84612  0.65912  1.0000
  H   H1027     1.0  0.81153  0.86271  0.59413  1.0000
  H   H1028     1.0  0.77836  0.88847  0.58525  1.0000
  C   C1026     1.0  0.63569  0.87357  0.56531  1.0000
  C   C1027     1.0  0.61982  0.86157  0.55161  1.0000
  C   C1028     1.0  0.62623  0.85303  0.52980  1.0000
  C   C1029     1.0  0.64867  0.85625  0.52157  1.0000
  C   C1030     1.0  0.66426  0.86897  0.53493  1.0000
  C   C1031     1.0  0.65777  0.87777  0.55658  1.0000
  H   H1029     1.0  0.60267  0.85834  0.55816  1.0000
  H   H1030     1.0  0.93145  0.70647  0.68362  1.0000
  H   H1031     1.0  0.68165  0.87155  0.52874  1.0000
  H   H1032     1.0  0.67005  0.88722  0.56679  1.0000
  C   C1032     1.0  0.64563  0.88560  0.72437  1.0000
  H   H1033     1.0  0.80142  0.85507  0.52214  1.0000
  C   C1033     1.0  0.62316  0.88808  0.71611  1.0000
  N   N85       1.0  0.85862  0.66016  0.74659  1.0000
  H   H1034     1.0  0.62011  0.88892  0.69778  1.0000
  C   C1034     1.0  0.97523  0.82520  0.64964  1.0000
  C   C1035     1.0  0.95658  0.82983  0.63478  1.0000
  C   C1036     1.0  0.95651  0.84976  0.62126  1.0000
  C   C1037     1.0  0.97525  0.86495  0.62280  1.0000
  C   C1038     1.0  0.99396  0.86025  0.63756  1.0000
  H   H1035     1.0  0.94226  0.81803  0.63381  1.0000
  H   H1036     1.0  0.97535  0.88043  0.61246  1.0000
  H   H1037     1.0  0.72941  0.85111  0.58230  1.0000
  C   C1039     1.0  0.88371  0.51911  0.63210  1.0000
  H   H1038     1.0  0.85917  0.51023  0.69335  1.0000
  C   C1040     1.0  0.81249  0.52480  0.65435  1.0000
  C   C1041     1.0  0.94264  0.73004  0.63130  1.0000
  H   H1039     1.0  0.85244  0.87324  0.64194  1.0000
  C   C1042     1.0  0.60448  0.88882  0.73158  1.0000
  C   C1043     1.0  0.64131  0.00062  0.65233  1.0000
  H   H1040     1.0  0.64163  0.83314  0.72952  1.0000
  H   H1041     1.0  0.86957  0.89767  0.61480  1.0000
  H   H1042     1.0  0.62647  0.96119  0.68113  1.0000
  H   H1043     1.0  0.80644  0.52467  0.67200  1.0000
  C   C1044     1.0  0.59977  0.94427  0.73950  1.0000
  H   H1044     1.0  0.93986  0.74574  0.62149  1.0000
  H   H1045     1.0  0.65130  0.80186  0.54232  1.0000
  C   C1045     1.0  0.61911  0.95665  0.69767  1.0000
  C   C1046     1.0  0.62357  0.94262  0.73577  1.0000
  C   C1047     1.0  0.81695  0.88409  0.50496  1.0000
  H   H1046     1.0  0.69018  0.80904  0.52622  1.0000
  C   C1048     1.0  0.58556  0.95228  0.72187  1.0000
  H   H1047     1.0  0.66895  0.84123  0.60189  1.0000
  C   C1049     1.0  0.94784  0.68904  0.65519  1.0000
  H   H1048     1.0  0.95913  0.65409  0.62924  1.0000
  H   H1049     1.0  0.85568  0.84316  0.67168  1.0000
  H   H1050     1.0  0.59921  0.83417  0.73590  1.0000
  H   H1051     1.0  0.89981  0.89452  0.60958  1.0000
  H   H1052     1.0  0.97510  0.80977  0.66006  1.0000
  C   C1050     1.0  0.71149  0.85234  0.58901  1.0000
  H   H1053     1.0  0.66497  0.96214  0.70327  1.0000
  H   H1054     1.0  0.92906  0.85392  0.67388  1.0000
  H   H1055     1.0  0.71815  0.83220  0.54820  1.0000
  C   C1051     1.0  0.91209  0.85833  0.66733  1.0000
  N   N86       1.0  0.69558  0.83718  0.57681  1.0000
  C   C1052     1.0  0.70153  0.82837  0.55580  1.0000
  C   C1053     1.0  0.67413  0.83328  0.58583  1.0000
  C   C1054     1.0  0.68588  0.81508  0.54335  1.0000
  C   C1055     1.0  0.65804  0.82013  0.57381  1.0000
  C   C1056     1.0  0.66398  0.81103  0.55242  1.0000
  C   C1057     1.0  0.59526  0.95862  0.70082  1.0000
  H   H1056     1.0  0.84687  0.65221  0.71300  1.0000
  C   C1058     1.0  0.90969  0.87542  0.65054  1.0000
  H   H1057     1.0  0.82507  0.66430  0.73146  1.0000
  H   H1058     1.0  0.89022  0.52174  0.61484  1.0000
  C   C1059     1.0  0.62368  0.99793  0.63621  1.0000
  H   H1059     1.0  0.94970  0.67307  0.66467  1.0000
  N   N87       1.0  0.88856  0.88035  0.64131  1.0000
  C   C1060     1.0  0.82924  0.52496  0.60968  1.0000
  C   C1061     1.0  0.88675  0.89787  0.62324  1.0000
  H   H1060     1.0  0.66741  0.94216  0.72684  1.0000
  H   H1061     1.0  0.98572  0.60922  0.63047  1.0000
  H   H1062     1.0  0.88846  0.85982  0.51812  1.0000
  H   H1063     1.0  0.84748  0.68236  0.71979  1.0000
  C   C1062     1.0  0.89258  0.84666  0.67507  1.0000
  C   C1063     1.0  0.00174  0.61859  0.63174  1.0000
  C   C1064     1.0  0.93780  0.70801  0.66614  1.0000
  H   H1064     1.0  0.89419  0.83311  0.68780  1.0000
  N   N88       1.0  0.80841  0.50643  0.64028  1.0000
  H   H1065     1.0  0.88967  0.91520  0.63061  1.0000
  C   C1065     1.0  0.80074  0.86650  0.50735  1.0000
  N   N89       1.0  0.95468  0.69043  0.63270  1.0000
  C   C1066     1.0  0.96536  0.67045  0.62153  1.0000
  C   C1067     1.0  0.86928  0.86929  0.64910  1.0000
  C   C1068     1.0  0.87100  0.85229  0.66606  1.0000
  H   H1066     1.0  0.84450  0.55769  0.61806  1.0000
  H   H1067     1.0  0.58444  0.96479  0.68689  1.0000
  H   H1068     1.0  0.66072  0.93179  0.69869  1.0000
  C   C1069     1.0  0.86621  0.51254  0.67626  1.0000
  N   N90       1.0  0.63293  0.94882  0.71505  1.0000
  C   C1070     1.0  0.84365  0.66501  0.72687  1.0000
  H   H1069     1.0  0.92656  0.74320  0.66200  1.0000
  H   H1070     1.0  0.58710  0.89045  0.72502  1.0000
  C   C1071     1.0  0.65772  0.94615  0.71088  1.0000
  H   H1071     1.0  0.86571  0.60135  0.74630  1.0000
  H   H1072     1.0  0.82997  0.88609  0.51816  1.0000
  H   H1073     1.0  0.61412  0.84309  0.51983  1.0000
  H   H1074     1.0  0.98438  0.67103  0.62369  1.0000
  C   C1072     1.0  0.95244  0.71067  0.62082  1.0000
  C   C1073     1.0  0.82526  0.54361  0.64647  1.0000
  H   H1075     1.0  0.96109  0.66985  0.60294  1.0000
  C   C1074     1.0  0.99403  0.84035  0.65110  1.0000
  H   H1076     1.0  0.62312  0.98256  0.62576  1.0000
  C   C1075     1.0  0.83373  0.54362  0.62402  1.0000
  C   C1076     1.0  0.64930  0.88434  0.74823  1.0000
  H   H1077     1.0  0.83626  0.52459  0.59239  1.0000
  H   H1078     1.0  0.88896  0.66062  0.72598  1.0000
  H   H1079     1.0  0.56705  0.95327  0.72443  1.0000
  C   C1077     1.0  0.81642  0.50641  0.61813  1.0000
  H   H1080     1.0  0.63438  0.93569  0.74933  1.0000
  S   S360      1.0  0.91564  0.59594  0.75200  1.0000
  C   C1078     1.0  0.87848  0.85961  0.50242  1.0000
  Fe  Fe181     1.0  0.58383  0.88093  0.81249  1.0000
  S   S361      1.0  0.61402  0.88066  0.83662  1.0000
  S   S362      1.0  0.58392  0.88841  0.77398  1.0000
  Fe  Fe182     1.0  0.54925  0.86732  0.85079  1.0000
  S   S363      1.0  0.57706  0.86637  0.87771  1.0000
  C   C1079     1.0  0.50622  0.61609  0.88768  1.0000
  Fe  Fe183     1.0  0.59001  0.89921  0.86094  1.0000
  S   S364      1.0  0.60040  0.92934  0.88387  1.0000
  Fe  Fe184     1.0  0.59859  0.84806  0.85127  1.0000
  S   S365      1.0  0.62093  0.81599  0.85613  1.0000
  S   S366      1.0  0.56042  0.90133  0.83590  1.0000
  S   S367      1.0  0.57028  0.84715  0.82522  1.0000
  Fe  Fe185     1.0  0.61129  0.69588  0.92498  1.0000
  S   S368      1.0  0.61031  0.66752  0.89877  1.0000
  S   S369      1.0  0.59220  0.72981  0.91837  1.0000
  Fe  Fe186     1.0  0.63223  0.66336  0.96226  1.0000
  S   S370      1.0  0.63184  0.63292  0.93854  1.0000
  H   H1081     1.0  0.59235  0.93862  0.75573  1.0000
  Fe  Fe187     1.0  0.64552  0.65746  0.91207  1.0000
  S   S371      1.0  0.67507  0.64909  0.88761  1.0000
  Fe  Fe188     1.0  0.59670  0.64574  0.92750  1.0000
  S   S372      1.0  0.56567  0.62222  0.92406  1.0000
  S   S373      1.0  0.64762  0.68767  0.93602  1.0000
  S   S374      1.0  0.59600  0.67426  0.95347  1.0000
  Fe  Fe189     1.0  0.83212  0.58786  0.86180  1.0000
  S   S375      1.0  0.80396  0.56248  0.86991  1.0000
  S   S376      1.0  0.83300  0.59922  0.82417  1.0000
  Fe  Fe190     1.0  0.84788  0.58946  0.91191  1.0000
  S   S377      1.0  0.82132  0.56392  0.92286  1.0000
  S   S378      1.0  0.87407  0.60222  0.93810  1.0000
  Fe  Fe191     1.0  0.83090  0.54435  0.89099  1.0000
  H   H1082     1.0  0.89883  0.64576  0.79757  1.0000
  Fe  Fe192     1.0  0.79661  0.58426  0.90095  1.0000
  S   S379      1.0  0.76208  0.58993  0.91906  1.0000
  S   S380      1.0  0.85951  0.56831  0.88118  1.0000
  S   S381      1.0  0.82282  0.61119  0.89166  1.0000
  C   C1080     1.0  0.89208  0.59474  0.77142  1.0000
  C   C1081     1.0  0.86934  0.59846  0.76430  1.0000
  C   C1082     1.0  0.85135  0.59897  0.78063  1.0000
  C   C1083     1.0  0.85587  0.59583  0.80418  1.0000
  C   C1084     1.0  0.87850  0.59142  0.81122  1.0000
  C   C1085     1.0  0.89649  0.59086  0.79489  1.0000
  H   H1083     1.0  0.66759  0.98455  0.91136  1.0000
  H   H1084     1.0  0.83386  0.60229  0.77504  1.0000
  H   H1085     1.0  0.88225  0.58914  0.82930  1.0000
  H   H1086     1.0  0.91404  0.58801  0.80054  1.0000
  C   C1086     1.0  0.69850  0.63112  0.89555  1.0000
  C   C1087     1.0  0.69793  0.61794  0.91566  1.0000
  C   C1088     1.0  0.71715  0.60445  0.92190  1.0000
  C   C1089     1.0  0.73727  0.60429  0.90837  1.0000
  C   C1090     1.0  0.73763  0.61696  0.88792  1.0000
  C   C1091     1.0  0.71825  0.63024  0.88150  1.0000
  H   H1087     1.0  0.68280  0.61830  0.92655  1.0000
  H   H1088     1.0  0.71663  0.59453  0.93764  1.0000
  H   H1089     1.0  0.75297  0.61692  0.87729  1.0000
  H   H1090     1.0  0.71875  0.64022  0.86579  1.0000
  C   C1092     1.0  0.52837  0.64630  0.86968  1.0000
  C   C1093     1.0  0.54589  0.64353  0.88619  1.0000
  C   C1094     1.0  0.54377  0.62682  0.90338  1.0000
  C   C1095     1.0  0.52388  0.61312  0.90402  1.0000
  H   H1091     1.0  0.53871  0.71675  0.89596  1.0000
  H   H1092     1.0  0.56106  0.65426  0.88554  1.0000
  H   H1093     1.0  0.73210  0.61586  0.98780  1.0000
  H   H1094     1.0  0.90240  0.61603  0.97614  1.0000
  C   C1096     1.0  0.88761  0.65049  0.78340  1.0000
  C   C1097     1.0  0.87995  0.53490  0.94709  1.0000
  C   C1098     1.0  0.61267  0.79212  0.87346  1.0000
  C   C1099     1.0  0.59168  0.79179  0.88538  1.0000
  C   C1100     1.0  0.58575  0.77259  0.89900  1.0000
  C   C1101     1.0  0.60065  0.75348  0.90086  1.0000
  C   C1102     1.0  0.62158  0.75376  0.88884  1.0000
  C   C1103     1.0  0.62754  0.77299  0.87524  1.0000
  H   H1095     1.0  0.58013  0.80639  0.88419  1.0000
  H   H1096     1.0  0.56957  0.77258  0.90827  1.0000
  H   H1097     1.0  0.63323  0.73923  0.89012  1.0000
  H   H1098     1.0  0.64382  0.77307  0.86615  1.0000
  C   C1104     1.0  0.83906  0.62765  0.99375  1.0000
  H   H1099     1.0  0.91504  0.65091  0.75831  1.0000
  C   C1105     1.0  0.50748  0.66667  0.92633  1.0000
  H   H1100     1.0  0.63359  0.88424  0.78207  1.0000
  H   H1101     1.0  0.85658  0.64970  0.80387  1.0000
  C   C1106     1.0  0.61281  0.95579  0.87496  1.0000
  C   C1107     1.0  0.61557  0.97353  0.89117  1.0000
  C   C1108     1.0  0.65584  0.82212  0.80699  1.0000
  C   C1109     1.0  0.85192  0.53195  0.82486  1.0000
  C   C1110     1.0  0.63080  0.98042  0.84625  1.0000
  C   C1111     1.0  0.62044  0.95940  0.85242  1.0000
  H   H1102     1.0  0.60968  0.97090  0.90864  1.0000
  N   N91       1.0  0.84204  0.52065  0.95561  1.0000
  H   H1103     1.0  0.63683  0.98289  0.82881  1.0000
  H   H1104     1.0  0.61850  0.94588  0.83981  1.0000
  C   C1112     1.0  0.84402  0.61796  0.97206  1.0000
  C   C1113     1.0  0.86689  0.61388  0.96547  1.0000
  S   S382      1.0  0.51328  0.85185  0.85404  1.0000
  H   H1105     1.0  0.83019  0.61405  0.96027  1.0000
  H   H1106     1.0  0.53201  0.84362  0.90395  1.0000
  N   N92       1.0  0.73846  0.65231  0.94280  1.0000
  C   C1114     1.0  0.74384  0.63561  0.95855  1.0000
  C   C1115     1.0  0.71785  0.66382  0.94412  1.0000
  C   C1116     1.0  0.72810  0.62960  0.97581  1.0000
  C   C1117     1.0  0.70187  0.65842  0.96132  1.0000
  C   C1118     1.0  0.70697  0.64112  0.97715  1.0000
  C   C1119     1.0  0.75520  0.65857  0.92496  1.0000
  H   H1107     1.0  0.76005  0.62625  0.95730  1.0000
  H   H1108     1.0  0.71344  0.67694  0.93156  1.0000
  H   H1109     1.0  0.55738  0.69698  0.92871  1.0000
  H   H1110     1.0  0.67433  0.82207  0.80201  1.0000
  H   H1111     1.0  0.76691  0.64389  0.92088  1.0000
  H   H1112     1.0  0.74628  0.66318  0.90867  1.0000
  H   H1113     1.0  0.76570  0.67336  0.93077  1.0000
  H   H1114     1.0  0.69443  0.63662  0.99031  1.0000
  H   H1115     1.0  0.53767  0.66432  0.94799  1.0000
  C   C1120     1.0  0.86389  0.65269  0.78692  1.0000
  C   C1121     1.0  0.89671  0.65336  0.76136  1.0000
  C   C1122     1.0  0.60809  0.88736  0.75543  1.0000
  N   N93       1.0  0.64050  0.82475  0.78716  1.0000
  C   C1123     1.0  0.54046  0.69160  0.92304  1.0000
  H   H1116     1.0  0.61031  0.82274  0.80793  1.0000
  H   H1117     1.0  0.54330  0.81701  0.91588  1.0000
  C   C1124     1.0  0.63061  0.88530  0.76374  1.0000
  C   C1125     1.0  0.87726  0.55181  0.96386  1.0000
  C   C1126     1.0  0.61719  0.82490  0.79071  1.0000
  C   C1127     1.0  0.87383  0.52660  0.81641  1.0000
  H   H1118     1.0  0.68553  0.98969  0.85502  1.0000
  N   N94       1.0  0.58799  0.60496  0.86179  1.0000
  C   C1128     1.0  0.60562  0.61729  0.85220  1.0000
  C   C1129     1.0  0.59123  0.59339  0.88205  1.0000
  C   C1130     1.0  0.62712  0.61838  0.86302  1.0000
  C   C1131     1.0  0.61245  0.59423  0.89338  1.0000
  C   C1132     1.0  0.56596  0.60320  0.84961  1.0000
  H   H1119     1.0  0.60310  0.62648  0.83615  1.0000
  H   H1120     1.0  0.57718  0.58394  0.88994  1.0000
  H   H1121     1.0  0.64104  0.62845  0.85563  1.0000
  H   H1122     1.0  0.55168  0.59835  0.86145  1.0000
  H   H1123     1.0  0.56103  0.62001  0.84185  1.0000
  H   H1124     1.0  0.56725  0.59005  0.83585  1.0000
  C   C1133     1.0  0.63053  0.60669  0.88369  1.0000
  H   H1125     1.0  0.68550  0.66744  0.96229  1.0000
  H   H1126     1.0  0.53021  0.65919  0.85636  1.0000
  H   H1127     1.0  0.64708  0.60758  0.89232  1.0000
  C   C1134     1.0  0.52926  0.67345  0.93400  1.0000
  H   H1128     1.0  0.88057  0.51340  0.88579  1.0000
  H   H1129     1.0  0.53502  0.81909  0.88601  1.0000
  C   C1135     1.0  0.84953  0.65747  0.76818  1.0000
  S   S383      1.0  0.83095  0.50516  0.89057  1.0000
  H   H1130     1.0  0.83108  0.65853  0.77102  1.0000
  H   H1131     1.0  0.88521  0.54027  0.81073  1.0000
  H   H1132     1.0  0.61468  0.58563  0.90981  1.0000
  C   C1136     1.0  0.88464  0.61908  0.98106  1.0000
  H   H1133     1.0  0.85420  0.56698  0.98865  1.0000
  N   N95       1.0  0.50713  0.81749  0.91017  1.0000
  C   C1137     1.0  0.69608  0.99948  0.86682  1.0000
  H   H1134     1.0  0.52209  0.60013  0.91726  1.0000
  C   C1138     1.0  0.83736  0.51429  0.83198  1.0000
  H   H1135     1.0  0.86413  0.50650  0.92986  1.0000
  H   H1136     1.0  0.67035  0.96833  0.88539  1.0000
  C   C1139     1.0  0.85669  0.55324  0.97625  1.0000
  C   C1140     1.0  0.50847  0.63261  0.87032  1.0000
  C   C1141     1.0  0.53054  0.82455  0.90380  1.0000
  C   C1142     1.0  0.82292  0.50511  0.95034  1.0000
  H   H1137     1.0  0.65208  0.80572  0.81613  1.0000
  C   C1143     1.0  0.52989  0.70271  0.90458  1.0000
  H   H1138     1.0  0.84622  0.54975  0.82594  1.0000
  H   H1139     1.0  0.65289  0.83645  0.81933  1.0000
  C   C1144     1.0  0.64931  0.82740  0.76545  1.0000
  H   H1140     1.0  0.58354  0.82925  0.77539  1.0000
  H   H1141     1.0  0.82291  0.53908  0.98104  1.0000
  H   H1142     1.0  0.66667  0.88239  0.75473  1.0000
  C   C1145     1.0  0.86206  0.51936  0.94316  1.0000
  H   H1143     1.0  0.50762  0.88663  0.89024  1.0000
  C   C1146     1.0  0.68034  0.97706  0.89914  1.0000
  C   C1147     1.0  0.62573  0.99466  0.88494  1.0000
  C   C1148     1.0  0.63350  0.99814  0.86245  1.0000
  C   C1149     1.0  0.83911  0.53744  0.97185  1.0000
  H   H1144     1.0  0.89077  0.56437  0.96668  1.0000
  H   H1145     1.0  0.81074  0.51373  0.93831  1.0000
  H   H1146     1.0  0.69081  0.96381  0.90815  1.0000
  H   H1147     1.0  0.82044  0.51828  0.83899  1.0000
  H   H1148     1.0  0.89559  0.53419  0.93683  1.0000
  N   N96       1.0  0.69524  0.99522  0.88995  1.0000
  H   H1149     1.0  0.82134  0.63119  0.99844  1.0000
  C   C1150     1.0  0.60199  0.82818  0.77235  1.0000
  H   H1150     1.0  0.50554  0.79106  0.88484  1.0000
  S   S384      1.0  0.65050  0.66216  0.99710  1.0000
  C   C1151     1.0  0.50809  0.69547  0.89731  1.0000
  H   H1151     1.0  0.66778  0.82773  0.76257  1.0000
  C   C1152     1.0  0.88093  0.50355  0.81538  1.0000
  H   H1152     1.0  0.50397  0.84290  0.93641  1.0000
