data_image0
_chemical_formula_structural       NSHC2H2C3FeS2FeSHFeSFeS3FeS2FeS2FeSFeS3CH4C2HSH2C2HSC2HSHC7H4C4HCHCHC3SHC5HCHC2H3CHNC3SC3HCH3CHC3H5CNC2NC2SHC3HFeC3H2C2HCHCH7CSHCHCFeH3C2HFeC2H2CH4CH2NC2H3CH3CH3CFeHCHSC3SC2H2FeS2FeSNFeSFeS3FeS2FeS2FeSFeS3C3HC3HCHCH3CHNHCHC7H4C2HNHCHCH2C2HCH3CHCHSHCHC2HC2HCHCH5C2H3CH2C2H2CSHC2SC2H2CHC4H2S2CH2CHFeNC2FeCH2C2HNH3CHC4H3CHFeS2FeS2FeSCS2FeS2CSFeS2HS2FeSFeS2H4SH2FeS2FeSHFeCSFeCFeS3HC2HC2HC6H5CHC2FeNCH2C6NHCHSHC2NC6FeH3C6H4C6H4C3HCHCH5C2H3CS2CNC5HCH2CHCSHNC6H3NFeCHSHC2FeSCH2SHCH2NH7CNH4C2H2CFeH6CHC4H7CFeS2FeS2FeSHS2FeS4FeS2HS2FeSFeCSCHSCSCHFeS2FeSHFeHSCSFeS3HC2HC2HC6H4SH2CH3SCHC6H2CH4CHC6H4C6H4C6H4C3H2N2CH4CNH5NFeC2HSCHCNC2H2CH2CH3CHCH2C2H3NC4HCFeNH3SHCH3CHC4H5C2HCHCNHFeC4HFeNC5FeCHSC3H2CHCH3C2HCHCFeHCH3C2HC3HCHSCH2SFeS2C2HSFeCNHFeS2FeS2FeSFeS3C5H2C6H4C6H4C6H5FeH3C2H2CH2NH2CH3CHC2HS2HC2FeH3CHSC2HC2HN2CHC3HCH5SHCH3SFeS2CH2SFeCSFe2S2FeS2FeSFeS3HC2H3SC6H4C6H4C6H4CNC6H10CHC4FeHC2SNCHCH2C2H5CNHC2HNSCHCH5FeS2FeS2FeSFeS3FeS2FeSCFeSFeS3FeCSFeS2CSFeS3C6H7C2HC3NCH2C6H4CH2C3HCH4C5H3CHCH2CNC2HC9H4CNHNC6H9CHC2HC2H2CH4NC4HC2NCHC4HC4HC2HC2H3SCHC2HSCHNH3C2H6C2HC2HNHCH3C3SH2FeS2FeS2FeSFeS3FeS2FeSHFeSFeS3FeCSFeS2HSFeS3C6H4NCHC3HCSHCHC7H4C5H2C3H2C4HCH2CNH2CHCHFeC3H4C4HNC3HC2H6CHCSC2NHNHCH5CHC2H2CHCH3CH2C2H4C2HCHCH5CH2CHN2C2H7SC2HCH3CHC2HCH3FeH2CSFeSHFeS2FeSFeS3FeS2FeS2FeSFeS3FeHSFeS2HSFeS3C2HC6H4C6H4C3H2C6H4NC3H3CHC2HCH2C3HC3H4CNC4HNCH2C3NC2FeCHCH2CH4CH2SCHCH4C2HCH2C2NC2NHC3H3CHCHC2H5C2H2CHNH6C2HCHC3SFeS2FeS2FeSFeS3FeS2FeS2FeSFeS3FeCSFeS2CHFeS3C2HC6H4C6H4C3H2C6H5C4SHCHC6HC2HC3HC2HCNCHNCH4CH4C2HC2H4CHCH8NCHCHCH2CH3C3HNHNC3HCH2CHC2H3CH3C2H2CH3CHC2H4C2NH2C4HFeSFeS2FeS2FeSFeS4FeS2FeSFeSHSFeS2Fe2CSFeCS2C2SCSH3C2H3C6H4C6H4C6H4C6H4NSH2NC6H9CH3NC6H8C3H4CHSC2HC6HCH2CHN2HC4H10CSFeS2FeS2FeSFeS4FeS2FeSFeS2HFeS2FeC2SFeHS2C2HCHNH2CSH3C6H4C6H4C6H4C6H5C2FeH5NH2CHCNC6H5CHC2H2CSH2CHCHFeHC2HC3NCH3CH5CSNC4H4CHCHCHC3H3CH2C2HNCSFeS2FeSHFeSCS2FeS2FeS2FeSFeS3FeS2CHFeHCS3HSC6H4C6H4C6H5CHCSCHC7H3CHC4FeCHCHC3H2C2SNCNH2C2FeCHNC6H12C2HCSHNH2CHCH2FeCH2FeC2HCH2CH3CHNHFeS2FeS2FeSNS2FeS2FeS2FeSFeS3FeS2FeHFeCHS3HC7H4C6H4C6H5C3H4C6H6CH2CNC5HSC2HCHCNH2C3HC2NC6H9NCNH2CHC2HCHC2SCH3FeHC2H7CH2CHFe2S2FeS2FeSFeS3H4SH3SHC6H2CHCFeCSFeCSFeSHS3FeS2FeS2FeSFeS3C5H3NH2C6H4C6H6C8H2SH2CHCN2C6H8CHC4HC3H2CHCH2CHC2H2FeHCH2C4SH3CH5C2H4NC3H3CHCH7FeH2FeS2FeSHS3FeS2FeS2FeSFeS3FeS2FeS2FeSFeS3C3HCSH2CH2C3HCH2C6H6C7H4C6H6C3HCH4C4H4CH2CHC2H5CH2C3HCSH2NCHCH4NC4H7CNCFeC5NHC3H2CHCNC5H4CHCHNCHC2SC4NH3CHCFeS2FeSHFeSFeS3FeS2FeHSHSFeS3FeS2FeS2FeSFeS3CHCHCHCHC3H2C2HSC3H4C6H4C4H4CHC6H4CHSCNH3C2HC3HC2HC2HCHC2H2NH3CNHCH2CHC4H3SNCHNHCHCHC2HC3HC3H2C2H3NCHC2HCFeH4C5HCHCHCH2CH4CH2NH2CHSFeSCFeSHFeSFeS3FeS2FeCH2SFeS3FeS2FeS2FeSFeS3CSCHCH2C4H2C3H2C2H4C6H5C5NCH2C6H5NCHCHC2HCH2CHCH2CNCH2CHFeSHCHCNC6H12C4HCH2CH2CHC3HCNHCH3CHSNCH6SCHCHC2H2C5H3C2H2FeS2FeS2FeSFeS3CS2FeS2FeCFeSHSHC2NC6H4C6H4C6H4C4NC6H8NC6H6CH2C2H2C4H5C2HCFeH3FeSHCHC2H4CH2SHCFeS2FeS2FeSFeS3CS2FeSHFeHFeSCSHNHC7H4C6H4C6H4CHC4HSHCNCH2C2HC5H3C6HCSH5CH6CHC2HC4SCNCH2CHCH2NH6NHCH7NCNS2FeS2FeSFeS2CFeSFeS2FeSFeSFeS3FeSHFeS2FeSFeS3NSFeSC7H6SCSH2CNH2CHCH3C6HCH2C6H4C6H4C6H3C2H3CH3CHC4HC2H4CHCH5C3HC2H4CH6CH2CHNC5H4NHCH2NC5H5NHC2HCHC2HCHCH2CSC2SHC2HSFeCHSHC2H5CHC2SHFeS2FeSFeS2NFeSFeS2FeSFeSFeS3FeSHFeS2FeSFeHS4FeSHC6H4SHC2H2C2SCFeH2CH2C9H2C6H4C6H4C6H4SCH2NCSH2N2C6H8C2H2NC5HCH2CHC2HCH4CHC3HNHCHSCHCHCHCHCSCHSH2C2H4CHC2H4CHCHNFeHCH2CH3C2H3S2CH4CH2SNH2CSH2FeSCH5FeH2CSFeS2FeS2FeSFeS3FeS2FeS2FeSFeCS2C5H3C2HSH2C7H5SC3HC2HFeCHC9H2C3H2CSH2CHC2HSC2HCH4C2HFeHC2HNCH2CSHC2HC2H3C3H2C3H3NH2C2NSHNHCH2C2HCHCH3CHCFeCHCH2NHFeCH4CHCFeSHCSHCNCSCHCHCHSFeS2FeSCFeSFeS3FeS2FeS2FeSFeCS2CFeHC2FeCHCH2C2HC7H6C2HC4HNCH3C5H3C2HC3NCH4CH3NC7SH4CNCH2C2H3CH2CHSCH4C2H2C3HCH4SH3C2SCHCHCFeHC2FeC2SH6C2HCNHC
_chemical_formula_sum              "N144 S576 H1728 C1728 Fe288"
_cell_length_a       87.0342
_cell_length_b       87.892
_cell_length_c       44.1839
_cell_angle_alpha    90.8371
_cell_angle_beta     92.5155
_cell_angle_gamma    114.222

_space_group_name_H-M_alt    "P 1"
_space_group_IT_number       1

loop_
  _space_group_symop_operation_xyz
  'x, y, z'

loop_
  _atom_site_type_symbol
  _atom_site_label
  _atom_site_symmetry_multiplicity
  _atom_site_fract_x
  _atom_site_fract_y
  _atom_site_fract_z
  _atom_site_occupancy
  N   N1        1.0  0.26971  0.14264  0.16073  1.0000
  S   S1        1.0  0.03739  0.23004  0.38926  1.0000
  H   H1        1.0  0.13271  0.21751  0.39887  1.0000
  C   C1        1.0  0.26598  0.24236  0.24715  1.0000
  C   C2        1.0  0.23489  0.00596  0.24133  1.0000
  H   H2        1.0  0.25680  0.15857  0.16476  1.0000
  H   H3        1.0  0.14637  0.19827  0.38865  1.0000
  C   C3        1.0  0.03660  0.21586  0.26960  1.0000
  C   C4        1.0  0.29588  0.08817  0.03740  1.0000
  C   C5        1.0  0.21740  0.23879  0.48693  1.0000
  Fe  Fe1       1.0  0.24248  0.20648  0.16133  1.0000
  S   S2        1.0  0.22656  0.18993  0.12201  1.0000
  S   S3        1.0  0.23656  0.20533  0.21139  1.0000
  Fe  Fe2       1.0  0.27273  0.22396  0.12193  1.0000
  S   S4        1.0  0.25926  0.20908  0.07986  1.0000
  H   H4        1.0  0.21776  0.22376  0.30289  1.0000
  Fe  Fe3       1.0  0.23691  0.21332  0.09469  1.0000
  S   S5        1.0  0.22173  0.22461  0.06695  1.0000
  Fe  Fe4       1.0  0.25015  0.18683  0.11021  1.0000
  S   S6        1.0  0.25464  0.16409  0.09445  1.0000
  S   S7        1.0  0.25108  0.22980  0.13500  1.0000
  S   S8        1.0  0.26537  0.20176  0.15129  1.0000
  Fe  Fe5       1.0  0.23749  0.06999  0.12100  1.0000
  S   S9        1.0  0.25615  0.07060  0.15811  1.0000
  S   S10       1.0  0.22414  0.08724  0.12855  1.0000
  Fe  Fe6       1.0  0.24535  0.04505  0.08162  1.0000
  S   S11       1.0  0.26486  0.04454  0.11657  1.0000
  S   S12       1.0  0.24621  0.03416  0.03441  1.0000
  Fe  Fe7       1.0  0.24577  0.04262  0.15132  1.0000
  S   S13       1.0  0.24476  0.02775  0.19448  1.0000
  Fe  Fe8       1.0  0.27340  0.07230  0.12080  1.0000
  S   S14       1.0  0.29929  0.09392  0.12255  1.0000
  S   S15       1.0  0.22566  0.04164  0.11604  1.0000
  S   S16       1.0  0.25522  0.07318  0.08415  1.0000
  C   C6        1.0  0.13305  0.24700  0.36690  1.0000
  H   H5        1.0  0.26106  0.23675  0.26830  1.0000
  H   H6        1.0  0.31970  0.06301  0.00729  1.0000
  H   H7        1.0  0.29877  0.22564  0.07345  1.0000
  H   H8        1.0  0.20047  0.01046  0.34015  1.0000
  C   C7        1.0  0.10549  0.24767  0.37429  1.0000
  C   C8        1.0  0.22941  0.01181  0.21527  1.0000
  H   H9        1.0  0.21060  0.01181  0.04130  1.0000
  S   S17       1.0  0.29845  0.24571  0.12640  1.0000
  H   H10       1.0  0.01462  0.24384  0.21922  1.0000
  H   H11       1.0  0.18256  0.20324  0.39702  1.0000
  C   C9        1.0  0.28857  0.07071  0.03685  1.0000
  C   C10       1.0  0.21817  0.22442  0.27848  1.0000
  H   H12       1.0  0.24329  0.03191  0.31337  1.0000
  S   S18       1.0  0.00425  0.22850  0.32627  1.0000
  C   C11       1.0  0.31703  0.09316  0.10573  1.0000
  C   C12       1.0  0.25561  0.99940  0.47016  1.0000
  H   H13       1.0  0.06793  0.24292  0.30340  1.0000
  S   S19       1.0  0.18545  0.23740  0.36877  1.0000
  H   H14       1.0  0.30703  0.06638  0.10089  1.0000
  C   C13       1.0  0.21449  0.00854  0.02014  1.0000
  C   C14       1.0  0.24472  0.14244  0.10196  1.0000
  C   C15       1.0  0.23096  0.13582  0.12033  1.0000
  C   C16       1.0  0.22458  0.11882  0.12777  1.0000
  C   C17       1.0  0.23190  0.10829  0.11707  1.0000
  C   C18       1.0  0.24539  0.11485  0.09812  1.0000
  C   C19       1.0  0.25166  0.13177  0.09049  1.0000
  H   H15       1.0  0.22537  0.14381  0.12912  1.0000
  H   H16       1.0  0.21402  0.11385  0.14218  1.0000
  H   H17       1.0  0.25105  0.10690  0.08947  1.0000
  H   H18       1.0  0.26221  0.13671  0.07607  1.0000
  C   C20       1.0  0.29027  0.13111  0.12998  1.0000
  C   C21       1.0  0.22397  0.22936  0.02818  1.0000
  C   C22       1.0  0.17425  0.19831  0.41621  1.0000
  C   C23       1.0  0.21154  0.23450  0.23126  1.0000
  H   H19       1.0  0.10960  0.23065  0.34340  1.0000
  C   C24       1.0  0.31094  0.23607  0.07658  1.0000
  H   H20       1.0  0.23554  0.21266  0.01747  1.0000
  C   C25       1.0  0.22551  0.21593  0.47845  1.0000
  H   H21       1.0  0.29812  0.12649  0.11774  1.0000
  C   C26       1.0  0.06560  0.23091  0.29135  1.0000
  C   C27       1.0  0.22562  0.21550  0.26223  1.0000
  C   C28       1.0  0.22633  0.21624  0.23048  1.0000
  S   S20       1.0  0.02985  0.23921  0.47343  1.0000
  H   H22       1.0  0.26811  0.23683  0.00973  1.0000
  C   C29       1.0  0.17502  0.22066  0.00073  1.0000
  C   C30       1.0  0.20726  0.03164  0.25911  1.0000
  C   C31       1.0  0.21934  0.22589  0.21508  1.0000
  C   C32       1.0  0.01969  0.20494  0.27208  1.0000
  C   C33       1.0  0.01436  0.19776  0.29980  1.0000
  H   H23       1.0  0.16203  0.24241  0.00362  1.0000
  C   C34       1.0  0.16576  0.23305  0.45090  1.0000
  H   H24       1.0  0.23102  0.02909  0.45353  1.0000
  C   C35       1.0  0.00996  0.23261  0.01984  1.0000
  C   C36       1.0  0.02599  0.20134  0.32448  1.0000
  H   H25       1.0  0.18633  0.20431  0.01699  1.0000
  H   H26       1.0  0.28285  0.03938  0.04836  1.0000
  H   H27       1.0  0.25002  0.04837  0.26691  1.0000
  C   C37       1.0  0.21280  0.01217  0.33126  1.0000
  H   H28       1.0  0.14054  0.24165  0.35557  1.0000
  N   N2        1.0  0.04797  0.21916  0.29386  1.0000
  C   C38       1.0  0.01025  0.23782  0.26619  1.0000
  C   C39       1.0  0.22733  0.01891  0.46896  1.0000
  C   C40       1.0  0.20380  0.02225  0.28525  1.0000
  S   S21       1.0  0.21525  0.22737  0.42721  1.0000
  C   C41       1.0  0.04286  0.21209  0.32106  1.0000
  C   C42       1.0  0.00578  0.23593  0.23479  1.0000
  C   C43       1.0  0.15170  0.20781  0.40660  1.0000
  H   H29       1.0  0.28789  0.23709  0.18901  1.0000
  C   C44       1.0  0.21101  0.23393  0.26305  1.0000
  H   H30       1.0  0.16485  0.18544  0.41017  1.0000
  H   H31       1.0  0.14529  0.23997  0.43872  1.0000
  H   H32       1.0  0.26565  0.15443  0.19991  1.0000
  C   C45       1.0  0.99642  0.23530  0.47364  1.0000
  H   H33       1.0  0.22743  0.20725  0.46306  1.0000
  C   C46       1.0  0.23309  0.03210  0.29863  1.0000
  C   C47       1.0  0.14395  0.21865  0.41217  1.0000
  C   C48       1.0  0.28922  0.04357  0.02678  1.0000
  H   H34       1.0  0.27614  0.06424  0.04535  1.0000
  H   H35       1.0  0.07426  0.22586  0.30203  1.0000
  H   H36       1.0  0.29858  0.03807  0.02495  1.0000
  H   H37       1.0  0.23089  0.20800  0.27436  1.0000
  H   H38       1.0  0.05179  0.21500  0.34049  1.0000
  C   C49       1.0  0.22397  0.04130  0.25275  1.0000
  N   N3        1.0  0.21665  0.02277  0.30485  1.0000
  C   C50       1.0  0.11548  0.24080  0.36001  1.0000
  C   C51       1.0  0.17311  0.22192  0.44491  1.0000
  N   N4        1.0  0.29715  0.06186  0.02649  1.0000
  C   C52       1.0  0.21769  0.24058  0.01632  1.0000
  C   C53       1.0  0.31755  0.07805  0.09683  1.0000
  S   S22       1.0  0.20144  0.24542  0.28226  1.0000
  H   H39       1.0  0.31804  0.11008  0.02801  1.0000
  C   C54       1.0  0.21988  0.22768  0.46680  1.0000
  C   C55       1.0  0.26787  0.12651  0.16381  1.0000
  C   C56       1.0  0.25924  0.14891  0.17763  1.0000
  H   H40       1.0  0.99852  0.24174  0.45251  1.0000
  Fe  Fe9       1.0  0.03764  0.24829  0.42571  1.0000
  C   C57       1.0  0.31278  0.06995  0.01535  1.0000
  C   C58       1.0  0.15101  0.23129  0.43456  1.0000
  C   C59       1.0  0.29210  0.14755  0.12705  1.0000
  H   H41       1.0  0.30128  0.15581  0.11228  1.0000
  H   H42       1.0  0.04045  0.22189  0.24830  1.0000
  C   C60       1.0  0.27811  0.12052  0.14848  1.0000
  C   C61       1.0  0.32044  0.08741  0.01537  1.0000
  H   H43       1.0  0.06891  0.23343  0.26741  1.0000
  C   C62       1.0  0.00928  0.23175  0.48750  1.0000
  H   H44       1.0  0.01060  0.20267  0.25306  1.0000
  C   C63       1.0  0.28172  0.15317  0.14285  1.0000
  H   H45       1.0  0.19710  0.03082  0.24314  1.0000
  H   H46       1.0  0.25815  0.11803  0.17748  1.0000
  H   H47       1.0  0.27646  0.10766  0.15047  1.0000
  H   H48       1.0  0.28294  0.16586  0.13990  1.0000
  H   H49       1.0  0.21972  0.22652  0.19067  1.0000
  H   H50       1.0  0.24669  0.13874  0.18126  1.0000
  H   H51       1.0  0.19083  0.01408  0.28922  1.0000
  C   C64       1.0  0.23699  0.04153  0.27256  1.0000
  S   S23       1.0  0.08332  0.23915  0.36503  1.0000
  H   H52       1.0  0.27947  0.03857  0.00782  1.0000
  C   C65       1.0  0.23085  0.22147  0.00867  1.0000
  H   H53       1.0  0.22688  0.04795  0.23175  1.0000
  C   C66       1.0  0.31425  0.24733  0.10123  1.0000
  Fe  Fe10      1.0  0.20912  0.24620  0.39974  1.0000
  H   H54       1.0  0.17314  0.22416  0.02344  1.0000
  H   H55       1.0  0.18465  0.22346  0.45749  1.0000
  H   H56       1.0  0.24827  0.01058  0.24723  1.0000
  C   C67       1.0  0.32327  0.23862  0.05533  1.0000
  C   C68       1.0  0.18237  0.20930  0.99724  1.0000
  H   H57       1.0  0.32046  0.23013  0.03583  1.0000
  Fe  Fe11      1.0  0.02754  0.24417  0.35729  1.0000
  C   C69       1.0  0.21206  0.00559  0.20787  1.0000
  C   C70       1.0  0.23109  0.01727  0.01183  1.0000
  H   H58       1.0  0.28929  0.09510  0.04691  1.0000
  H   H59       1.0  0.25851  0.24086  0.05745  1.0000
  C   C71       1.0  0.21947  0.00234  0.45730  1.0000
  H   H60       1.0  0.27682  0.22475  0.23803  1.0000
  H   H61       1.0  0.00111  0.19002  0.30251  1.0000
  H   H62       1.0  0.21240  0.24678  0.03133  1.0000
  H   H63       1.0  0.99469  0.22510  0.05893  1.0000
  C   C72       1.0  0.27504  0.23559  0.23024  1.0000
  H   H64       1.0  0.20759  0.00989  0.18794  1.0000
  H   H65       1.0  0.02178  0.23698  0.03321  1.0000
  N   N5        1.0  0.16597  0.20940  0.42320  1.0000
  C   C73       1.0  0.28107  0.24239  0.20260  1.0000
  C   C74       1.0  0.31197  0.09655  0.02674  1.0000
  H   H66       1.0  0.22250  0.01767  0.35020  1.0000
  H   H67       1.0  0.25694  0.01219  0.47270  1.0000
  H   H68       1.0  0.02185  0.19630  0.34641  1.0000
  C   C75       1.0  0.99901  0.22761  0.28664  1.0000
  H   H69       1.0  0.17161  0.24315  0.46775  1.0000
  H   H70       1.0  0.20595  0.24172  0.21907  1.0000
  H   H71       1.0  0.18229  0.19754  0.43591  1.0000
  C   C76       1.0  0.28068  0.24595  0.01674  1.0000
  H   H72       1.0  0.02243  0.24705  0.27458  1.0000
  H   H73       1.0  0.21314  0.24794  0.47832  1.0000
  H   H74       1.0  0.28569  0.24543  0.48662  1.0000
  C   C77       1.0  0.29411  0.24790  0.99860  1.0000
  Fe  Fe12      1.0  0.06361  0.24857  0.37960  1.0000
  H   H75       1.0  0.21221  0.99970  0.32467  1.0000
  C   C78       1.0  0.99460  0.22587  0.03451  1.0000
  H   H76       1.0  0.21050  0.00834  0.84492  1.0000
  S   S24       1.0  0.03800  0.23141  0.88319  1.0000
  C   C79       1.0  0.31099  0.08006  0.56261  1.0000
  C   C80       1.0  0.23589  0.01278  0.98421  1.0000
  C   C81       1.0  0.32298  0.08371  0.54032  1.0000
  S   S25       1.0  0.22319  0.23714  0.92562  1.0000
  C   C82       1.0  0.03237  0.21642  0.75291  1.0000
  C   C83       1.0  0.21996  0.14160  0.68089  1.0000
  H   H77       1.0  0.05501  0.23622  0.73810  1.0000
  H   H78       1.0  0.20171  0.23843  0.72004  1.0000
  Fe  Fe13      1.0  0.24930  0.21222  0.66776  1.0000
  S   S26       1.0  0.23366  0.19315  0.63144  1.0000
  S   S27       1.0  0.24352  0.21365  0.71762  1.0000
  Fe  Fe14      1.0  0.27974  0.22711  0.62667  1.0000
  S   S28       1.0  0.26633  0.20949  0.58739  1.0000
  N   N6        1.0  0.24815  0.16078  0.69683  1.0000
  Fe  Fe15      1.0  0.24379  0.21452  0.59909  1.0000
  S   S29       1.0  0.22875  0.22549  0.56994  1.0000
  Fe  Fe16      1.0  0.25737  0.18944  0.62248  1.0000
  S   S30       1.0  0.26393  0.16659  0.62332  1.0000
  S   S31       1.0  0.25797  0.23348  0.63645  1.0000
  S   S32       1.0  0.27227  0.20721  0.66088  1.0000
  Fe  Fe17      1.0  0.23999  0.06853  0.61809  1.0000
  S   S33       1.0  0.25933  0.07106  0.65537  1.0000
  S   S34       1.0  0.22751  0.08685  0.61247  1.0000
  Fe  Fe18      1.0  0.24191  0.03720  0.58966  1.0000
  S   S35       1.0  0.26218  0.03859  0.62450  1.0000
  S   S36       1.0  0.23131  0.01296  0.56032  1.0000
  Fe  Fe19      1.0  0.24614  0.04306  0.65926  1.0000
  S   S37       1.0  0.24501  0.02799  0.70211  1.0000
  Fe  Fe20      1.0  0.27359  0.06620  0.61779  1.0000
  S   S38       1.0  0.30144  0.08387  0.62033  1.0000
  S   S39       1.0  0.22543  0.04075  0.62469  1.0000
  S   S40       1.0  0.25470  0.06466  0.58014  1.0000
  C   C84       1.0  0.00807  0.23572  0.76236  1.0000
  C   C85       1.0  0.22627  0.00941  0.52065  1.0000
  C   C86       1.0  0.17347  0.22335  0.94740  1.0000
  H   H79       1.0  0.23589  0.21789  0.96230  1.0000
  C   C87       1.0  0.21397  0.01522  0.72960  1.0000
  C   C88       1.0  0.18025  0.00099  0.89572  1.0000
  C   C89       1.0  0.23047  0.01630  0.72927  1.0000
  H   H80       1.0  0.31945  0.07703  0.51858  1.0000
  C   C90       1.0  0.21093  0.23619  0.76513  1.0000
  H   H81       1.0  0.20989  0.02226  0.71377  1.0000
  C   C91       1.0  0.22419  0.23520  0.96539  1.0000
  H   H82       1.0  0.21439  0.00302  0.61714  1.0000
  H   H83       1.0  0.26931  0.16473  0.72669  1.0000
  H   H84       1.0  0.24001  0.22017  0.78019  1.0000
  C   C92       1.0  0.21414  0.15391  0.68682  1.0000
  H   H85       1.0  0.21500  0.02560  0.93770  1.0000
  N   N7        1.0  0.19008  0.01011  0.92016  1.0000
  H   H86       1.0  0.18999  0.00426  0.75047  1.0000
  C   C93       1.0  0.28181  0.11091  0.57265  1.0000
  H   H87       1.0  0.29830  0.07066  0.55800  1.0000
  C   C94       1.0  0.18550  0.20518  0.96822  1.0000
  C   C95       1.0  0.25310  0.14445  0.62141  1.0000
  C   C96       1.0  0.23624  0.13618  0.61081  1.0000
  C   C97       1.0  0.22852  0.11855  0.60875  1.0000
  C   C98       1.0  0.23751  0.10899  0.61729  1.0000
  C   C99       1.0  0.25422  0.11728  0.62872  1.0000
  C   C100      1.0  0.26197  0.13488  0.63061  1.0000
  H   H88       1.0  0.22923  0.14334  0.60369  1.0000
  H   H89       1.0  0.21556  0.11227  0.59998  1.0000
  H   H90       1.0  0.26128  0.11011  0.63556  1.0000
  H   H91       1.0  0.27501  0.14112  0.63891  1.0000
  C   C101      1.0  0.20479  0.00897  0.86602  1.0000
  C   C102      1.0  0.22566  0.22603  0.53007  1.0000
  H   H92       1.0  0.02597  0.20311  0.82407  1.0000
  N   N8        1.0  0.02434  0.20738  0.77687  1.0000
  H   H93       1.0  0.21135  0.12938  0.67175  1.0000
  C   C103      1.0  0.18208  0.01083  0.94836  1.0000
  H   H94       1.0  0.23284  0.20607  0.51858  1.0000
  C   C104      1.0  0.21014  0.23454  0.73327  1.0000
  H   H95       1.0  0.24824  0.00789  0.75048  1.0000
  H   H96       1.0  0.15058  0.23488  0.96758  1.0000
  C   C105      1.0  0.22017  0.22792  0.71830  1.0000
  C   C106      1.0  0.23097  0.22263  0.73508  1.0000
  H   H97       1.0  0.02594  0.21427  0.73062  1.0000
  C   C107      1.0  0.26331  0.12402  0.55738  1.0000
  H   H98       1.0  0.02101  0.23743  0.61283  1.0000
  H   H99       1.0  0.27394  0.17694  0.69286  1.0000
  H   H100      1.0  0.19155  0.01730  0.96720  1.0000
  C   C108      1.0  0.24249  0.17280  0.70330  1.0000
  H   H101      1.0  0.01604  0.22033  0.52568  1.0000
  C   C109      1.0  0.26612  0.16458  0.70205  1.0000
  H   H102      1.0  0.32064  0.14021  0.59396  1.0000
  S   S41       1.0  0.19862  0.24544  0.78264  1.0000
  H   H103      1.0  0.21936  0.22670  0.69381  1.0000
  C   C110      1.0  0.23096  0.22440  0.97741  1.0000
  H   H104      1.0  0.17002  0.22883  0.92785  1.0000
  C   C111      1.0  0.22189  0.23109  0.78189  1.0000
  C   C112      1.0  0.20271  0.00498  0.75050  1.0000
  H   H105      1.0  0.24140  0.00018  0.61630  1.0000
  C   C113      1.0  0.99634  0.22563  0.78223  1.0000
  C   C114      1.0  0.26585  0.10956  0.56232  1.0000
  H   H106      1.0  0.31025  0.11991  0.60930  1.0000
  C   C115      1.0  0.27667  0.13962  0.56284  1.0000
  H   H107      1.0  0.28370  0.09963  0.57686  1.0000
  C   C116      1.0  0.04880  0.22886  0.75699  1.0000
  H   H108      1.0  0.24869  0.01943  0.97753  1.0000
  H   H109      1.0  0.22107  0.17925  0.70322  1.0000
  H   H110      1.0  0.20093  0.15135  0.68246  1.0000
  H   H111      1.0  0.26962  0.15535  0.69004  1.0000
  H   H112      1.0  0.24147  0.13557  0.68169  1.0000
  C   C117      1.0  0.31830  0.24050  0.57763  1.0000
  C   C118      1.0  0.21779  0.24351  0.98504  1.0000
  H   H113      1.0  0.01336  0.24173  0.71561  1.0000
  H   H114      1.0  0.17377  0.01750  0.94493  1.0000
  H   H115      1.0  0.05541  0.22441  0.83199  1.0000
  C   C119      1.0  0.00022  0.24362  0.59986  1.0000
  H   H116      1.0  0.27465  0.15094  0.56011  1.0000
  H   H117      1.0  0.25534  0.09742  0.55909  1.0000
  C   C120      1.0  0.22857  0.21521  0.50991  1.0000
  C   C121      1.0  0.18102  0.21221  0.94310  1.0000
  H   H118      1.0  0.12215  0.24687  0.93321  1.0000
  H   H119      1.0  0.21778  0.24623  0.53382  1.0000
  C   C122      1.0  0.31143  0.12718  0.58846  1.0000
  S   S42       1.0  0.02993  0.24204  0.97075  1.0000
  H   H120      1.0  0.25084  0.12313  0.55040  1.0000
  C   C123      1.0  0.21477  0.01808  0.89116  1.0000
  C   C124      1.0  0.23174  0.22425  0.76694  1.0000
  S   S43       1.0  0.18646  0.23633  0.87076  1.0000
  C   C125      1.0  0.23071  0.02244  0.50044  1.0000
  C   C126      1.0  0.31561  0.08838  0.59095  1.0000
  H   H121      1.0  0.23691  0.03523  0.50900  1.0000
  H   H122      1.0  0.19578  0.00825  0.65931  1.0000
  C   C127      1.0  0.23707  0.14521  0.68643  1.0000
  H   H123      1.0  0.19191  0.19699  0.96526  1.0000
  C   C128      1.0  0.03241  0.21014  0.80501  1.0000
  C   C129      1.0  0.16329  0.23969  0.97947  1.0000
  C   C130      1.0  0.22543  0.16956  0.69839  1.0000
  C   C131      1.0  0.04894  0.22227  0.80974  1.0000
  H   H124      1.0  0.30598  0.23040  0.57339  1.0000
  H   H125      1.0  0.25122  0.18506  0.71208  1.0000
  S   S44       1.0  0.30584  0.24844  0.62934  1.0000
  S   S45       1.0  0.00164  0.22491  0.82148  1.0000
  C   C132      1.0  0.00404  0.23415  0.73081  1.0000
  H   H126      1.0  0.02042  0.24436  0.77122  1.0000
  H   H127      1.0  0.30271  0.15270  0.57761  1.0000
  C   C133      1.0  0.20714  0.01862  0.91817  1.0000
  H   H128      1.0  0.06988  0.24133  0.78928  1.0000
  Fe  Fe21      1.0  0.03479  0.24749  0.92073  1.0000
  N   N9        1.0  0.29485  0.12625  0.57789  1.0000
  C   C134      1.0  0.05712  0.23175  0.78562  1.0000
  C   C135      1.0  0.29247  0.14051  0.57311  1.0000
  Fe  Fe22      1.0  0.02381  0.24234  0.85273  1.0000
  C   C136      1.0  0.22007  0.23780  0.51839  1.0000
  H   H129      1.0  0.22832  0.02456  0.88981  1.0000
  H   H130      1.0  0.00808  0.18183  0.76864  1.0000
  C   C137      1.0  0.23552  0.00716  0.75041  1.0000
  C   C138      1.0  0.00624  0.22327  0.51490  1.0000
  H   H131      1.0  0.22270  0.23232  0.80638  1.0000
  N   N10       1.0  0.17073  0.22755  0.97593  1.0000
  H   H132      1.0  0.31664  0.12187  0.57066  1.0000
  H   H133      1.0  0.18387  0.20947  0.92052  1.0000
  H   H134      1.0  0.99968  0.19347  0.79192  1.0000
  C   C139      1.0  0.01604  0.24355  0.59643  1.0000
  H   H135      1.0  0.25790  0.24524  0.49822  1.0000
  C   C140      1.0  0.01017  0.23369  0.98806  1.0000
  C   C141      1.0  0.18742  0.00039  0.86825  1.0000
  C   C142      1.0  0.22427  0.99977  0.96507  1.0000
  C   C143      1.0  0.00734  0.19403  0.77209  1.0000
  H   H136      1.0  0.09578  0.24855  0.91303  1.0000
  H   H137      1.0  0.00044  0.19632  0.75210  1.0000
  H   H138      1.0  0.29202  0.24023  0.97807  1.0000
  C   C144      1.0  0.99477  0.22797  0.97110  1.0000
  H   H139      1.0  0.99468  0.22867  0.94667  1.0000
  Fe  Fe23      1.0  0.04833  0.45358  0.20908  1.0000
  S   S46       1.0  0.05695  0.47493  0.24312  1.0000
  S   S47       1.0  0.02187  0.43286  0.20488  1.0000
  Fe  Fe24      1.0  0.08124  0.46814  0.17495  1.0000
  S   S48       1.0  0.09234  0.49054  0.20766  1.0000
  S   S49       1.0  0.09507  0.46987  0.13098  1.0000
  Fe  Fe25      1.0  0.08157  0.47200  0.24432  1.0000
  S   S50       1.0  0.09474  0.47541  0.29126  1.0000
  C   C145      1.0  0.13084  0.26690  0.40277  1.0000
  S   S51       1.0  0.07234  0.44948  0.21215  1.0000
  S   S52       1.0  0.05650  0.47043  0.16976  1.0000
  Fe  Fe26      1.0  0.05334  0.27771  0.38475  1.0000
  S   S53       1.0  0.06479  0.26587  0.41848  1.0000
  S   S54       1.0  0.06445  0.30548  0.37574  1.0000
  C   C146      1.0  0.06259  0.44329  0.33691  1.0000
  S   S55       1.0  0.05363  0.26132  0.34509  1.0000
  Fe  Fe27      1.0  0.10611  0.39078  0.46038  1.0000
  S   S56       1.0  0.12169  0.39557  0.41999  1.0000
  S   S57       1.0  0.08866  0.36503  0.47476  1.0000
  H   H140      1.0  0.18463  0.30784  0.40697  1.0000
  S   S58       1.0  0.14042  0.43475  0.44378  1.0000
  S   S59       1.0  0.10521  0.41596  0.04405  1.0000
  Fe  Fe28      1.0  0.11675  0.41873  0.41529  1.0000
  S   S60       1.0  0.10799  0.42011  0.36617  1.0000
  Fe  Fe29      1.0  0.14400  0.41099  0.45105  1.0000
  S   S61       1.0  0.16590  0.40283  0.45464  1.0000
  S   S62       1.0  0.09943  0.41274  0.45434  1.0000
  H   H141      1.0  0.16302  0.44763  0.02291  1.0000
  H   H142      1.0  0.31088  0.47446  0.21840  1.0000
  H   H143      1.0  0.11915  0.35802  0.48570  1.0000
  H   H144      1.0  0.06642  0.45488  0.35016  1.0000
  S   S63       1.0  0.19969  0.27547  0.34462  1.0000
  H   H145      1.0  0.16196  0.47491  0.04478  1.0000
  H   H146      1.0  0.32547  0.27827  0.04115  1.0000
  Fe  Fe30      1.0  0.22216  0.28169  0.37693  1.0000
  S   S64       1.0  0.24342  0.30738  0.37375  1.0000
  S   S65       1.0  0.20676  0.26943  0.41627  1.0000
  Fe  Fe31      1.0  0.29511  0.42495  0.41230  1.0000
  S   S66       1.0  0.29695  0.41130  0.45458  1.0000
  H   H147      1.0  0.26624  0.48491  0.45830  1.0000
  Fe  Fe32      1.0  0.26295  0.42755  0.43175  1.0000
  C   C147      1.0  0.26922  0.25322  0.06186  1.0000
  S   S67       1.0  0.24305  0.43747  0.41996  1.0000
  Fe  Fe33      1.0  0.11527  0.41611  0.99670  1.0000
  C   C148      1.0  0.27094  0.47511  0.46267  1.0000
  Fe  Fe34      1.0  0.26904  0.39662  0.44641  1.0000
  S   S68       1.0  0.25414  0.36984  0.45936  1.0000
  S   S69       1.0  0.29064  0.44490  0.43877  1.0000
  S   S70       1.0  0.26735  0.40863  0.40262  1.0000
  H   H148      1.0  0.31358  0.45598  0.25934  1.0000
  C   C149      1.0  0.32212  0.42583  0.22487  1.0000
  C   C150      1.0  0.31690  0.44946  0.24146  1.0000
  H   H149      1.0  0.23752  0.46322  0.46459  1.0000
  C   C151      1.0  0.06471  0.40170  0.34348  1.0000
  C   C152      1.0  0.05603  0.44213  0.30717  1.0000
  H   H150      1.0  0.13291  0.42211  0.11386  1.0000
  C   C153      1.0  0.24710  0.32436  0.39907  1.0000
  C   C154      1.0  0.23805  0.32248  0.42515  1.0000
  C   C155      1.0  0.24066  0.33651  0.44383  1.0000
  C   C156      1.0  0.25214  0.35250  0.43635  1.0000
  C   C157      1.0  0.26142  0.35436  0.41061  1.0000
  C   C158      1.0  0.25897  0.34029  0.39214  1.0000
  H   H151      1.0  0.22906  0.31023  0.43089  1.0000
  H   H152      1.0  0.23354  0.33500  0.46388  1.0000
  H   H153      1.0  0.27035  0.36662  0.40475  1.0000
  H   H154      1.0  0.26605  0.34180  0.37204  1.0000
  H   H155      1.0  0.07441  0.29892  0.00535  1.0000
  C   C159      1.0  0.31663  0.44913  0.05792  1.0000
  H   H156      1.0  0.13440  0.44937  0.09771  1.0000
  C   C160      1.0  0.25332  0.26250  0.25436  1.0000
  C   C161      1.0  0.12975  0.36214  0.47023  1.0000
  Fe  Fe35      1.0  0.20288  0.25190  0.33294  1.0000
  N   N11       1.0  0.14898  0.45020  0.05958  1.0000
  C   C162      1.0  0.14774  0.41961  0.07781  1.0000
  H   H157      1.0  0.21526  0.44697  0.41073  1.0000
  H   H158      1.0  0.05294  0.39007  0.34266  1.0000
  C   C163      1.0  0.18733  0.41294  0.44503  1.0000
  C   C164      1.0  0.19835  0.40530  0.45226  1.0000
  C   C165      1.0  0.21539  0.41259  0.44468  1.0000
  C   C166      1.0  0.22159  0.42762  0.42952  1.0000
  C   C167      1.0  0.21062  0.43534  0.42246  1.0000
  C   C168      1.0  0.19360  0.42809  0.43023  1.0000
  N   N12       1.0  0.32158  0.45671  0.21423  1.0000
  H   H159      1.0  0.22367  0.40654  0.45039  1.0000
  C   C169      1.0  0.05479  0.41428  0.30225  1.0000
  H   H160      1.0  0.18528  0.43411  0.42444  1.0000
  S   S71       1.0  0.02634  0.26150  0.39457  1.0000
  H   H161      1.0  0.07108  0.43116  0.37138  1.0000
  C   C170      1.0  0.06525  0.42983  0.34872  1.0000
  C   C171      1.0  0.32216  0.47342  0.20950  1.0000
  N   N13       1.0  0.26036  0.46299  0.48376  1.0000
  C   C172      1.0  0.08115  0.34852  0.44707  1.0000
  C   C173      1.0  0.07322  0.33193  0.45609  1.0000
  C   C174      1.0  0.06771  0.31854  0.43450  1.0000
  C   C175      1.0  0.06991  0.32172  0.40368  1.0000
  C   C176      1.0  0.07757  0.33832  0.39469  1.0000
  C   C177      1.0  0.08328  0.35165  0.41627  1.0000
  Fe  Fe36      1.0  0.29082  0.43017  0.48024  1.0000
  H   H162      1.0  0.06184  0.30580  0.44165  1.0000
  H   H163      1.0  0.07932  0.34087  0.37091  1.0000
  H   H164      1.0  0.08924  0.36436  0.40899  1.0000
  C   C178      1.0  0.09986  0.46051  0.31100  1.0000
  C   C179      1.0  0.09770  0.44528  0.29731  1.0000
  C   C180      1.0  0.10093  0.43337  0.31434  1.0000
  C   C181      1.0  0.10612  0.43643  0.34529  1.0000
  C   C182      1.0  0.10854  0.45177  0.35889  1.0000
  C   C183      1.0  0.10551  0.46378  0.34174  1.0000
  H   H165      1.0  0.09347  0.44264  0.27367  1.0000
  H   H166      1.0  0.09921  0.42162  0.30352  1.0000
  H   H167      1.0  0.11257  0.45432  0.38264  1.0000
  H   H168      1.0  0.10729  0.47556  0.35250  1.0000
  C   C184      1.0  0.10116  0.43079  0.06664  1.0000
  C   C185      1.0  0.09479  0.42629  0.09549  1.0000
  C   C186      1.0  0.09243  0.43790  0.11515  1.0000
  C   C187      1.0  0.09664  0.45430  0.10638  1.0000
  C   C188      1.0  0.10299  0.45881  0.07750  1.0000
  C   C189      1.0  0.10507  0.44711  0.05762  1.0000
  H   H169      1.0  0.09172  0.41373  0.10278  1.0000
  H   H170      1.0  0.08758  0.43420  0.13726  1.0000
  H   H171      1.0  0.10624  0.47142  0.07035  1.0000
  H   H172      1.0  0.10979  0.45074  0.03543  1.0000
  C   C190      1.0  0.00727  0.42648  0.23370  1.0000
  C   C191      1.0  0.01187  0.43220  0.26386  1.0000
  C   C192      1.0  0.14088  0.44332  0.08510  1.0000
  H   H173      1.0  0.02467  0.44088  0.27001  1.0000
  C   C193      1.0  0.14891  0.46584  0.04866  1.0000
  H   H174      1.0  0.14114  0.46330  0.02699  1.0000
  C   C194      1.0  0.24325  0.45813  0.48168  1.0000
  H   H175      1.0  0.31389  0.42853  0.26926  1.0000
  H   H176      1.0  0.14677  0.40741  0.08431  1.0000
  H   H177      1.0  0.05461  0.45277  0.29744  1.0000
  H   H178      1.0  0.24273  0.26312  0.24017  1.0000
  H   H179      1.0  0.04705  0.42660  0.26640  1.0000
  C   C195      1.0  0.32653  0.44885  0.19220  1.0000
  C   C196      1.0  0.31030  0.25966  0.00735  1.0000
  H   H180      1.0  0.23492  0.34467  0.33310  1.0000
  H   H181      1.0  0.13667  0.27696  0.41958  1.0000
  H   H182      1.0  0.28252  0.26103  0.17053  1.0000
  C   C197      1.0  0.15631  0.42692  0.05226  1.0000
  S   S72       1.0  0.22642  0.25910  0.36282  1.0000
  S   S73       1.0  0.12845  0.40477  0.49204  1.0000
  C   C198      1.0  0.32676  0.43325  0.19708  1.0000
  N   N14       1.0  0.12464  0.35277  0.44115  1.0000
  C   C199      1.0  0.11367  0.33628  0.44037  1.0000
  C   C200      1.0  0.13139  0.36034  0.41511  1.0000
  C   C201      1.0  0.10879  0.32706  0.41286  1.0000
  C   C202      1.0  0.12649  0.35160  0.38712  1.0000
  C   C203      1.0  0.11501  0.33487  0.38605  1.0000
  H   H183      1.0  0.19600  0.39124  0.01084  1.0000
  C   C204      1.0  0.31210  0.38547  0.49025  1.0000
  H   H184      1.0  0.14044  0.37332  0.41587  1.0000
  H   H185      1.0  0.26175  0.27524  0.26320  1.0000
  C   C205      1.0  0.05199  0.42752  0.28971  1.0000
  H   H186      1.0  0.30138  0.27415  0.07281  1.0000
  C   C206      1.0  0.11331  0.26083  0.39566  1.0000
  S   S74       1.0  0.16278  0.26793  0.39933  1.0000
  H   H187      1.0  0.21989  0.38297  0.02126  1.0000
  N   N15       1.0  0.20562  0.32480  0.38337  1.0000
  C   C207      1.0  0.21524  0.32707  0.35877  1.0000
  C   C208      1.0  0.20764  0.33805  0.40224  1.0000
  C   C209      1.0  0.22698  0.34302  0.35212  1.0000
  C   C210      1.0  0.21930  0.35417  0.39632  1.0000
  C   C211      1.0  0.22898  0.35664  0.37103  1.0000
  C   C212      1.0  0.19386  0.30786  0.39033  1.0000
  H   H188      1.0  0.21427  0.31644  0.34471  1.0000
  H   H189      1.0  0.20052  0.33619  0.42242  1.0000
  H   H190      1.0  0.09962  0.31413  0.41214  1.0000
  N   N16       1.0  0.26277  0.25539  0.23654  1.0000
  Fe  Fe37      1.0  0.06707  0.49177  0.20417  1.0000
  C   C213      1.0  0.32482  0.44152  0.34915  1.0000
  H   H191      1.0  0.14075  0.36059  0.48100  1.0000
  S   S75       1.0  0.26286  0.41451  0.47466  1.0000
  H   H192      1.0  0.13140  0.35783  0.36642  1.0000
  C   C214      1.0  0.31712  0.43395  0.24723  1.0000
  C   C215      1.0  0.15672  0.44226  0.04331  1.0000
  Fe  Fe38      1.0  0.12319  0.42729  0.48328  1.0000
  S   S76       1.0  0.30286  0.45054  0.02803  1.0000
  C   C216      1.0  0.31284  0.26939  0.03385  1.0000
  H   H193      1.0  0.14344  0.47169  0.06508  1.0000
  H   H194      1.0  0.05197  0.40309  0.28836  1.0000
  S   S77       1.0  0.31443  0.42684  0.37708  1.0000
  H   H195      1.0  0.10583  0.26620  0.40694  1.0000
  C   C217      1.0  0.14005  0.42788  0.09449  1.0000
  H   H196      1.0  0.20095  0.30086  0.39979  1.0000
  H   H197      1.0  0.28822  0.36508  0.47723  1.0000
  N   N17       1.0  0.06138  0.41558  0.33137  1.0000
  H   H198      1.0  0.16220  0.42056  0.03886  1.0000
  H   H199      1.0  0.13337  0.37567  0.46709  1.0000
  H   H200      1.0  0.10824  0.33028  0.46096  1.0000
  H   H201      1.0  0.07148  0.32941  0.47988  1.0000
  H   H202      1.0  0.19366  0.39360  0.46373  1.0000
  H   H203      1.0  0.27310  0.25396  0.08635  1.0000
  H   H204      1.0  0.31896  0.38231  0.47309  1.0000
  C   C218      1.0  0.99983  0.42661  0.28610  1.0000
  N   N18       1.0  0.28338  0.25525  0.04314  1.0000
  H   H205      1.0  0.07430  0.39971  0.33011  1.0000
  H   H206      1.0  0.00347  0.43103  0.30941  1.0000
  H   H207      1.0  0.28424  0.48141  0.47174  1.0000
  H   H208      1.0  0.07765  0.49188  0.11773  1.0000
  C   C219      1.0  0.32201  0.45591  0.34444  1.0000
  C   C220      1.0  0.26867  0.26215  0.20946  1.0000
  H   H209      1.0  0.06995  0.40429  0.36737  1.0000
  H   H210      1.0  0.23844  0.36900  0.36676  1.0000
  C   C221      1.0  0.32138  0.43576  0.05962  1.0000
  Fe  Fe39      1.0  0.18420  0.26166  0.38274  1.0000
  H   H211      1.0  0.11069  0.32799  0.36450  1.0000
  H   H212      1.0  0.32265  0.41393  0.22924  1.0000
  H   H213      1.0  0.18640  0.30101  0.36956  1.0000
  H   H214      1.0  0.22127  0.36460  0.41182  1.0000
  H   H215      1.0  0.26605  0.27240  0.20097  1.0000
  H   H216      1.0  0.31997  0.47268  0.07886  1.0000
  C   C222      1.0  0.32352  0.46224  0.07997  1.0000
  H   H217      1.0  0.31329  0.45845  0.35819  1.0000
  C   C223      1.0  0.29917  0.26696  0.05166  1.0000
  C   C224      1.0  0.14083  0.26006  0.38847  1.0000
  C   C225      1.0  0.27798  0.25582  0.19218  1.0000
  C   C226      1.0  0.21573  0.38390  0.99813  1.0000
  H   H218      1.0  0.24761  0.25478  0.27397  1.0000
  H   H219      1.0  0.31624  0.42559  0.04285  1.0000
  H   H220      1.0  0.26460  0.26301  0.05695  1.0000
  H   H221      1.0  0.32254  0.47633  0.18507  1.0000
  H   H222      1.0  0.08201  0.32926  0.99866  1.0000
  H   H223      1.0  0.20917  0.43576  0.00227  1.0000
  H   H224      1.0  0.27067  0.46860  0.44074  1.0000
  C   C227      1.0  0.29490  0.37576  0.49262  1.0000
  Fe  Fe40      1.0  0.04719  0.45433  0.70891  1.0000
  S   S78       1.0  0.06571  0.46755  0.74768  1.0000
  S   S79       1.0  0.01875  0.44579  0.70872  1.0000
  Fe  Fe41      1.0  0.07493  0.46130  0.66344  1.0000
  S   S80       1.0  0.09558  0.47562  0.69891  1.0000
  S   S81       1.0  0.07474  0.45380  0.61328  1.0000
  Fe  Fe42      1.0  0.08139  0.45484  0.72989  1.0000
  S   S82       1.0  0.09662  0.44302  0.75622  1.0000
  H   H225      1.0  0.30980  0.25719  0.52505  1.0000
  S   S83       1.0  0.06174  0.43987  0.69353  1.0000
  S   S84       1.0  0.05899  0.47496  0.67663  1.0000
  Fe  Fe43      1.0  0.04395  0.27752  0.88108  1.0000
  S   S85       1.0  0.05953  0.26917  0.91257  1.0000
  S   S86       1.0  0.04650  0.30424  0.88115  1.0000
  S   S87       1.0  0.08561  0.25531  0.85188  1.0000
  S   S88       1.0  0.04724  0.26393  0.84009  1.0000
  Fe  Fe44      1.0  0.11638  0.39058  0.94815  1.0000
  S   S89       1.0  0.13406  0.41068  0.91942  1.0000
  S   S90       1.0  0.11155  0.36316  0.94201  1.0000
  H   H226      1.0  0.08455  0.28800  0.84611  1.0000
  S   S91       1.0  0.13311  0.43771  0.97157  1.0000
  S   S92       1.0  0.12703  0.44382  0.52606  1.0000
  Fe  Fe45      1.0  0.11742  0.42417  0.92930  1.0000
  S   S93       1.0  0.10657  0.43890  0.89933  1.0000
  Fe  Fe46      1.0  0.14823  0.42245  0.96364  1.0000
  C   C228      1.0  0.31751  0.40366  0.83659  1.0000
  S   S94       1.0  0.09880  0.40311  0.95520  1.0000
  C   C229      1.0  0.23476  0.27612  0.76239  1.0000
  H   H227      1.0  0.21869  0.29676  0.80669  1.0000
  S   S95       1.0  0.22372  0.26620  0.86023  1.0000
  C   C230      1.0  0.28612  0.38031  0.51421  1.0000
  S   S96       1.0  0.18922  0.27187  0.84457  1.0000
  C   C231      1.0  0.01837  0.25858  0.55032  1.0000
  H   H228      1.0  0.30852  0.40970  0.83764  1.0000
  Fe  Fe47      1.0  0.21297  0.28436  0.87439  1.0000
  S   S97       1.0  0.22811  0.31193  0.86619  1.0000
  S   S98       1.0  0.20148  0.27036  0.91579  1.0000
  Fe  Fe48      1.0  0.29825  0.42797  0.91990  1.0000
  S   S99       1.0  0.30137  0.41657  0.96407  1.0000
  H   H229      1.0  0.30477  0.44803  0.84655  1.0000
  Fe  Fe49      1.0  0.26275  0.42507  0.93566  1.0000
  H   H230      1.0  0.30570  0.26807  0.57457  1.0000
  S   S100      1.0  0.23818  0.42541  0.91542  1.0000
  C   C232      1.0  0.24635  0.29213  0.80801  1.0000
  S   S101      1.0  0.29785  0.43865  0.53031  1.0000
  Fe  Fe50      1.0  0.27429  0.39837  0.95504  1.0000
  S   S102      1.0  0.26342  0.37082  0.96563  1.0000
  S   S103      1.0  0.28907  0.44570  0.94223  1.0000
  S   S104      1.0  0.27192  0.40834  0.90955  1.0000
  H   H231      1.0  0.26316  0.43783  0.53893  1.0000
  C   C233      1.0  0.12304  0.48012  0.81740  1.0000
  C   C234      1.0  0.31706  0.44672  0.55330  1.0000
  H   H232      1.0  0.00959  0.46880  0.75153  1.0000
  C   C235      1.0  0.32600  0.48295  0.97532  1.0000
  C   C236      1.0  0.13453  0.25237  0.89098  1.0000
  H   H233      1.0  0.06195  0.33813  0.97059  1.0000
  C   C237      1.0  0.23767  0.32803  0.89438  1.0000
  C   C238      1.0  0.23711  0.32484  0.92533  1.0000
  C   C239      1.0  0.24510  0.33807  0.94689  1.0000
  C   C240      1.0  0.25366  0.35456  0.93773  1.0000
  C   C241      1.0  0.25418  0.35773  0.90678  1.0000
  C   C242      1.0  0.24621  0.34453  0.88525  1.0000
  H   H234      1.0  0.23061  0.31220  0.93264  1.0000
  H   H235      1.0  0.24468  0.33549  0.97078  1.0000
  H   H236      1.0  0.26086  0.37032  0.89939  1.0000
  H   H237      1.0  0.24674  0.34710  0.86137  1.0000
  S   S105      1.0  0.17615  0.43148  0.97953  1.0000
  H   H238      1.0  0.11274  0.34907  0.86557  1.0000
  H   H239      1.0  0.08505  0.33672  0.83647  1.0000
  C   C243      1.0  0.09131  0.39919  0.54394  1.0000
  H   H240      1.0  0.12514  0.30407  0.89288  1.0000
  H   H241      1.0  0.13251  0.46823  0.77052  1.0000
  H   H242      1.0  0.00382  0.40497  0.78951  1.0000
  S   S106      1.0  0.32163  0.43478  0.89166  1.0000
  C   C244      1.0  0.10188  0.41363  0.59238  1.0000
  H   H243      1.0  0.28488  0.26606  0.61216  1.0000
  C   C245      1.0  0.19316  0.42955  0.96123  1.0000
  C   C246      1.0  0.19218  0.42541  0.93029  1.0000
  C   C247      1.0  0.20617  0.42448  0.91666  1.0000
  C   C248      1.0  0.22120  0.42734  0.93380  1.0000
  C   C249      1.0  0.22209  0.43122  0.96485  1.0000
  C   C250      1.0  0.28445  0.39886  0.55440  1.0000
  H   H244      1.0  0.18077  0.42325  0.91674  1.0000
  H   H245      1.0  0.20533  0.42153  0.89262  1.0000
  C   C251      1.0  0.10482  0.40762  0.56471  1.0000
  H   H246      1.0  0.06452  0.39052  0.53480  1.0000
  H   H247      1.0  0.31743  0.41500  0.54486  1.0000
  H   H248      1.0  0.26412  0.26353  0.59965  1.0000
  H   H249      1.0  0.14304  0.25805  0.84588  1.0000
  C   C252      1.0  0.06567  0.30298  0.99341  1.0000
  H   H250      1.0  0.21263  0.25192  0.97606  1.0000
  C   C253      1.0  0.09296  0.34709  0.92604  1.0000
  C   C254      1.0  0.09136  0.33056  0.92746  1.0000
  C   C255      1.0  0.07713  0.31733  0.91400  1.0000
  C   C256      1.0  0.06435  0.32053  0.89895  1.0000
  C   C257      1.0  0.06584  0.33704  0.89783  1.0000
  C   C258      1.0  0.08011  0.35031  0.91135  1.0000
  H   H251      1.0  0.10126  0.32800  0.93884  1.0000
  H   H252      1.0  0.07616  0.30473  0.91508  1.0000
  H   H253      1.0  0.05601  0.33962  0.88622  1.0000
  H   H254      1.0  0.08127  0.36303  0.91008  1.0000
  C   C259      1.0  0.09791  0.44046  0.79593  1.0000
  C   C260      1.0  0.10904  0.43382  0.80773  1.0000
  C   C261      1.0  0.11136  0.43259  0.83928  1.0000
  C   C262      1.0  0.10262  0.43813  0.85940  1.0000
  C   C263      1.0  0.09125  0.44449  0.84755  1.0000
  C   C264      1.0  0.08883  0.44558  0.81600  1.0000
  H   H255      1.0  0.11609  0.42977  0.79240  1.0000
  H   H256      1.0  0.12020  0.42775  0.84804  1.0000
  H   H257      1.0  0.08442  0.44879  0.86293  1.0000
  H   H258      1.0  0.08020  0.45069  0.80727  1.0000
  C   C265      1.0  0.11233  0.44692  0.54949  1.0000
  C   C266      1.0  0.11808  0.45506  0.57811  1.0000
  C   C267      1.0  0.10684  0.45735  0.59792  1.0000
  C   C268      1.0  0.08971  0.45174  0.58914  1.0000
  C   C269      1.0  0.08400  0.44375  0.56040  1.0000
  C   C270      1.0  0.09519  0.44123  0.54077  1.0000
  H   H259      1.0  0.13133  0.45960  0.58502  1.0000
  H   H260      1.0  0.11146  0.46362  0.61983  1.0000
  H   H261      1.0  0.07080  0.43944  0.55328  1.0000
  H   H262      1.0  0.09058  0.43504  0.51881  1.0000
  C   C271      1.0  0.00488  0.42941  0.72982  1.0000
  C   C272      1.0  0.01073  0.42199  0.75273  1.0000
  C   C273      1.0  0.26651  0.25633  0.54317  1.0000
  H   H263      1.0  0.02414  0.42551  0.75655  1.0000
  H   H264      1.0  0.22091  0.36648  0.90989  1.0000
  N   N19       1.0  0.08591  0.41144  0.59906  1.0000
  N   N20       1.0  0.21918  0.38252  0.94465  1.0000
  C   C274      1.0  0.07256  0.40310  0.57888  1.0000
  H   H265      1.0  0.01250  0.28485  0.96612  1.0000
  H   H266      1.0  0.11509  0.48055  0.86288  1.0000
  H   H267      1.0  0.05992  0.40148  0.58407  1.0000
  H   H268      1.0  0.02536  0.26393  0.53053  1.0000
  C   C275      1.0  0.99561  0.26613  0.53114  1.0000
  N   N21       1.0  0.29421  0.39415  0.53284  1.0000
  H   H269      1.0  0.20810  0.28150  0.77723  1.0000
  H   H270      1.0  0.22497  0.27164  0.74427  1.0000
  H   H271      1.0  0.11760  0.41004  0.55893  1.0000
  H   H272      1.0  0.07081  0.30599  0.82703  1.0000
  H   H273      1.0  0.22954  0.38854  0.90140  1.0000
  N   N22       1.0  0.27970  0.26235  0.56442  1.0000
  Fe  Fe51      1.0  0.21027  0.25110  0.89925  1.0000
  C   C276      1.0  0.29757  0.25691  0.52987  1.0000
  C   C277      1.0  0.31624  0.44736  0.58504  1.0000
  H   H274      1.0  0.21916  0.44156  0.49758  1.0000
  S   S107      1.0  0.13134  0.40179  0.99160  1.0000
  C   C278      1.0  0.31106  0.40381  0.53058  1.0000
  H   H275      1.0  0.00092  0.26633  0.50862  1.0000
  C   C279      1.0  0.19717  0.38962  0.96242  1.0000
  N   N23       1.0  0.23407  0.28656  0.78505  1.0000
  C   C280      1.0  0.22798  0.37938  0.91942  1.0000
  C   C281      1.0  0.00109  0.46071  0.76750  1.0000
  H   H276      1.0  0.11697  0.29106  0.85898  1.0000
  H   H277      1.0  0.04695  0.27803  0.98409  1.0000
  C   C282      1.0  0.22031  0.29210  0.78405  1.0000
  H   H278      1.0  0.25433  0.25611  0.54813  1.0000
  H   H279      1.0  0.12589  0.33071  0.88476  1.0000
  C   C283      1.0  0.12103  0.24974  0.90972  1.0000
  H   H280      1.0  0.20219  0.38822  0.91557  1.0000
  H   H281      1.0  0.09345  0.39464  0.52222  1.0000
  H   H282      1.0  0.23192  0.42869  0.53516  1.0000
  C   C284      1.0  0.27757  0.26909  0.59370  1.0000
  H   H283      1.0  0.08114  0.40778  0.64573  1.0000
  C   C285      1.0  0.13107  0.47990  0.76495  1.0000
  H   H284      1.0  0.27701  0.38806  0.56808  1.0000
  H   H285      1.0  0.26859  0.29048  0.82844  1.0000
  C   C286      1.0  0.99622  0.44247  0.80964  1.0000
  C   C287      1.0  0.11439  0.48431  0.83971  1.0000
  H   H286      1.0  0.30406  0.44300  0.59487  1.0000
  H   H287      1.0  0.24084  0.38085  0.92699  1.0000
  H   H288      1.0  0.31021  0.38998  0.83325  1.0000
  N   N24       1.0  0.12166  0.48414  0.78789  1.0000
  C   C288      1.0  0.25925  0.28650  0.80956  1.0000
  C   C289      1.0  0.05014  0.29122  0.98121  1.0000
  C   C290      1.0  0.23278  0.44579  0.50020  1.0000
  C   C291      1.0  0.13284  0.25605  0.86063  1.0000
  H   H289      1.0  0.03737  0.25079  0.56820  1.0000
  C   C292      1.0  0.32027  0.39959  0.50936  1.0000
  Fe  Fe52      1.0  0.06143  0.25402  0.87262  1.0000
  N   N25       1.0  0.03920  0.29626  0.96564  1.0000
  H   H290      1.0  0.14370  0.49027  0.76332  1.0000
  H   H291      1.0  0.09379  0.42915  0.63640  1.0000
  H   H292      1.0  0.31335  0.47727  0.98494  1.0000
  S   S108      1.0  0.01915  0.25681  0.89116  1.0000
  H   H293      1.0  0.22287  0.30223  0.76777  1.0000
  C   C293      1.0  0.08299  0.41737  0.62856  1.0000
  H   H294      1.0  0.31392  0.46126  0.79729  1.0000
  H   H295      1.0  0.07173  0.42036  0.62716  1.0000
  H   H296      1.0  0.11127  0.49624  0.75670  1.0000
  C   C294      1.0  0.20584  0.38666  0.93872  1.0000
  H   H297      1.0  0.03475  0.31683  0.94898  1.0000
  C   C295      1.0  0.29516  0.26298  0.55790  1.0000
  C   C296      1.0  0.11778  0.25684  0.84917  1.0000
  C   C297      1.0  0.32229  0.45747  0.81095  1.0000
  C   C298      1.0  0.10425  0.25410  0.86785  1.0000
  H   H298      1.0  0.27574  0.40320  0.54181  1.0000
  H   H299      1.0  0.02183  0.27096  0.95484  1.0000
  H   H300      1.0  0.10443  0.28737  0.89168  1.0000
  H   H301      1.0  0.23353  0.43346  0.97836  1.0000
  H   H302      1.0  0.24596  0.30058  0.82580  1.0000
  C   C299      1.0  0.00735  0.45377  0.79051  1.0000
  C   C300      1.0  0.26847  0.25018  0.51487  1.0000
  H   H303      1.0  0.11253  0.42054  0.60805  1.0000
  C   C301      1.0  0.20821  0.43247  0.97836  1.0000
  H   H304      1.0  0.28099  0.45929  0.50520  1.0000
  C   C302      1.0  0.07505  0.39689  0.55101  1.0000
  N   N26       1.0  0.00268  0.25829  0.55356  1.0000
  H   H305      1.0  0.18690  0.39337  0.95764  1.0000
  Fe  Fe53      1.0  0.17824  0.25657  0.88481  1.0000
  C   C303      1.0  0.11358  0.29725  0.87809  1.0000
  C   C304      1.0  0.05859  0.32497  0.97416  1.0000
  C   C305      1.0  0.28407  0.25036  0.50834  1.0000
  C   C306      1.0  0.20231  0.38846  0.99230  1.0000
  H   H306      1.0  0.02072  0.45656  0.79254  1.0000
  Fe  Fe54      1.0  0.29107  0.43333  0.98594  1.0000
  N   N27       1.0  0.10602  0.30828  0.86634  1.0000
  C   C307      1.0  0.09087  0.30142  0.85007  1.0000
  C   C308      1.0  0.11401  0.32521  0.87148  1.0000
  C   C309      1.0  0.08317  0.31153  0.83884  1.0000
  C   C310      1.0  0.10671  0.33571  0.86043  1.0000
  C   C311      1.0  0.09117  0.32879  0.84411  1.0000
  Fe  Fe55      1.0  0.07844  0.48753  0.71437  1.0000
  C   C312      1.0  0.24754  0.27034  0.76310  1.0000
  H   H307      1.0  0.26941  0.27062  0.78827  1.0000
  S   S109      1.0  0.26409  0.41420  0.98073  1.0000
  C   C313      1.0  0.02523  0.25111  0.57158  1.0000
  C   C314      1.0  0.25974  0.27542  0.78705  1.0000
  C   C315      1.0  0.99920  0.41038  0.77138  1.0000
  H   H308      1.0  0.13042  0.47314  0.82371  1.0000
  H   H309      1.0  0.31377  0.42041  0.78862  1.0000
  C   C316      1.0  0.23993  0.43848  0.52106  1.0000
  H   H310      1.0  0.99833  0.27910  0.53882  1.0000
  C   C317      1.0  0.06988  0.31996  0.98986  1.0000
  H   H311      1.0  0.23434  0.37720  0.97855  1.0000
  H   H312      1.0  0.24762  0.26150  0.74571  1.0000
  H   H313      1.0  0.00087  0.43642  0.82670  1.0000
  C   C318      1.0  0.25740  0.44357  0.52316  1.0000
  C   C319      1.0  0.31707  0.44999  0.83894  1.0000
  H   H314      1.0  0.02096  0.28623  0.92901  1.0000
  C   C320      1.0  0.04324  0.31287  0.96200  1.0000
  H   H315      1.0  0.29272  0.40923  0.57026  1.0000
  C   C321      1.0  0.02282  0.28396  0.95333  1.0000
  Fe  Fe56      1.0  0.19944  0.25279  0.83285  1.0000
  H   H316      1.0  0.12413  0.47735  0.74242  1.0000
  C   C322      1.0  0.22394  0.38077  0.97386  1.0000
  H   H317      1.0  0.27268  0.37290  0.51550  1.0000
  H   H318      1.0  0.11661  0.25949  0.82556  1.0000
  H   H319      1.0  0.28203  0.28284  0.59299  1.0000
  C   C323      1.0  0.10434  0.49272  0.83168  1.0000
  C   C324      1.0  0.11216  0.49274  0.77995  1.0000
  H   H320      1.0  0.09733  0.49578  0.84865  1.0000
  C   C325      1.0  0.26747  0.45580  0.50402  1.0000
  C   C326      1.0  0.32174  0.25059  0.60400  1.0000
  C   C327      1.0  0.10326  0.49705  0.80165  1.0000
  H   H321      1.0  0.17132  0.25163  0.96911  1.0000
  C   C328      1.0  0.10602  0.25069  0.89832  1.0000
  H   H322      1.0  0.32421  0.48422  0.95056  1.0000
  S   S110      1.0  0.15297  0.25056  0.90645  1.0000
  C   C329      1.0  0.32513  0.41816  0.78873  1.0000
  H   H323      1.0  0.32099  0.26098  0.99411  1.0000
  H   H324      1.0  0.32460  0.40640  0.85901  1.0000
  S   S111      1.0  0.06028  0.51368  0.19256  1.0000
  Fe  Fe57      1.0  0.13127  0.71432  0.42370  1.0000
  S   S112      1.0  0.10805  0.70621  0.45060  1.0000
  S   S113      1.0  0.13465  0.70152  0.38053  1.0000
  C   C330      1.0  0.04040  0.53630  0.24355  1.0000
  C   C331      1.0  0.09178  0.67993  0.20915  1.0000
  H   H325      1.0  0.09234  0.53432  0.22619  1.0000
  S   S114      1.0  0.13057  0.69254  0.02707  1.0000
  Fe  Fe58      1.0  0.11563  0.73372  0.45933  1.0000
  C   C332      1.0  0.06493  0.55452  0.27409  1.0000
  N   N28       1.0  0.08969  0.68307  0.17936  1.0000
  H   H326      1.0  0.06915  0.58046  0.27547  1.0000
  Fe  Fe59      1.0  0.08592  0.61025  0.20977  1.0000
  S   S115      1.0  0.06792  0.60714  0.16983  1.0000
  S   S116      1.0  0.09875  0.59247  0.21782  1.0000
  Fe  Fe60      1.0  0.07892  0.63838  0.23960  1.0000
  S   S117      1.0  0.05984  0.63640  0.20182  1.0000
  S   S118      1.0  0.07982  0.65639  0.27837  1.0000
  Fe  Fe61      1.0  0.05057  0.60866  0.20490  1.0000
  S   S119      1.0  0.02393  0.58820  0.20107  1.0000
  Fe  Fe62      1.0  0.07890  0.63533  0.16971  1.0000
  S   S120      1.0  0.08004  0.65101  0.12770  1.0000
  S   S121      1.0  0.06809  0.61056  0.24479  1.0000
  S   S122      1.0  0.09852  0.63861  0.20755  1.0000
  C   C333      1.0  0.06092  0.56794  0.26713  1.0000
  C   C334      1.0  0.00907  0.58560  0.22871  1.0000
  C   C335      1.0  0.01199  0.59752  0.25206  1.0000
  C   C336      1.0  0.14857  0.67465  0.42640  1.0000
  C   C337      1.0  0.12110  0.68616  0.20251  1.0000
  H   H327      1.0  0.02381  0.60850  0.25401  1.0000
  H   H328      1.0  0.01523  0.53423  0.20762  1.0000
  C   C338      1.0  0.11634  0.68123  0.05507  1.0000
  C   C339      1.0  0.12163  0.67254  0.07683  1.0000
  C   C340      1.0  0.11078  0.66319  0.09910  1.0000
  C   C341      1.0  0.09434  0.66224  0.09978  1.0000
  C   C342      1.0  0.08909  0.67102  0.07817  1.0000
  C   C343      1.0  0.09998  0.68047  0.05606  1.0000
  H   H329      1.0  0.13422  0.67299  0.07635  1.0000
  H   H330      1.0  0.11509  0.65660  0.11553  1.0000
  H   H331      1.0  0.07644  0.67045  0.07839  1.0000
  H   H332      1.0  0.09565  0.68702  0.03956  1.0000
  C   C344      1.0  0.11921  0.68917  0.35222  1.0000
  C   C345      1.0  0.12392  0.68072  0.32958  1.0000
  C   C346      1.0  0.11201  0.67031  0.30724  1.0000
  C   C347      1.0  0.09526  0.66851  0.30690  1.0000
  C   C348      1.0  0.09057  0.67697  0.32953  1.0000
  C   C349      1.0  0.10241  0.68713  0.35221  1.0000
  H   H333      1.0  0.13689  0.68219  0.32940  1.0000
  H   H334      1.0  0.11582  0.66384  0.29012  1.0000
  H   H335      1.0  0.07766  0.67569  0.32949  1.0000
  H   H336      1.0  0.09857  0.69349  0.36949  1.0000
  C   C350      1.0  0.07162  0.53553  0.19943  1.0000
  C   C351      1.0  0.06479  0.54626  0.18730  1.0000
  C   C352      1.0  0.07291  0.56366  0.19287  1.0000
  C   C353      1.0  0.08815  0.57059  0.21028  1.0000
  C   C354      1.0  0.09518  0.55989  0.22192  1.0000
  C   C355      1.0  0.08691  0.54242  0.21675  1.0000
  H   H337      1.0  0.05300  0.54109  0.17379  1.0000
  H   H338      1.0  0.06739  0.57172  0.18362  1.0000
  H   H339      1.0  0.10699  0.56514  0.23536  1.0000
  H   H340      1.0  0.12931  0.69305  0.15734  1.0000
  H   H341      1.0  0.07612  0.53372  0.12378  1.0000
  Fe  Fe63      1.0  0.15297  0.74168  0.47110  1.0000
  H   H342      1.0  0.01530  0.73939  0.44202  1.0000
  H   H343      1.0  0.06303  0.66977  0.17534  1.0000
  H   H344      1.0  0.07077  0.69234  0.17458  1.0000
  C   C356      1.0  0.12159  0.66073  0.39714  1.0000
  C   C357      1.0  0.10396  0.66401  0.44571  1.0000
  H   H345      1.0  0.13326  0.68704  0.21144  1.0000
  H   H346      1.0  0.08120  0.67598  0.22375  1.0000
  C   C358      1.0  0.07488  0.50317  0.11764  1.0000
  H   H347      1.0  0.09731  0.66565  0.46486  1.0000
  H   H348      1.0  0.02640  0.55539  0.19633  1.0000
  N   N29       1.0  0.03664  0.54958  0.23666  1.0000
  H   H349      1.0  0.01319  0.55112  0.22818  1.0000
  H   H350      1.0  0.10363  0.50444  0.14464  1.0000
  C   C359      1.0  0.07308  0.68137  0.16731  1.0000
  H   H351      1.0  0.12827  0.67536  0.46933  1.0000
  H   H352      1.0  0.12636  0.52882  0.17089  1.0000
  H   H353      1.0  0.12845  0.66001  0.37766  1.0000
  C   C360      1.0  0.10750  0.68148  0.22118  1.0000
  H   H354      1.0  0.10149  0.69078  0.13755  1.0000
  C   C361      1.0  0.04658  0.56521  0.24841  1.0000
  C   C362      1.0  0.10260  0.51633  0.14524  1.0000
  H   H355      1.0  0.09744  0.65014  0.37207  1.0000
  S   S123      1.0  0.14824  0.71452  0.46406  1.0000
  S   S124      1.0  0.09862  0.74724  0.46534  1.0000
  H   H356      1.0  0.03284  0.52397  0.23361  1.0000
  C   C363      1.0  0.05455  0.53856  0.26245  1.0000
  C   C364      1.0  0.08738  0.53273  0.13323  1.0000
  Fe  Fe64      1.0  0.12516  0.70771  0.49160  1.0000
  H   H357      1.0  0.04356  0.57568  0.24276  1.0000
  H   H358      1.0  0.07630  0.55658  0.28780  1.0000
  H   H359      1.0  0.08166  0.65302  0.41582  1.0000
  C   C365      1.0  0.02211  0.54735  0.21619  1.0000
  H   H360      1.0  0.10900  0.67878  0.24472  1.0000
  S   S125      1.0  0.13753  0.74191  0.42911  1.0000
  C   C366      1.0  0.11892  0.68958  0.17227  1.0000
  C   C367      1.0  0.10310  0.68822  0.16115  1.0000
  H   H361      1.0  0.05784  0.52812  0.26690  1.0000
  C   C368      1.0  0.11433  0.54547  0.16109  1.0000
  C   C369      1.0  0.11556  0.53013  0.16001  1.0000
  H   H362      1.0  0.07204  0.68015  0.14211  1.0000
  N   N30       1.0  0.13008  0.66779  0.42407  1.0000
  N   N31       1.0  0.08869  0.51775  0.13226  1.0000
  C   C370      1.0  0.09521  0.65691  0.41828  1.0000
  H   H363      1.0  0.15342  0.67512  0.45026  1.0000
  C   C371      1.0  0.10404  0.65517  0.39382  1.0000
  C   C372      1.0  0.12151  0.66950  0.44816  1.0000
  C   C373      1.0  0.99944  0.59537  0.27270  1.0000
  H   H364      1.0  0.12410  0.55621  0.17298  1.0000
  C   C374      1.0  0.10023  0.54684  0.14741  1.0000
  H   H365      1.0  0.15331  0.66694  0.41276  1.0000
  H   H366      1.0  0.09893  0.55861  0.14886  1.0000
  H   H367      1.0  0.00170  0.60471  0.29057  1.0000
  H   H368      1.0  0.15378  0.68757  0.41796  1.0000
  H   H369      1.0  0.09526  0.73922  0.40032  1.0000
  S   S126      1.0  0.13174  0.73645  0.99756  1.0000
  H   H370      1.0  0.07262  0.50566  0.09368  1.0000
  C   C375      1.0  0.08970  0.74797  0.40465  1.0000
  H   H371      1.0  0.06317  0.50024  0.12993  1.0000
  H   H372      1.0  0.08217  0.74876  0.35768  1.0000
  H   H373      1.0  0.03994  0.73621  0.99498  1.0000
  S   S127      1.0  0.08547  0.51338  0.73680  1.0000
  Fe  Fe65      1.0  0.13119  0.71436  0.92098  1.0000
  S   S128      1.0  0.10953  0.70408  0.95170  1.0000
  S   S129      1.0  0.13375  0.70406  0.87463  1.0000
  C   C376      1.0  0.04781  0.72773  0.95491  1.0000
  H   H374      1.0  0.05314  0.73599  0.86673  1.0000
  H   H375      1.0  0.08948  0.52618  0.67521  1.0000
  S   S130      1.0  0.11550  0.68409  0.52024  1.0000
  Fe  Fe66      1.0  0.11332  0.73101  0.95742  1.0000
  C   C377      1.0  0.04790  0.54820  0.67434  1.0000
  S   S131      1.0  0.15131  0.71914  0.95848  1.0000
  Fe  Fe67      1.0  0.15189  0.74498  0.96342  1.0000
  Fe  Fe68      1.0  0.08343  0.60346  0.70210  1.0000
  S   S132      1.0  0.06966  0.61343  0.66876  1.0000
  S   S133      1.0  0.08815  0.58154  0.68238  1.0000
  Fe  Fe69      1.0  0.08480  0.62886  0.75214  1.0000
  S   S134      1.0  0.07108  0.64010  0.72209  1.0000
  S   S135      1.0  0.08919  0.63581  0.80294  1.0000
  Fe  Fe70      1.0  0.05406  0.61366  0.70787  1.0000
  S   S136      1.0  0.02567  0.60482  0.69920  1.0000
  Fe  Fe71      1.0  0.08795  0.63908  0.68529  1.0000
  S   S137      1.0  0.09973  0.66309  0.65825  1.0000
  S   S138      1.0  0.06656  0.60218  0.73993  1.0000
  S   S139      1.0  0.10290  0.62931  0.71659  1.0000
  H   H376      1.0  0.12815  0.66649  0.95441  1.0000
  C   C378      1.0  0.01124  0.59175  0.72472  1.0000
  C   C379      1.0  0.01680  0.58726  0.75193  1.0000
  H   H377      1.0  0.03188  0.51062  0.69188  1.0000
  H   H378      1.0  0.12478  0.63761  0.83246  1.0000
  H   H379      1.0  0.03016  0.59197  0.75796  1.0000
  S   S140      1.0  0.09292  0.74061  0.96084  1.0000
  C   C380      1.0  0.11153  0.67863  0.55894  1.0000
  C   C381      1.0  0.10414  0.66160  0.56598  1.0000
  C   C382      1.0  0.10072  0.65657  0.59614  1.0000
  C   C383      1.0  0.10472  0.66852  0.61987  1.0000
  C   C384      1.0  0.11215  0.68554  0.61284  1.0000
  C   C385      1.0  0.11547  0.69057  0.58266  1.0000
  H   H380      1.0  0.10109  0.65220  0.54795  1.0000
  H   H381      1.0  0.09503  0.64344  0.60102  1.0000
  H   H382      1.0  0.11544  0.69495  0.63091  1.0000
  H   H383      1.0  0.12125  0.70370  0.57782  1.0000
  C   C386      1.0  0.11919  0.68640  0.85302  1.0000
  C   C387      1.0  0.10502  0.67431  0.86556  1.0000
  C   C388      1.0  0.09532  0.65925  0.84914  1.0000
  C   C389      1.0  0.09946  0.65622  0.81987  1.0000
  C   C390      1.0  0.11307  0.66869  0.80672  1.0000
  C   C391      1.0  0.12294  0.68363  0.82332  1.0000
  H   H384      1.0  0.10192  0.67627  0.88830  1.0000
  H   H385      1.0  0.08483  0.64967  0.85952  1.0000
  H   H386      1.0  0.11651  0.66651  0.78435  1.0000
  H   H387      1.0  0.13385  0.69290  0.81338  1.0000
  C   C392      1.0  0.08600  0.53213  0.72109  1.0000
  C   C393      1.0  0.08448  0.54431  0.74034  1.0000
  C   C394      1.0  0.08497  0.55943  0.72897  1.0000
  C   C395      1.0  0.08742  0.56275  0.69826  1.0000
  C   C396      1.0  0.08898  0.55058  0.67905  1.0000
  C   C397      1.0  0.08813  0.53532  0.69029  1.0000
  H   H388      1.0  0.08293  0.54205  0.76425  1.0000
  H   H389      1.0  0.08375  0.56864  0.74404  1.0000
  H   H390      1.0  0.09095  0.55303  0.65527  1.0000
  H   H391      1.0  0.12688  0.68223  0.92986  1.0000
  C   C398      1.0  0.14064  0.66023  0.85776  1.0000
  N   N32       1.0  0.06496  0.66928  0.64234  1.0000
  C   C399      1.0  0.06381  0.65949  0.61722  1.0000
  C   C400      1.0  0.05596  0.66245  0.66703  1.0000
  C   C401      1.0  0.05346  0.64237  0.61645  1.0000
  C   C402      1.0  0.04521  0.64547  0.66675  1.0000
  C   C403      1.0  0.04406  0.63537  0.64137  1.0000
  C   C404      1.0  0.07638  0.68706  0.64364  1.0000
  H   H392      1.0  0.07132  0.66477  0.59797  1.0000
  H   H393      1.0  0.05731  0.67008  0.68732  1.0000
  H   H394      1.0  0.05301  0.63457  0.59690  1.0000
  H   H395      1.0  0.03818  0.64005  0.68646  1.0000
  H   H396      1.0  0.03612  0.62208  0.64136  1.0000
  H   H397      1.0  0.08720  0.68922  0.66006  1.0000
  H   H398      1.0  0.08162  0.69139  0.62129  1.0000
  H   H399      1.0  0.06968  0.69474  0.65089  1.0000
  H   H400      1.0  0.10944  0.64366  0.92107  1.0000
  H   H401      1.0  0.10506  0.62672  0.87351  1.0000
  C   C405      1.0  0.04548  0.56298  0.67428  1.0000
  H   H402      1.0  0.14700  0.68207  0.94067  1.0000
  C   C406      1.0  0.04024  0.73653  0.97048  1.0000
  C   C407      1.0  0.04415  0.52146  0.69659  1.0000
  C   C408      1.0  0.13354  0.67403  0.93443  1.0000
  C   C409      1.0  0.04838  0.72854  0.92335  1.0000
  Fe  Fe72      1.0  0.12957  0.71027  0.98978  1.0000
  H   H403      1.0  0.05516  0.54602  0.65677  1.0000
  C   C410      1.0  0.00504  0.57682  0.77168  1.0000
  C   C411      1.0  0.11853  0.64819  0.90374  1.0000
  S   S141      1.0  0.13120  0.73477  0.50192  1.0000
  N   N33       1.0  0.13185  0.66348  0.90738  1.0000
  C   C412      1.0  0.12715  0.64461  0.85391  1.0000
  H   H404      1.0  0.14887  0.66544  0.83935  1.0000
  C   C413      1.0  0.14277  0.66959  0.88474  1.0000
  H   H405      1.0  0.05094  0.57208  0.65712  1.0000
  H   H406      1.0  0.02825  0.53138  0.73717  1.0000
  C   C414      1.0  0.11603  0.63850  0.87703  1.0000
  C   C415      1.0  0.03411  0.74650  0.92285  1.0000
  H   H407      1.0  0.15271  0.68213  0.88685  1.0000
  H   H408      1.0  0.03472  0.57768  0.69738  1.0000
  H   H409      1.0  0.05284  0.52122  0.67906  1.0000
  H   H410      1.0  0.00948  0.57353  0.79279  1.0000
  H   H411      1.0  0.03061  0.73039  0.86345  1.0000
  C   C416      1.0  0.03027  0.55477  0.71980  1.0000
  N   N34       1.0  0.04178  0.53705  0.69678  1.0000
  H   H412      1.0  0.10301  0.74411  0.89851  1.0000
  C   C417      1.0  0.04277  0.73906  0.87478  1.0000
  C   C418      1.0  0.03305  0.54017  0.71933  1.0000
  H   H413      1.0  0.05474  0.72204  0.91161  1.0000
  N   N35       1.0  0.04185  0.73809  0.90781  1.0000
  S   S142      1.0  0.13334  0.74079  0.92387  1.0000
  C   C419      1.0  0.03657  0.56621  0.69710  1.0000
  H   H414      1.0  0.04983  0.52001  0.71881  1.0000
  C   C420      1.0  0.03327  0.74592  0.95437  1.0000
  H   H415      1.0  0.09553  0.50363  0.79504  1.0000
  H   H416      1.0  0.02339  0.55730  0.73771  1.0000
  H   H417      1.0  0.05373  0.72076  0.96723  1.0000
  H   H418      1.0  0.00730  0.74051  0.49490  1.0000
  H   H419      1.0  0.29707  0.86972  0.35451  1.0000
  Fe  Fe73      1.0  0.05791  0.79245  0.36343  1.0000
  S   S143      1.0  0.06982  0.81421  0.39654  1.0000
  S   S144      1.0  0.06558  0.77111  0.35550  1.0000
  Fe  Fe74      1.0  0.03268  0.80503  0.33557  1.0000
  S   S145      1.0  0.04283  0.82820  0.36651  1.0000
  S   S146      1.0  0.00835  0.79606  0.30504  1.0000
  Fe  Fe75      1.0  0.06903  0.83014  0.35741  1.0000
  S   S147      1.0  0.09263  0.85170  0.34067  1.0000
  Fe  Fe76      1.0  0.04296  0.81074  0.40359  1.0000
  S   S148      1.0  0.03465  0.81241  0.45159  1.0000
  S   S149      1.0  0.05856  0.80820  0.32363  1.0000
  S   S150      1.0  0.03134  0.78769  0.37348  1.0000
  Fe  Fe77      1.0  0.17353  0.94078  0.37172  1.0000
  S   S151      1.0  0.18584  0.93668  0.33059  1.0000
  S   S152      1.0  0.14686  0.92421  0.38584  1.0000
  Fe  Fe78      1.0  0.20419  0.97374  0.39072  1.0000
  S   S153      1.0  0.21861  0.97150  0.35099  1.0000
  C   C421      1.0  0.08234  0.76502  0.43967  1.0000
  Fe  Fe79      1.0  0.19448  0.96426  0.32280  1.0000
  S   S154      1.0  0.19059  0.97494  0.27734  1.0000
  Fe  Fe80      1.0  0.20903  0.94437  0.36222  1.0000
  S   S155      1.0  0.22658  0.93126  0.35918  1.0000
  S   S156      1.0  0.18038  0.96791  0.36186  1.0000
  S   S157      1.0  0.19641  0.94704  0.40403  1.0000
  Fe  Fe81      1.0  0.25937  0.84951  0.45129  1.0000
  C   C422      1.0  0.99707  0.81694  0.01556  1.0000
  S   S158      1.0  0.23842  0.82500  0.43156  1.0000
  Fe  Fe82      1.0  0.29279  0.87839  0.43469  1.0000
  S   S159      1.0  0.29336  0.89394  0.47630  1.0000
  S   S160      1.0  0.31644  0.89058  0.40760  1.0000
  C   C423      1.0  0.21930  0.80747  0.47920  1.0000
  S   S161      1.0  0.29926  0.86371  0.03432  1.0000
  Fe  Fe83      1.0  0.26561  0.88572  0.46530  1.0000
  S   S162      1.0  0.25145  0.90206  0.47233  1.0000
  S   S163      1.0  0.28694  0.85491  0.46073  1.0000
  S   S164      1.0  0.26543  0.87200  0.42198  1.0000
  C   C424      1.0  0.23337  0.92330  0.39099  1.0000
  C   C425      1.0  0.24470  0.91586  0.38714  1.0000
  C   C426      1.0  0.25045  0.90941  0.41194  1.0000
  C   C427      1.0  0.24501  0.91050  0.44085  1.0000
  C   C428      1.0  0.23378  0.91806  0.44480  1.0000
  C   C429      1.0  0.22786  0.92433  0.41991  1.0000
  H   H420      1.0  0.24906  0.91507  0.36483  1.0000
  H   H421      1.0  0.25916  0.90366  0.40868  1.0000
  H   H422      1.0  0.22942  0.91881  0.46711  1.0000
  H   H423      1.0  0.21900  0.92988  0.42310  1.0000
  H   H424      1.0  0.31767  0.94175  0.19748  1.0000
  H   H425      1.0  0.01639  0.79175  0.11164  1.0000
  H   H426      1.0  0.01429  0.75057  0.19339  1.0000
  C   C430      1.0  0.31760  0.92064  0.17193  1.0000
  C   C431      1.0  0.01318  0.79079  0.21406  1.0000
  H   H427      1.0  0.03878  0.76381  0.42198  1.0000
  C   C432      1.0  0.02279  0.80187  0.06728  1.0000
  C   C433      1.0  0.32127  0.89571  0.05562  1.0000
  C   C434      1.0  0.31425  0.87858  0.06066  1.0000
  N   N36       1.0  0.25155  0.97562  0.43801  1.0000
  C   C435      1.0  0.03143  0.76666  0.29365  1.0000
  H   H428      1.0  0.21420  0.88114  0.48029  1.0000
  H   H429      1.0  0.04398  0.77449  0.28510  1.0000
  C   C436      1.0  0.10849  0.87086  0.35627  1.0000
  C   C437      1.0  0.10616  0.87905  0.38191  1.0000
  C   C438      1.0  0.11838  0.89506  0.39137  1.0000
  C   C439      1.0  0.13319  0.90303  0.37565  1.0000
  C   C440      1.0  0.13583  0.89457  0.35071  1.0000
  C   C441      1.0  0.12348  0.87870  0.34093  1.0000
  H   H430      1.0  0.09472  0.87329  0.39391  1.0000
  H   H431      1.0  0.11615  0.90145  0.41068  1.0000
  H   H432      1.0  0.14712  0.90048  0.33835  1.0000
  H   H433      1.0  0.12546  0.87249  0.32111  1.0000
  C   C442      1.0  0.19416  0.78088  0.47192  1.0000
  H   H434      1.0  0.31759  0.90026  0.03515  1.0000
  H   H435      1.0  0.25372  0.97701  0.38986  1.0000
  C   C443      1.0  0.22140  0.80832  0.44795  1.0000
  C   C444      1.0  0.20965  0.79545  0.42878  1.0000
  C   C445      1.0  0.19611  0.78187  0.44060  1.0000
  H   H436      1.0  0.16429  0.78275  0.45206  1.0000
  C   C446      1.0  0.32070  0.88991  0.36863  1.0000
  H   H437      1.0  0.21115  0.79586  0.40459  1.0000
  H   H438      1.0  0.18738  0.77201  0.42552  1.0000
  H   H439      1.0  0.30484  0.87140  0.18043  1.0000
  H   H440      1.0  0.22336  0.84741  0.44609  1.0000
  C   C447      1.0  0.22254  0.85390  0.39958  1.0000
  C   C448      1.0  0.07517  0.76484  0.38593  1.0000
  C   C449      1.0  0.07548  0.77086  0.41549  1.0000
  C   C450      1.0  0.25343  0.99181  0.44130  1.0000
  C   C451      1.0  0.31163  0.87897  0.20105  1.0000
  H   H441      1.0  0.03018  0.80053  0.25387  1.0000
  H   H442      1.0  0.07034  0.77993  0.41966  1.0000
  H   H443      1.0  0.32086  0.92718  0.15090  1.0000
  C   C452      1.0  0.01669  0.79752  0.46839  1.0000
  H   H444      1.0  0.22820  0.81715  0.49435  1.0000
  C   C453      1.0  0.25291  0.97354  0.49217  1.0000
  H   H445      1.0  0.26614  0.83491  0.04047  1.0000
  H   H446      1.0  0.02815  0.77491  0.30890  1.0000
  C   C454      1.0  0.21314  0.86847  0.47367  1.0000
  N   N37       1.0  0.21515  0.86707  0.44113  1.0000
  C   C455      1.0  0.00427  0.79205  0.26520  1.0000
  C   C456      1.0  0.08952  0.75360  0.43433  1.0000
  H   H447      1.0  0.99829  0.75617  0.29754  1.0000
  C   C457      1.0  0.01716  0.79501  0.24526  1.0000
  C   C458      1.0  0.20583  0.79383  0.49103  1.0000
  C   C459      1.0  0.20591  0.98848  0.25311  1.0000
  C   C460      1.0  0.04401  0.77821  0.46405  1.0000
  C   C461      1.0  0.15217  0.78624  0.41113  1.0000
  C   C462      1.0  0.12523  0.78740  0.41683  1.0000
  C   C463      1.0  0.13793  0.78775  0.39830  1.0000
  C   C464      1.0  0.27104  0.82283  0.00168  1.0000
  C   C465      1.0  0.00954  0.77465  0.99884  1.0000
  H   H448      1.0  0.02537  0.81198  0.02288  1.0000
  H   H449      1.0  0.16214  0.78643  0.39703  1.0000
  H   H450      1.0  0.31743  0.89798  0.15305  1.0000
  H   H451      1.0  0.13666  0.78907  0.37405  1.0000
  C   C466      1.0  0.15331  0.78409  0.44233  1.0000
  N   N38       1.0  0.14053  0.78317  0.46016  1.0000
  H   H452      1.0  0.11401  0.78838  0.40708  1.0000
  N   N39       1.0  0.12316  0.92038  0.31306  1.0000
  C   C467      1.0  0.12555  0.91074  0.29071  1.0000
  C   C468      1.0  0.13453  0.93655  0.31847  1.0000
  C   C469      1.0  0.13980  0.91719  0.27343  1.0000
  C   C470      1.0  0.14876  0.94347  0.30127  1.0000
  C   C471      1.0  0.15143  0.93370  0.27872  1.0000
  C   C472      1.0  0.10788  0.91368  0.33026  1.0000
  H   H453      1.0  0.11658  0.89787  0.28659  1.0000
  H   H454      1.0  0.13280  0.94409  0.33654  1.0000
  H   H455      1.0  0.14184  0.90943  0.25614  1.0000
  H   H456      1.0  0.15777  0.95630  0.30552  1.0000
  H   H457      1.0  0.16259  0.93895  0.26561  1.0000
  H   H458      1.0  0.10275  0.89983  0.33104  1.0000
  H   H459      1.0  0.11072  0.91850  0.35421  1.0000
  H   H460      1.0  0.09806  0.91722  0.31980  1.0000
  H   H461      1.0  0.11677  0.78463  0.46217  1.0000
  C   C473      1.0  0.02299  0.75787  0.24020  1.0000
  H   H462      1.0  0.22102  0.86354  0.35550  1.0000
  C   C474      1.0  0.01753  0.80846  0.04224  1.0000
  C   C475      1.0  0.22046  0.85543  0.43053  1.0000
  H   H463      1.0  0.22709  0.84486  0.39144  1.0000
  C   C476      1.0  0.26116  0.82420  0.02466  1.0000
  C   C477      1.0  0.01263  0.79700  0.09203  1.0000
  H   H464      1.0  0.02326  0.79310  0.19889  1.0000
  H   H465      1.0  0.23531  0.96010  0.40259  1.0000
  C   C478      1.0  0.24485  0.81192  0.02685  1.0000
  H   H466      1.0  0.24932  0.95351  0.46031  1.0000
  H   H467      1.0  0.25567  0.95932  0.40620  1.0000
  H   H468      1.0  0.21066  0.88417  0.37499  1.0000
  H   H469      1.0  0.20874  0.97651  0.46897  1.0000
  N   N40       1.0  0.31233  0.89590  0.19992  1.0000
  C   C479      1.0  0.31071  0.90382  0.22572  1.0000
  C   C480      1.0  0.31574  0.90409  0.17329  1.0000
  C   C481      1.0  0.31236  0.92034  0.22515  1.0000
  C   C482      1.0  0.23869  0.79833  0.00603  1.0000
  H   H470      1.0  0.03262  0.75657  0.30708  1.0000
  C   C483      1.0  0.31588  0.92879  0.19806  1.0000
  C   C484      1.0  0.99461  0.77094  0.01420  1.0000
  N   N41       1.0  0.01847  0.75958  0.26891  1.0000
  C   C485      1.0  0.30924  0.87836  0.34749  1.0000
  H   H471      1.0  0.22777  0.99023  0.28016  1.0000
  C   C486      1.0  0.08233  0.75342  0.38055  1.0000
  C   C487      1.0  0.21113  0.87691  0.42141  1.0000
  C   C488      1.0  0.21477  0.98931  0.47755  1.0000
  C   C489      1.0  0.99629  0.78339  0.20243  1.0000
  H   H472      1.0  0.20673  0.88601  0.42971  1.0000
  C   C490      1.0  0.21323  0.87585  0.39035  1.0000
  C   C491      1.0  0.03535  0.76408  0.44527  1.0000
  C   C492      1.0  0.31949  0.84405  0.46064  1.0000
  C   C493      1.0  0.22327  0.99443  0.26014  1.0000
  H   H473      1.0  0.23696  0.81301  0.04435  1.0000
  C   C494      1.0  0.24897  0.96768  0.40771  1.0000
  C   C495      1.0  0.20042  0.99401  0.22667  1.0000
  H   H474      1.0  0.30475  0.86871  0.30116  1.0000
  C   C496      1.0  0.31364  0.87783  0.31720  1.0000
  C   C497      1.0  0.21908  0.86433  0.37945  1.0000
  H   H475      1.0  0.00780  0.78060  0.42953  1.0000
  H   H476      1.0  0.31144  0.92667  0.24581  1.0000
  H   H477      1.0  0.08227  0.76950  0.46257  1.0000
  S   S165      1.0  0.25815  0.86309  0.49387  1.0000
  C   C498      1.0  0.12683  0.78524  0.44795  1.0000
  H   H478      1.0  0.30507  0.87239  0.22115  1.0000
  C   C499      1.0  0.31926  0.87296  0.08750  1.0000
  C   C500      1.0  0.25115  0.96644  0.46295  1.0000
  H   H479      1.0  0.31265  0.83189  0.44947  1.0000
  S   S166      1.0  0.17733  0.76404  0.48842  1.0000
  C   C501      1.0  0.01070  0.75129  0.21639  1.0000
  H   H480      1.0  0.31396  0.85973  0.09161  1.0000
  N   N42       1.0  0.00240  0.80982  0.04168  1.0000
  H   H481      1.0  0.00352  0.81597  0.99491  1.0000
  H   H482      1.0  0.01958  0.77196  0.00929  1.0000
  H   H483      1.0  0.03456  0.80038  0.06730  1.0000
  C   C502      1.0  0.02215  0.75040  0.45650  1.0000
  C   C503      1.0  0.00576  0.78281  0.45286  1.0000
  H   H484      1.0  0.30858  0.89754  0.24711  1.0000
  H   H485      1.0  0.20073  0.85895  0.47984  1.0000
  H   H486      1.0  0.22339  0.86673  0.48709  1.0000
  H   H487      1.0  0.19000  0.98904  0.00749  1.0000
  H   H488      1.0  0.32468  0.87963  0.20281  1.0000
  H   H489      1.0  0.05397  0.78914  0.45534  1.0000
  C   C504      1.0  0.99743  0.79877  0.09146  1.0000
  C   C505      1.0  0.31973  0.84547  0.49229  1.0000
  H   H490      1.0  0.22592  0.78893  0.00768  1.0000
  C   C506      1.0  0.14163  0.78043  0.49269  1.0000
  C   C507      1.0  0.00183  0.75442  0.27491  1.0000
  H   H491      1.0  0.18705  0.98948  0.22083  1.0000
  N   N43       1.0  0.32718  0.85788  0.44392  1.0000
  H   H492      1.0  0.31312  0.85512  0.40231  1.0000
  C   C508      1.0  0.20284  0.99561  0.00091  1.0000
  H   H493      1.0  0.28370  0.83239  0.99971  1.0000
  H   H494      1.0  0.03618  0.76199  0.23542  1.0000
  H   H495      1.0  0.99989  0.83025  0.02056  1.0000
  C   C509      1.0  0.01773  0.75110  0.48642  1.0000
  C   C510      1.0  0.32578  0.85619  0.41072  1.0000
  C   C511      1.0  0.03934  0.77845  0.49389  1.0000
  S   S167      1.0  0.21710  0.99863  0.41732  1.0000
  H   H496      1.0  0.25290  0.99886  0.42163  1.0000
  H   H497      1.0  0.18205  0.88903  0.84447  1.0000
  Fe  Fe84      1.0  0.06281  0.79429  0.86100  1.0000
  S   S168      1.0  0.06774  0.81130  0.90187  1.0000
  S   S169      1.0  0.07960  0.78090  0.85267  1.0000
  Fe  Fe85      1.0  0.03179  0.79953  0.83791  1.0000
  S   S170      1.0  0.03455  0.81700  0.87799  1.0000
  S   S171      1.0  0.00793  0.79161  0.80623  1.0000
  Fe  Fe86      1.0  0.06253  0.82839  0.86965  1.0000
  S   S172      1.0  0.07695  0.85695  0.87041  1.0000
  Fe  Fe87      1.0  0.03959  0.79843  0.90682  1.0000
  S   S173      1.0  0.03139  0.78776  0.95347  1.0000
  S   S174      1.0  0.05929  0.81207  0.82790  1.0000
  S   S175      1.0  0.03518  0.78036  0.86751  1.0000
  Fe  Fe88      1.0  0.17431  0.93145  0.86463  1.0000
  S   S176      1.0  0.19360  0.94006  0.82894  1.0000
  S   S177      1.0  0.15597  0.90357  0.86093  1.0000
  Fe  Fe89      1.0  0.19470  0.96367  0.90434  1.0000
  S   S178      1.0  0.21552  0.97389  0.87188  1.0000
  H   H498      1.0  0.30205  0.90701  0.59475  1.0000
  Fe  Fe90      1.0  0.19462  0.96592  0.83521  1.0000
  S   S179      1.0  0.19279  0.98276  0.79688  1.0000
  Fe  Fe91      1.0  0.21294  0.94726  0.86794  1.0000
  S   S180      1.0  0.23368  0.93823  0.86324  1.0000
  S   S181      1.0  0.17359  0.95683  0.86804  1.0000
  S   S182      1.0  0.19392  0.93776  0.90327  1.0000
  Fe  Fe92      1.0  0.26102  0.84680  0.93968  1.0000
  C   C512      1.0  0.20023  0.88008  0.94295  1.0000
  S   S183      1.0  0.24314  0.82017  0.92353  1.0000
  Fe  Fe93      1.0  0.29166  0.87864  0.92244  1.0000
  S   S184      1.0  0.29162  0.89188  0.96674  1.0000
  S   S185      1.0  0.31065  0.89659  0.89087  1.0000
  H   H499      1.0  0.10173  0.80038  0.94159  1.0000
  S   S186      1.0  0.29685  0.86845  0.54922  1.0000
  Fe  Fe94      1.0  0.26350  0.88115  0.95805  1.0000
  S   S187      1.0  0.24832  0.89622  0.96707  1.0000
  S   S188      1.0  0.28938  0.85510  0.94566  1.0000
  S   S189      1.0  0.26354  0.86932  0.91286  1.0000
  C   C513      1.0  0.23652  0.92568  0.89174  1.0000
  C   C514      1.0  0.23194  0.92683  0.92133  1.0000
  C   C515      1.0  0.23559  0.91768  0.94420  1.0000
  C   C516      1.0  0.24379  0.90731  0.93765  1.0000
  C   C517      1.0  0.24811  0.90593  0.90793  1.0000
  C   C518      1.0  0.24441  0.91505  0.88504  1.0000
  H   H500      1.0  0.22599  0.93510  0.92681  1.0000
  H   H501      1.0  0.23216  0.91875  0.96714  1.0000
  H   H502      1.0  0.25439  0.89795  0.90260  1.0000
  H   H503      1.0  0.24796  0.91409  0.86215  1.0000
  N   N44       1.0  0.20825  0.99202  0.66017  1.0000
  C   C519      1.0  0.11110  0.80562  0.92406  1.0000
  H   H504      1.0  0.27198  0.80852  0.96260  1.0000
  C   C520      1.0  0.18970  0.88842  0.93881  1.0000
  C   C521      1.0  0.20761  0.99119  0.97321  1.0000
  C   C522      1.0  0.18756  0.89394  0.91004  1.0000
  H   H505      1.0  0.99830  0.79031  0.53694  1.0000
  C   C523      1.0  0.22426  0.99692  0.77128  1.0000
  S   S190      1.0  0.19194  0.97589  0.94865  1.0000
  H   H506      1.0  0.14167  0.77851  0.96760  1.0000
  C   C524      1.0  0.28689  0.93774  0.86319  1.0000
  H   H507      1.0  0.02894  0.79715  0.75342  1.0000
  C   C525      1.0  0.01581  0.79147  0.74552  1.0000
  C   C526      1.0  0.09903  0.86967  0.86820  1.0000
  C   C527      1.0  0.10491  0.88718  0.87105  1.0000
  C   C528      1.0  0.12221  0.89777  0.86909  1.0000
  C   C529      1.0  0.13392  0.89098  0.86406  1.0000
  C   C530      1.0  0.12804  0.87347  0.86120  1.0000
  C   C531      1.0  0.11076  0.86289  0.86329  1.0000
  H   H508      1.0  0.09601  0.89263  0.87484  1.0000
  H   H509      1.0  0.12644  0.91116  0.87134  1.0000
  H   H510      1.0  0.13691  0.86802  0.85719  1.0000
  H   H511      1.0  0.10651  0.84949  0.86090  1.0000
  C   C532      1.0  0.19184  0.78484  0.95912  1.0000
  C   C533      1.0  0.19786  0.78062  0.93286  1.0000
  C   C534      1.0  0.21324  0.79185  0.92164  1.0000
  C   C535      1.0  0.22283  0.80742  0.93646  1.0000
  C   C536      1.0  0.21657  0.81182  0.96225  1.0000
  H   H512      1.0  0.24462  0.78711  0.93827  1.0000
  H   H513      1.0  0.28702  0.93831  0.83869  1.0000
  C   C537      1.0  0.12883  0.79562  0.89536  1.0000
  C   C538      1.0  0.14055  0.78853  0.89382  1.0000
  C   C539      1.0  0.31762  0.87831  0.60133  1.0000
  H   H514      1.0  0.04594  0.78966  0.50803  1.0000
  H   H515      1.0  0.21664  0.87089  0.92142  1.0000
  C   C540      1.0  0.21820  0.99285  0.50901  1.0000
  C   C541      1.0  0.08353  0.77003  0.88302  1.0000
  C   C542      1.0  0.07757  0.77081  0.91162  1.0000
  C   C543      1.0  0.08110  0.76224  0.93565  1.0000
  H   H516      1.0  0.20484  0.90003  0.84248  1.0000
  C   C544      1.0  0.01379  0.80017  0.49873  1.0000
  H   H517      1.0  0.07027  0.77804  0.91528  1.0000
  H   H518      1.0  0.25233  0.96616  0.51189  1.0000
  C   C545      1.0  0.01173  0.78215  0.97048  1.0000
  N   N45       1.0  0.12210  0.79672  0.92229  1.0000
  H   H519      1.0  0.21788  0.78832  0.90158  1.0000
  H   H520      1.0  0.29822  0.91920  0.92152  1.0000
  C   C546      1.0  0.09021  0.75251  0.93103  1.0000
  H   H521      1.0  0.19080  0.76862  0.92141  1.0000
  C   C547      1.0  0.24203  0.78282  0.96184  1.0000
  H   H522      1.0  0.01365  0.83462  0.82192  1.0000
  Fe  Fe95      1.0  0.28757  0.86794  0.98930  1.0000
  C   C548      1.0  0.00029  0.78816  0.51353  1.0000
  C   C549      1.0  0.32100  0.89400  0.85844  1.0000
  C   C550      1.0  0.20820  0.87711  0.91827  1.0000
  H   H523      1.0  0.99952  0.81626  0.74407  1.0000
  H   H524      1.0  0.17449  0.99796  0.95573  1.0000
  H   H525      1.0  0.00005  0.79117  0.93538  1.0000
  H   H526      1.0  0.04367  0.84854  0.84037  1.0000
  C   C551      1.0  0.00151  0.82358  0.76576  1.0000
  C   C552      1.0  0.31888  0.87831  0.84689  1.0000
  C   C553      1.0  0.22821  0.98289  0.68394  1.0000
  C   C554      1.0  0.05304  0.84597  0.79719  1.0000
  H   H527      1.0  0.12926  0.77129  0.50006  1.0000
  N   N46       1.0  0.01930  0.83080  0.77670  1.0000
  C   C555      1.0  0.02345  0.83636  0.80628  1.0000
  C   C556      1.0  0.03166  0.83267  0.75712  1.0000
  C   C557      1.0  0.04036  0.84413  0.81689  1.0000
  H   H528      1.0  0.06620  0.85175  0.80541  1.0000
  C   C558      1.0  0.21815  0.99727  0.63596  1.0000
  C   C559      1.0  0.19390  0.89788  0.85654  1.0000
  H   H529      1.0  0.14581  0.78757  0.87243  1.0000
  H   H530      1.0  0.20520  0.98056  0.70315  1.0000
  H   H531      1.0  0.27391  0.93591  0.96712  1.0000
  H   H532      1.0  0.32581  0.86482  0.81269  1.0000
  H   H533      1.0  0.02742  0.75294  0.96616  1.0000
  H   H534      1.0  0.10381  0.80450  0.90216  1.0000
  C   C560      1.0  0.09620  0.75177  0.90245  1.0000
  H   H535      1.0  0.12506  0.80015  0.87484  1.0000
  C   C561      1.0  0.28508  0.93433  0.95886  1.0000
  S   S191      1.0  0.17305  0.77095  0.97556  1.0000
  C   C562      1.0  0.20594  0.88300  0.88990  1.0000
  C   C563      1.0  0.27974  0.94664  0.87961  1.0000
  N   N47       1.0  0.28562  0.93543  0.92581  1.0000
  H   H536      1.0  0.18613  0.99041  0.68207  1.0000
  N   N48       1.0  0.19600  0.89160  0.88627  1.0000
  H   H537      1.0  0.07645  0.76288  0.95773  1.0000
  C   C564      1.0  0.31451  0.91529  0.63900  1.0000
  H   H538      1.0  0.09749  0.75987  0.85640  1.0000
  H   H539      1.0  0.21258  0.88106  0.87105  1.0000
  H   H540      1.0  0.17961  0.99310  0.84890  1.0000
  H   H541      1.0  0.29918  0.92083  0.86594  1.0000
  H   H542      1.0  0.21468  0.98266  0.52442  1.0000
  C   C565      1.0  0.29363  0.92788  0.87842  1.0000
  H   H543      1.0  0.27323  0.95196  0.92358  1.0000
  C   C566      1.0  0.00326  0.78668  0.76658  1.0000
  C   C567      1.0  0.01133  0.78948  0.71409  1.0000
  H   H544      1.0  0.29678  0.94398  0.96993  1.0000
  H   H545      1.0  0.19314  0.91012  0.85916  1.0000
  C   C568      1.0  0.14544  0.78267  0.92007  1.0000
  H   H546      1.0  0.31059  0.86717  0.85767  1.0000
  C   C569      1.0  0.31282  0.91630  0.60764  1.0000
  H   H547      1.0  0.11878  0.81906  0.92963  1.0000
  H   H548      1.0  0.30774  0.86792  0.61140  1.0000
  H   H549      1.0  0.31320  0.83458  0.50549  1.0000
  C   C570      1.0  0.04870  0.84012  0.76713  1.0000
  H   H550      1.0  0.16679  0.99392  0.89752  1.0000
  H   H551      1.0  0.12096  0.79116  0.96926  1.0000
  C   C571      1.0  0.12650  0.79059  0.94799  1.0000
  C   C572      1.0  0.13820  0.78345  0.94726  1.0000
  H   H552      1.0  0.22374  0.82372  0.97393  1.0000
  H   H553      1.0  0.23222  0.97772  0.70332  1.0000
  H   H554      1.0  0.05847  0.84129  0.75176  1.0000
  H   H555      1.0  0.00775  0.75854  0.53797  1.0000
  C   C573      1.0  0.23345  0.99564  0.63532  1.0000
  C   C574      1.0  0.25518  0.99015  0.49573  1.0000
  H   H556      1.0  0.27399  0.95395  0.86794  1.0000
  C   C575      1.0  0.20124  0.80057  0.97352  1.0000
  H   H557      1.0  0.30501  0.90527  0.65065  1.0000
  C   C576      1.0  0.21292  0.98459  0.68372  1.0000
  H   H558      1.0  0.25616  0.99577  0.51821  1.0000
  H   H559      1.0  0.20452  0.79325  0.51528  1.0000
  H   H560      1.0  0.18338  0.89078  0.95778  1.0000
  H   H561      1.0  0.15471  0.77734  0.91939  1.0000
  H   H562      1.0  0.02818  0.75946  0.55074  1.0000
  C   C577      1.0  0.27927  0.94539  0.91113  1.0000
  H   H563      1.0  0.20245  0.87615  0.96528  1.0000
  H   H564      1.0  0.15094  0.77508  0.49827  1.0000
  C   C578      1.0  0.31556  0.88165  0.57069  1.0000
  H   H565      1.0  0.17926  0.90031  0.90690  1.0000
  N   N49       1.0  0.02620  0.76507  0.50459  1.0000
  N   N50       1.0  0.24842  0.79721  0.98332  1.0000
  C   C579      1.0  0.29298  0.92695  0.90995  1.0000
  C   C580      1.0  0.02163  0.76535  0.53609  1.0000
  H   H566      1.0  0.02114  0.79368  0.69804  1.0000
  H   H567      1.0  0.22812  0.77577  0.96247  1.0000
  H   H568      1.0  0.02875  0.75395  0.91065  1.0000
  H   H569      1.0  0.02837  0.82814  0.73372  1.0000
  H   H570      1.0  0.02218  0.81152  0.51096  1.0000
  H   H571      1.0  0.28375  0.92181  0.96606  1.0000
  H   H572      1.0  0.22812  0.99654  0.94385  1.0000
  S   S192      1.0  0.25918  0.85816  0.98433  1.0000
  C   C581      1.0  0.23860  0.98861  0.65968  1.0000
  C   C582      1.0  0.09291  0.76057  0.87854  1.0000
  H   H573      1.0  0.22838  0.98993  0.78718  1.0000
  C   C583      1.0  0.19271  0.99469  0.66076  1.0000
  H   H574      1.0  0.25072  0.98784  0.65996  1.0000
  H   H575      1.0  0.18395  0.98784  0.64129  1.0000
  H   H576      1.0  0.02504  0.77833  0.54479  1.0000
  C   C584      1.0  0.20772  0.99571  0.77144  1.0000
  H   H577      1.0  0.99705  0.83360  0.76229  1.0000
  C   C585      1.0  0.26440  0.80923  0.98096  1.0000
  C   C586      1.0  0.99861  0.78551  0.95725  1.0000
  H   H578      1.0  0.32450  0.92934  0.56826  1.0000
  C   C587      1.0  0.32545  0.92885  0.59276  1.0000
  H   H579      1.0  0.04564  0.75197  0.86758  1.0000
  H   H580      1.0  0.24818  0.77427  0.96712  1.0000
  H   H581      1.0  0.14541  0.79238  0.50582  1.0000
  Fe  Fe96      1.0  0.28618  0.87032  0.50158  1.0000
  H   H582      1.0  0.19670  0.80403  0.99377  1.0000
  H   H583      1.0  0.32703  0.89795  0.53465  1.0000
  C   C588      1.0  0.99429  0.78220  0.70320  1.0000
  S   S193      1.0  0.64955  0.08982  0.21131  1.0000
  Fe  Fe97      1.0  0.63052  0.08804  0.24714  1.0000
  S   S194      1.0  0.63424  0.07743  0.29207  1.0000
  H   H584      1.0  0.40007  0.12777  0.15262  1.0000
  Fe  Fe98      1.0  0.59598  0.08719  0.26411  1.0000
  S   S195      1.0  0.59796  0.07718  0.30963  1.0000
  S   S196      1.0  0.57064  0.08597  0.24452  1.0000
  Fe  Fe99      1.0  0.62528  0.09558  0.31302  1.0000
  S   S197      1.0  0.63462  0.10939  0.35947  1.0000
  Fe  Fe100     1.0  0.60683  0.05995  0.28529  1.0000
  S   S198      1.0  0.59421  0.03292  0.29868  1.0000
  S   S199      1.0  0.62280  0.10724  0.26846  1.0000
  S   S200      1.0  0.60367  0.06897  0.23947  1.0000
  Fe  Fe101     1.0  0.48508  0.08903  0.29154  1.0000
  S   S201      1.0  0.47081  0.06985  0.32457  1.0000
  S   S202      1.0  0.51345  0.10388  0.29972  1.0000
  Fe  Fe102     1.0  0.45331  0.08282  0.25177  1.0000
  S   S203      1.0  0.43680  0.06302  0.28214  1.0000
  S   S204      1.0  0.44061  0.08441  0.20633  1.0000
  Fe  Fe103     1.0  0.45131  0.08055  0.32126  1.0000
  S   S205      1.0  0.43665  0.07916  0.36392  1.0000
  Fe  Fe104     1.0  0.45732  0.05390  0.28343  1.0000
  S   S206      1.0  0.45453  0.02712  0.28053  1.0000
  S   S207      1.0  0.46653  0.10120  0.29072  1.0000
  S   S208      1.0  0.47299  0.07236  0.25058  1.0000
  Fe  Fe105     1.0  0.40083  0.15455  0.04529  1.0000
  H   H585      1.0  0.53002  0.00497  0.26782  1.0000
  S   S209      1.0  0.39116  0.17504  0.04026  1.0000
  Fe  Fe106     1.0  0.42011  0.13744  0.08105  1.0000
  S   S210      1.0  0.41098  0.11498  0.04903  1.0000
  S   S211      1.0  0.43676  0.14185  0.12447  1.0000
  H   H586      1.0  0.60470  0.07562  0.39116  1.0000
  S   S212      1.0  0.43016  0.13451  0.45187  1.0000
  Fe  Fe107     1.0  0.38573  0.11649  0.05092  1.0000
  S   S213      1.0  0.36209  0.09273  0.05613  1.0000
  S   S214      1.0  0.42709  0.15593  0.04356  1.0000
  S   S215      1.0  0.39457  0.13778  0.08517  1.0000
  C   C589      1.0  0.34532  0.09316  0.07675  1.0000
  C   C590      1.0  0.34491  0.10824  0.08613  1.0000
  H   H587      1.0  0.35526  0.11994  0.08166  1.0000
  C   C591      1.0  0.44139  0.10088  0.18291  1.0000
  C   C592      1.0  0.43267  0.09675  0.15434  1.0000
  C   C593      1.0  0.43154  0.10919  0.13583  1.0000
  C   C594      1.0  0.43921  0.12595  0.14567  1.0000
  C   C595      1.0  0.44841  0.13015  0.17384  1.0000
  C   C596      1.0  0.44947  0.11767  0.19247  1.0000
  H   H588      1.0  0.42645  0.08379  0.14670  1.0000
  H   H589      1.0  0.42459  0.10580  0.11409  1.0000
  H   H590      1.0  0.45439  0.14310  0.18160  1.0000
  H   H591      1.0  0.45611  0.12102  0.21448  1.0000
  C   C597      1.0  0.43081  0.11884  0.42656  1.0000
  C   C598      1.0  0.42257  0.10180  0.43197  1.0000
  C   C599      1.0  0.42421  0.08987  0.41215  1.0000
  C   C600      1.0  0.43408  0.09477  0.38667  1.0000
  C   C601      1.0  0.44220  0.11180  0.38111  1.0000
  C   C602      1.0  0.44060  0.12373  0.40100  1.0000
  H   H592      1.0  0.41500  0.09784  0.45150  1.0000
  H   H593      1.0  0.41785  0.07675  0.41669  1.0000
  H   H594      1.0  0.44985  0.11580  0.36169  1.0000
  H   H595      1.0  0.44702  0.13687  0.39659  1.0000
  C   C603      1.0  0.42091  0.01388  0.26112  1.0000
  C   C604      1.0  0.43554  0.01111  0.26571  1.0000
  C   C605      1.0  0.63795  0.05758  0.38281  1.0000
  H   H596      1.0  0.42143  0.02629  0.26443  1.0000
  H   H597      1.0  0.64801  0.12109  0.19164  1.0000
  C   C606      1.0  0.55472  0.08915  0.26415  1.0000
  C   C607      1.0  0.55868  0.10191  0.28634  1.0000
  C   C608      1.0  0.54583  0.10585  0.29785  1.0000
  C   C609      1.0  0.52883  0.09689  0.28784  1.0000
  C   C610      1.0  0.52478  0.08365  0.26662  1.0000
  C   C611      1.0  0.53768  0.07999  0.25454  1.0000
  H   H598      1.0  0.57173  0.10922  0.29367  1.0000
  H   H599      1.0  0.54913  0.11615  0.31416  1.0000
  H   H600      1.0  0.51179  0.07668  0.25858  1.0000
  H   H601      1.0  0.53446  0.07020  0.23719  1.0000
  N   N51       1.0  0.50261  0.10807  0.20729  1.0000
  C   C612      1.0  0.40758  0.23696  0.11383  1.0000
  C   C613      1.0  0.58867  0.01653  0.27111  1.0000
  C   C614      1.0  0.59581  0.01914  0.24288  1.0000
  H   H602      1.0  0.65728  0.08674  0.43867  1.0000
  H   H603      1.0  0.50055  0.08962  0.17354  1.0000
  H   H604      1.0  0.60504  0.03139  0.23766  1.0000
  C   C615      1.0  0.52549  0.10086  0.19493  1.0000
  H   H605      1.0  0.44821  0.08181  0.47711  1.0000
  C   C616      1.0  0.64154  0.09002  0.10279  1.0000
  C   C617      1.0  0.51291  0.11961  0.22862  1.0000
  H   H606      1.0  0.62135  0.04188  0.34626  1.0000
  C   C618      1.0  0.57678  0.00054  0.27766  1.0000
  H   H607      1.0  0.65741  0.13695  0.04527  1.0000
  H   H608      1.0  0.64437  0.12366  0.41983  1.0000
  C   C619      1.0  0.62326  0.05138  0.36380  1.0000
  C   C620      1.0  0.41814  0.23250  0.03953  1.0000
  C   C621      1.0  0.40063  0.22426  0.03466  1.0000
  H   H609      1.0  0.40749  0.22622  0.10126  1.0000
  C   C622      1.0  0.40195  0.19717  0.04150  1.0000
  C   C623      1.0  0.41944  0.20542  0.04701  1.0000
  C   C624      1.0  0.42748  0.22299  0.04587  1.0000
  H   H610      1.0  0.33202  0.06635  0.07562  1.0000
  H   H611      1.0  0.65447  0.06536  0.44137  1.0000
  H   H612      1.0  0.42678  0.19825  0.05169  1.0000
  H   H613      1.0  0.44103  0.22924  0.04986  1.0000
  C   C625      1.0  0.65301  0.11321  0.38326  1.0000
  N   N52       1.0  0.54887  0.01324  0.23526  1.0000
  C   C626      1.0  0.33086  0.10821  0.10074  1.0000
  C   C627      1.0  0.61378  0.07016  0.38921  1.0000
  C   C628      1.0  0.48520  0.10624  0.20149  1.0000
  C   C629      1.0  0.55457  0.00937  0.20911  1.0000
  H   H614      1.0  0.41041  0.04602  0.33847  1.0000
  N   N53       1.0  0.64830  0.09929  0.07559  1.0000
  C   C630      1.0  0.40540  0.00039  0.25361  1.0000
  H   H615      1.0  0.47092  0.13324  0.45630  1.0000
  H   H616      1.0  0.33059  0.11995  0.10771  1.0000
  C   C631      1.0  0.52977  0.12208  0.23355  1.0000
  C   C632      1.0  0.41228  0.03454  0.33724  1.0000
  C   C633      1.0  0.65437  0.12038  0.41256  1.0000
  N   N54       1.0  0.39163  0.10138  0.15549  1.0000
  C   C634      1.0  0.39988  0.11753  0.16626  1.0000
  C   C635      1.0  0.39240  0.08855  0.17175  1.0000
  Fe  Fe108     1.0  0.41593  0.13328  0.01146  1.0000
  C   C636      1.0  0.40128  0.09172  0.19998  1.0000
  H   H617      1.0  0.43862  0.04659  0.35141  1.0000
  C   C637      1.0  0.38289  0.09798  0.12542  1.0000
  H   H618      1.0  0.39403  0.00252  0.25105  1.0000
  H   H619      1.0  0.38651  0.07582  0.16263  1.0000
  C   C638      1.0  0.42817  0.03489  0.34453  1.0000
  H   H620      1.0  0.45865  0.09057  0.42701  1.0000
  H   H621      1.0  0.59705  0.00781  0.19993  1.0000
  H   H622      1.0  0.44312  0.02064  0.34711  1.0000
  H   H623      1.0  0.37320  0.08493  0.12258  1.0000
  C   C639      1.0  0.66047  0.11638  0.02323  1.0000
  H   H624      1.0  0.64633  0.12149  0.09126  1.0000
  H   H625      1.0  0.64983  0.08407  0.11161  1.0000
  S   S216      1.0  0.38994  0.13302  0.01103  1.0000
  C   C640      1.0  0.39262  0.20672  0.03556  1.0000
  H   H626      1.0  0.56589  0.01832  0.19962  1.0000
  C   C641      1.0  0.50871  0.09881  0.19039  1.0000
  H   H627      1.0  0.37907  0.20049  0.03135  1.0000
  H   H628      1.0  0.33318  0.09380  0.00790  1.0000
  H   H629      1.0  0.41576  0.13401  0.20243  1.0000
  H   H630      1.0  0.65197  0.07906  0.05487  1.0000
  C   C642      1.0  0.53607  0.11261  0.21661  1.0000
  C   C643      1.0  0.65578  0.12407  0.04675  1.0000
  H   H631      1.0  0.53767  0.13068  0.25145  1.0000
  C   C644      1.0  0.43057  0.02013  0.34232  1.0000
  H   H632      1.0  0.46925  0.11216  0.41952  1.0000
  H   H633      1.0  0.41690  0.11078  0.23274  1.0000
  C   C645      1.0  0.59131  0.00576  0.22158  1.0000
  C   C646      1.0  0.33173  0.07806  0.08262  1.0000
  N   N55       1.0  0.46040  0.10712  0.46423  1.0000
  C   C647      1.0  0.40881  0.12114  0.19446  1.0000
  C   C648      1.0  0.65675  0.11853  0.17797  1.0000
  N   N56       1.0  0.64038  0.06966  0.40467  1.0000
  H   H634      1.0  0.62864  0.08026  0.09756  1.0000
  C   C649      1.0  0.62854  0.07598  0.40800  1.0000
  C   C650      1.0  0.55765  0.02986  0.24999  1.0000
  C   C651      1.0  0.39319  0.23598  0.12790  1.0000
  H   H635      1.0  0.64739  0.05267  0.37993  1.0000
  H   H636      1.0  0.39325  0.23140  0.02988  1.0000
  H   H637      1.0  0.63058  0.08585  0.42477  1.0000
  C   C652      1.0  0.65902  0.10008  0.02611  1.0000
  H   H638      1.0  0.37619  0.10622  0.12158  1.0000
  C   C653      1.0  0.65548  0.07527  0.42528  1.0000
  H   H639      1.0  0.59961  0.05291  0.35274  1.0000
  C   C654      1.0  0.46392  0.12346  0.47137  1.0000
  C   C655      1.0  0.45106  0.09477  0.48282  1.0000
  H   H640      1.0  0.55087  0.03785  0.24437  1.0000
  H   H641      1.0  0.57081  0.03623  0.24280  1.0000
  H   H642      1.0  0.39212  0.10015  0.10762  1.0000
  H   H643      1.0  0.38662  0.01910  0.32181  1.0000
  H   H644      1.0  0.40244  0.08162  0.21235  1.0000
  C   C656      1.0  0.39897  0.01946  0.32799  1.0000
  C   C657      1.0  0.40947  0.10813  0.21139  1.0000
  H   H645      1.0  0.55867  0.02893  0.27501  1.0000
  H   H646      1.0  0.54894  0.11393  0.22112  1.0000
  C   C658      1.0  0.64953  0.11524  0.07281  1.0000
  H   H647      1.0  0.64092  0.09833  0.12150  1.0000
  N   N57       1.0  0.41746  0.00540  0.33324  1.0000
  H   H648      1.0  0.48479  0.11544  0.18487  1.0000
  H   H649      1.0  0.50802  0.12668  0.24259  1.0000
  H   H650      1.0  0.47684  0.09348  0.19241  1.0000
  H   H651      1.0  0.47971  0.10814  0.22271  1.0000
  H   H652      1.0  0.53021  0.09317  0.18223  1.0000
  H   H653      1.0  0.38182  0.22447  0.12625  1.0000
  C   C659      1.0  0.53465  0.00183  0.24731  1.0000
  C   C660      1.0  0.61107  0.05764  0.36729  1.0000
  H   H654      1.0  0.47970  0.10248  0.44365  1.0000
  C   C661      1.0  0.46739  0.10288  0.43739  1.0000
  H   H655      1.0  0.43302  0.22003  0.49033  1.0000
  C   C662      1.0  0.65990  0.10439  0.18332  1.0000
  C   C663      1.0  0.65290  0.09167  0.05263  1.0000
  C   C664      1.0  0.40176  0.00488  0.32637  1.0000
  S   S217      1.0  0.42924  0.13561  0.96690  1.0000
  Fe  Fe109     1.0  0.62857  0.10070  0.73484  1.0000
  S   S218      1.0  0.64026  0.09085  0.77198  1.0000
  S   S219      1.0  0.64008  0.11557  0.69300  1.0000
  Fe  Fe110     1.0  0.59460  0.08994  0.76664  1.0000
  S   S220      1.0  0.60410  0.07961  0.80599  1.0000
  S   S221      1.0  0.56680  0.08450  0.75572  1.0000
  Fe  Fe111     1.0  0.62868  0.10244  0.80482  1.0000
  S   S222      1.0  0.64295  0.12019  0.84539  1.0000
  Fe  Fe112     1.0  0.61482  0.06867  0.77053  1.0000
  S   S223      1.0  0.61114  0.04166  0.77520  1.0000
  S   S224      1.0  0.61828  0.11367  0.76760  1.0000
  S   S225      1.0  0.60415  0.07772  0.73130  1.0000
  Fe  Fe113     1.0  0.48267  0.09263  0.79972  1.0000
  S   S226      1.0  0.46545  0.07095  0.82520  1.0000
  S   S227      1.0  0.51103  0.10460  0.81213  1.0000
  Fe  Fe114     1.0  0.45286  0.09451  0.76247  1.0000
  S   S228      1.0  0.43355  0.07250  0.78515  1.0000
  S   S229      1.0  0.44684  0.11214  0.73140  1.0000
  Fe  Fe115     1.0  0.44840  0.08439  0.82888  1.0000
  S   S230      1.0  0.43448  0.08176  0.87281  1.0000
  Fe  Fe116     1.0  0.45202  0.06083  0.77991  1.0000
  S   S231      1.0  0.44839  0.03412  0.76963  1.0000
  S   S232      1.0  0.46667  0.10700  0.80668  1.0000
  S   S233      1.0  0.47036  0.08196  0.75398  1.0000
  Fe  Fe117     1.0  0.40803  0.15200  0.54471  1.0000
  C   C665      1.0  0.36274  0.07448  0.57320  1.0000
  S   S234      1.0  0.40868  0.17640  0.56522  1.0000
  Fe  Fe118     1.0  0.41511  0.12144  0.56167  1.0000
  S   S235      1.0  0.40213  0.10750  0.51818  1.0000
  S   S236      1.0  0.42505  0.10560  0.59025  1.0000
  C   C666      1.0  0.59270  0.00849  0.75928  1.0000
  H   H656      1.0  0.36444  0.07230  0.54957  1.0000
  Fe  Fe119     1.0  0.38217  0.11685  0.52681  1.0000
  S   S237      1.0  0.35467  0.09870  0.51875  1.0000
  S   S238      1.0  0.43010  0.14520  0.53822  1.0000
  S   S239      1.0  0.39413  0.12907  0.57174  1.0000
  C   C667      1.0  0.33960  0.09570  0.54618  1.0000
  C   C668      1.0  0.34405  0.10430  0.57429  1.0000
  H   H657      1.0  0.35676  0.11359  0.57903  1.0000
  C   C669      1.0  0.44055  0.10987  0.69222  1.0000
  C   C670      1.0  0.43726  0.12263  0.67844  1.0000
  C   C671      1.0  0.43258  0.12159  0.64727  1.0000
  C   C672      1.0  0.43118  0.10774  0.62950  1.0000
  C   C673      1.0  0.43451  0.09499  0.64326  1.0000
  C   C674      1.0  0.43915  0.09601  0.67446  1.0000
  H   H658      1.0  0.43838  0.13344  0.69197  1.0000
  H   H659      1.0  0.43015  0.13155  0.63701  1.0000
  H   H660      1.0  0.43344  0.08420  0.62973  1.0000
  H   H661      1.0  0.44164  0.08610  0.68475  1.0000
  C   C675      1.0  0.43053  0.12035  0.94119  1.0000
  C   C676      1.0  0.44001  0.12573  0.91533  1.0000
  C   C677      1.0  0.44139  0.11418  0.89422  1.0000
  C   C678      1.0  0.43328  0.09702  0.89866  1.0000
  C   C679      1.0  0.42379  0.09163  0.92450  1.0000
  C   C680      1.0  0.42242  0.10319  0.94563  1.0000
  H   H662      1.0  0.44635  0.13895  0.91160  1.0000
  H   H663      1.0  0.44872  0.11855  0.87452  1.0000
  H   H664      1.0  0.41745  0.07841  0.92825  1.0000
  H   H665      1.0  0.41510  0.09881  0.96534  1.0000
  C   C681      1.0  0.41437  0.01848  0.75138  1.0000
  C   C682      1.0  0.42956  0.01693  0.75750  1.0000
  C   C683      1.0  0.41188  0.03919  0.84533  1.0000
  H   H666      1.0  0.41405  0.03064  0.75296  1.0000
  H   H667      1.0  0.57856  0.05459  0.87459  1.0000
  C   C684      1.0  0.55162  0.09027  0.77229  1.0000
  C   C685      1.0  0.55569  0.10176  0.79677  1.0000
  C   C686      1.0  0.54308  0.10586  0.80894  1.0000
  C   C687      1.0  0.52626  0.09836  0.79711  1.0000
  C   C688      1.0  0.52217  0.08672  0.77288  1.0000
  C   C689      1.0  0.53480  0.08278  0.76049  1.0000
  H   H668      1.0  0.56857  0.10761  0.80612  1.0000
  H   H669      1.0  0.54639  0.11492  0.82764  1.0000
  H   H670      1.0  0.50929  0.08086  0.76352  1.0000
  H   H671      1.0  0.53149  0.07384  0.74160  1.0000
  H   H672      1.0  0.46910  0.23793  0.57536  1.0000
  C   C690      1.0  0.49095  0.12780  0.73665  1.0000
  C   C691      1.0  0.59573  0.02505  0.75274  1.0000
  C   C692      1.0  0.58566  0.02798  0.73000  1.0000
  C   C693      1.0  0.57263  0.01448  0.71420  1.0000
  S   S240      1.0  0.39466  0.14001  0.50018  1.0000
  H   H673      1.0  0.58790  0.04063  0.72458  1.0000
  C   C694      1.0  0.43866  0.23756  0.60637  1.0000
  H   H674      1.0  0.65973  0.14272  0.89604  1.0000
  C   C695      1.0  0.51620  0.12429  0.74779  1.0000
  C   C696      1.0  0.34454  0.07107  0.61457  1.0000
  C   C697      1.0  0.42795  0.04005  0.85328  1.0000
  C   C698      1.0  0.42557  0.21636  0.51006  1.0000
  C   C699      1.0  0.42096  0.01351  0.82939  1.0000
  C   C700      1.0  0.57330  0.05146  0.85146  1.0000
  H   H675      1.0  0.46020  0.14066  0.50252  1.0000
  C   C701      1.0  0.42080  0.22795  0.52478  1.0000
  C   C702      1.0  0.33211  0.10061  0.59659  1.0000
  H   H676      1.0  0.33576  0.10714  0.61845  1.0000
  C   C703      1.0  0.41222  0.19552  0.54742  1.0000
  C   C704      1.0  0.40708  0.20696  0.56166  1.0000
  C   C705      1.0  0.41114  0.22299  0.55022  1.0000
  H   H677      1.0  0.52175  0.14824  0.78876  1.0000
  C   C706      1.0  0.41701  0.19774  0.97379  1.0000
  C   C707      1.0  0.39949  0.00417  0.74362  1.0000
  H   H678      1.0  0.40732  0.23170  0.56175  1.0000
  C   C708      1.0  0.43204  0.24653  0.62409  1.0000
  N   N58       1.0  0.40917  0.18078  0.96909  1.0000
  C   C709      1.0  0.65679  0.11704  0.66959  1.0000
  H   H679      1.0  0.39618  0.09229  0.64871  1.0000
  N   N59       1.0  0.56073  0.04424  0.79154  1.0000
  C   C710      1.0  0.55665  0.05485  0.80911  1.0000
  H   H680      1.0  0.40969  0.20519  0.97430  1.0000
  H   H681      1.0  0.65260  0.09344  0.86639  1.0000
  H   H682      1.0  0.38454  0.17998  0.97390  1.0000
  H   H683      1.0  0.38774  0.00539  0.73913  1.0000
  C   C711      1.0  0.55532  0.04146  0.75928  1.0000
  H   H684      1.0  0.54882  0.06072  0.79967  1.0000
  H   H685      1.0  0.60036  0.00610  0.77694  1.0000
  H   H686      1.0  0.42529  0.19157  0.50994  1.0000
  H   H687      1.0  0.45757  0.20207  0.98422  1.0000
  C   C712      1.0  0.44401  0.19615  0.97955  1.0000
  C   C713      1.0  0.39083  0.17267  0.96320  1.0000
  H   H688      1.0  0.56567  0.04997  0.74572  1.0000
  C   C714      1.0  0.65493  0.11819  0.87785  1.0000
  C   C715      1.0  0.57730  0.04056  0.83343  1.0000
  H   H689      1.0  0.55988  0.06736  0.85283  1.0000
  H   H690      1.0  0.48191  0.13279  0.74263  1.0000
  H   H691      1.0  0.54405  0.04412  0.75433  1.0000
  H   H692      1.0  0.52720  0.12648  0.76272  1.0000
  C   C716      1.0  0.50805  0.14115  0.78302  1.0000
  H   H693      1.0  0.50249  0.13280  0.80198  1.0000
  C   C717      1.0  0.38885  0.09940  0.64068  1.0000
  H   H694      1.0  0.58576  0.03521  0.84222  1.0000
  H   H695      1.0  0.55220  0.02835  0.75172  1.0000
  H   H696      1.0  0.38555  0.16021  0.97349  1.0000
  H   H697      1.0  0.47625  0.11495  0.69620  1.0000
  H   H698      1.0  0.52176  0.10817  0.71699  1.0000
  H   H699      1.0  0.65193  0.13372  0.63918  1.0000
  H   H700      1.0  0.38777  0.02441  0.82256  1.0000
  H   H701      1.0  0.43493  0.22437  0.61011  1.0000
  N   N60       1.0  0.43230  0.02730  0.84534  1.0000
  C   C718      1.0  0.41843  0.17142  0.96858  1.0000
  H   H702      1.0  0.50222  0.15024  0.78123  1.0000
  C   C719      1.0  0.49881  0.11061  0.70306  1.0000
  H   H703      1.0  0.35670  0.08454  0.65592  1.0000
  C   C720      1.0  0.48765  0.11767  0.71034  1.0000
  H   H704      1.0  0.64431  0.16385  0.72256  1.0000
  H   H705      1.0  0.38513  0.10466  0.66066  1.0000
  C   C721      1.0  0.40019  0.02512  0.82928  1.0000
  H   H706      1.0  0.49614  0.10236  0.68317  1.0000
  H   H707      1.0  0.56493  0.01688  0.69664  1.0000
  H   H708      1.0  0.38767  0.17121  0.93843  1.0000
  C   C722      1.0  0.57081  0.03705  0.80340  1.0000
  C   C723      1.0  0.40468  0.01211  0.82146  1.0000
  C   C724      1.0  0.51318  0.11390  0.72192  1.0000
  H   H709      1.0  0.40865  0.04952  0.85131  1.0000
  N   N61       1.0  0.50516  0.13111  0.75484  1.0000
  H   H710      1.0  0.38887  0.09038  0.58298  1.0000
  N   N62       1.0  0.37421  0.08856  0.62133  1.0000
  C   C725      1.0  0.35853  0.08167  0.63277  1.0000
  C   C726      1.0  0.37645  0.08494  0.59206  1.0000
  C   C727      1.0  0.34670  0.06751  0.58458  1.0000
  H   H711      1.0  0.63728  0.16442  0.77652  1.0000
  C   C728      1.0  0.43595  0.17894  0.97397  1.0000
  H   H712      1.0  0.41229  0.15801  0.96428  1.0000
  H   H713      1.0  0.45592  0.03814  0.87113  1.0000
  C   C729      1.0  0.65991  0.15050  0.73164  1.0000
  H   H714      1.0  0.57414  0.02874  0.78952  1.0000
  C   C730      1.0  0.56285  0.05862  0.83930  1.0000
  C   C731      1.0  0.64955  0.15839  0.73976  1.0000
  H   H715      1.0  0.42329  0.24036  0.64129  1.0000
  H   H716      1.0  0.43697  0.05109  0.86560  1.0000
  H   H717      1.0  0.44059  0.21905  0.98390  1.0000
  C   C732      1.0  0.42121  0.20020  0.52114  1.0000
  H   H718      1.0  0.39727  0.11016  0.62784  1.0000
  H   H719      1.0  0.40007  0.20346  0.58192  1.0000
  H   H720      1.0  0.44818  0.22212  0.56536  1.0000
  C   C733      1.0  0.65783  0.10386  0.88264  1.0000
  C   C734      1.0  0.65192  0.15100  0.79156  1.0000
  H   H721      1.0  0.64855  0.15072  0.81499  1.0000
  H   H722      1.0  0.33587  0.05986  0.56984  1.0000
  C   C735      1.0  0.43452  0.20567  0.97925  1.0000
  H   H723      1.0  0.44920  0.01656  0.85982  1.0000
  H   H724      1.0  0.39583  0.00124  0.80840  1.0000
  H   H725      1.0  0.44151  0.99978  0.75997  1.0000
  C   C736      1.0  0.44945  0.02869  0.85255  1.0000
  H   H726      1.0  0.45700  0.03253  0.83216  1.0000
  C   C737      1.0  0.64557  0.15865  0.76996  1.0000
  C   C738      1.0  0.33067  0.24389  0.55615  1.0000
  H   H727      1.0  0.44318  0.17137  0.97410  1.0000
  H   H728      1.0  0.33201  0.06613  0.62331  1.0000
  H   H729      1.0  0.44359  0.11842  0.53688  1.0000
  H   H730      1.0  0.43727  0.08889  0.52385  1.0000
  C   C739      1.0  0.44841  0.11526  0.51661  1.0000
  C   C740      1.0  0.45634  0.23574  0.56584  1.0000
  N   N63       1.0  0.44920  0.24516  0.58385  1.0000
  H   H731      1.0  0.42461  0.00370  0.82199  1.0000
  H   H732      1.0  0.45715  0.23956  0.54184  1.0000
  C   C741      1.0  0.44487  0.09864  0.50922  1.0000
  C   C742      1.0  0.45796  0.12776  0.49760  1.0000
  C   C743      1.0  0.42980  0.00107  0.75537  1.0000
  C   C744      1.0  0.65999  0.12736  0.64442  1.0000
  H   H733      1.0  0.32780  0.23629  0.53545  1.0000
  Fe  Fe120     1.0  0.41571  0.13152  0.49516  1.0000
  S   S241      1.0  0.57771  0.48243  0.27390  1.0000
  Fe  Fe121     1.0  0.48409  0.40679  0.30145  1.0000
  S   S242      1.0  0.46326  0.39632  0.33432  1.0000
  S   S243      1.0  0.50666  0.43061  0.31973  1.0000
  Fe  Fe122     1.0  0.46362  0.37964  0.25241  1.0000
  S   S244      1.0  0.44170  0.36761  0.28164  1.0000
  S   S245      1.0  0.46393  0.37274  0.20235  1.0000
  Fe  Fe123     1.0  0.44559  0.39390  0.29409  1.0000
  S   S246      1.0  0.42239  0.39934  0.29670  1.0000
  Fe  Fe124     1.0  0.46096  0.37083  0.31978  1.0000
  S   S247      1.0  0.45841  0.34883  0.34977  1.0000
  S   S248      1.0  0.46623  0.40591  0.26231  1.0000
  S   S249      1.0  0.48308  0.38130  0.28949  1.0000
  S   S250      1.0  0.39761  0.47713  0.17421  1.0000
  Fe  Fe125     1.0  0.36983  0.47718  0.23937  1.0000
  S   S251      1.0  0.36992  0.45345  0.21952  1.0000
  S   S252      1.0  0.35186  0.47829  0.27495  1.0000
  Fe  Fe126     1.0  0.39819  0.46777  0.22086  1.0000
  S   S253      1.0  0.42096  0.46165  0.22824  1.0000
  Fe  Fe127     1.0  0.36938  0.46493  0.17419  1.0000
  S   S254      1.0  0.35397  0.44745  0.13434  1.0000
  H   H734      1.0  0.39793  0.31314  0.41633  1.0000
  S   S255      1.0  0.36812  0.48813  0.19372  1.0000
  Fe  Fe128     1.0  0.41031  0.29793  0.07758  1.0000
  S   S256      1.0  0.39242  0.30167  0.04309  1.0000
  S   S257      1.0  0.41423  0.30651  0.12767  1.0000
  Fe  Fe129     1.0  0.41515  0.27193  0.03644  1.0000
  Fe  Fe130     1.0  0.41091  0.30195  0.00817  1.0000
  C   C745      1.0  0.34255  0.26327  0.08387  1.0000
  S   S258      1.0  0.42634  0.32551  0.47830  1.0000
  Fe  Fe131     1.0  0.38087  0.27382  0.03563  1.0000
  C   C746      1.0  0.35066  0.46275  0.01682  1.0000
  S   S259      1.0  0.42959  0.29995  0.04363  1.0000
  S   S260      1.0  0.39719  0.26988  0.07235  1.0000
  C   C747      1.0  0.37861  0.31398  0.48014  1.0000
  C   C748      1.0  0.54597  0.48970  0.23041  1.0000
  S   S261      1.0  0.39804  0.27411  0.99864  1.0000
  C   C749      1.0  0.34204  0.46409  0.30388  1.0000
  S   S262      1.0  0.42881  0.25456  0.03797  1.0000
  H   H735      1.0  0.55988  0.49683  0.23325  1.0000
  H   H736      1.0  0.35353  0.44712  0.29478  1.0000
  H   H737      1.0  0.33628  0.42503  0.08428  1.0000
  C   C750      1.0  0.33973  0.44863  0.10514  1.0000
  C   C751      1.0  0.33624  0.43849  0.33094  1.0000
  H   H738      1.0  0.38573  0.34277  0.45016  1.0000
  H   H739      1.0  0.44872  0.27984  0.13103  1.0000
  H   H740      1.0  0.34220  0.48188  0.02717  1.0000
  C   C752      1.0  0.42829  0.32509  0.14770  1.0000
  C   C753      1.0  0.44028  0.33852  0.13328  1.0000
  C   C754      1.0  0.45114  0.35294  0.15037  1.0000
  C   C755      1.0  0.45016  0.35413  0.18199  1.0000
  C   C756      1.0  0.43822  0.34065  0.19639  1.0000
  C   C757      1.0  0.42737  0.32626  0.17933  1.0000
  H   H741      1.0  0.44119  0.33780  0.10901  1.0000
  H   H742      1.0  0.46036  0.36326  0.13899  1.0000
  H   H743      1.0  0.43740  0.34127  0.22071  1.0000
  H   H744      1.0  0.41818  0.31594  0.19076  1.0000
  C   C758      1.0  0.44891  0.34235  0.38508  1.0000
  C   C759      1.0  0.44718  0.32680  0.39611  1.0000
  C   C760      1.0  0.44032  0.32139  0.42446  1.0000
  C   C761      1.0  0.43537  0.33162  0.44249  1.0000
  C   C762      1.0  0.43730  0.34728  0.43158  1.0000
  C   C763      1.0  0.44382  0.35253  0.40298  1.0000
  H   H745      1.0  0.45113  0.31881  0.38259  1.0000
  H   H746      1.0  0.43899  0.30934  0.43243  1.0000
  H   H747      1.0  0.43380  0.35547  0.44542  1.0000
  H   H748      1.0  0.44517  0.36457  0.39501  1.0000
  C   C764      1.0  0.42237  0.41742  0.27995  1.0000
  C   C765      1.0  0.43684  0.42900  0.26747  1.0000
  C   C766      1.0  0.43622  0.44265  0.25221  1.0000
  C   C767      1.0  0.42114  0.44483  0.24924  1.0000
  C   C768      1.0  0.40669  0.43342  0.26211  1.0000
  C   C769      1.0  0.40734  0.41977  0.27754  1.0000
  H   H749      1.0  0.44851  0.42744  0.26956  1.0000
  H   H750      1.0  0.44747  0.45153  0.24252  1.0000
  H   H751      1.0  0.39503  0.43506  0.26005  1.0000
  H   H752      1.0  0.39611  0.41088  0.28727  1.0000
  C   C770      1.0  0.55803  0.46815  0.28717  1.0000
  C   C771      1.0  0.55175  0.47104  0.31427  1.0000
  C   C772      1.0  0.53623  0.45925  0.32404  1.0000
  C   C773      1.0  0.52648  0.44463  0.30653  1.0000
  C   C774      1.0  0.53269  0.44180  0.27930  1.0000
  C   C775      1.0  0.54843  0.45339  0.26993  1.0000
  H   H753      1.0  0.55897  0.48223  0.32796  1.0000
  H   H754      1.0  0.53165  0.46159  0.34521  1.0000
  H   H755      1.0  0.52549  0.43060  0.26562  1.0000
  H   H756      1.0  0.55320  0.45090  0.24907  1.0000
  N   N64       1.0  0.42206  0.26574  0.13060  1.0000
  S   S263      1.0  0.35302  0.25651  0.02896  1.0000
  H   H757      1.0  0.33857  0.42744  0.33438  1.0000
  H   H758      1.0  0.32831  0.47819  0.31868  1.0000
  N   N65       1.0  0.49988  0.37927  0.37071  1.0000
  C   C776      1.0  0.49080  0.37164  0.39484  1.0000
  C   C777      1.0  0.50362  0.39573  0.36580  1.0000
  C   C778      1.0  0.48510  0.38048  0.41475  1.0000
  C   C779      1.0  0.49821  0.40497  0.38536  1.0000
  C   C780      1.0  0.48881  0.39724  0.40988  1.0000
  C   C781      1.0  0.50507  0.36945  0.34963  1.0000
  H   H759      1.0  0.48734  0.35845  0.39813  1.0000
  H   H760      1.0  0.51060  0.40180  0.34643  1.0000
  H   H761      1.0  0.47750  0.37419  0.43335  1.0000
  H   H762      1.0  0.50097  0.41794  0.38101  1.0000
  H   H763      1.0  0.48421  0.40417  0.42479  1.0000
  H   H764      1.0  0.51355  0.37734  0.33260  1.0000
  H   H765      1.0  0.51184  0.36298  0.36220  1.0000
  H   H766      1.0  0.49374  0.35991  0.33719  1.0000
  H   H767      1.0  0.34031  0.47230  0.11993  1.0000
  C   C782      1.0  0.51590  0.47893  0.29284  1.0000
  H   H768      1.0  0.54390  0.47656  0.22520  1.0000
  H   H769      1.0  0.43287  0.25289  0.10322  1.0000
  H   H770      1.0  0.40527  0.34399  0.46846  1.0000
  N   N66       1.0  0.42692  0.40301  0.20077  1.0000
  C   C783      1.0  0.43256  0.39060  0.20128  1.0000
  C   C784      1.0  0.41181  0.40058  0.21246  1.0000
  C   C785      1.0  0.42308  0.37533  0.21405  1.0000
  C   C786      1.0  0.40212  0.38552  0.22575  1.0000
  C   C787      1.0  0.40788  0.37287  0.22667  1.0000
  C   C788      1.0  0.43754  0.41916  0.18859  1.0000
  H   H771      1.0  0.44460  0.39252  0.19224  1.0000
  H   H772      1.0  0.40745  0.41050  0.21263  1.0000
  H   H773      1.0  0.42773  0.36563  0.21476  1.0000
  H   H774      1.0  0.39059  0.38396  0.23636  1.0000
  H   H775      1.0  0.40075  0.36132  0.23768  1.0000
  H   H776      1.0  0.43107  0.42776  0.18767  1.0000
  H   H777      1.0  0.44924  0.42526  0.20340  1.0000
  H   H778      1.0  0.44095  0.41738  0.16528  1.0000
  C   C789      1.0  0.34479  0.44966  0.30847  1.0000
  C   C790      1.0  0.42195  0.25206  0.11521  1.0000
  C   C791      1.0  0.52232  0.49380  0.31028  1.0000
  H   H779      1.0  0.43610  0.28805  0.10871  1.0000
  H   H780      1.0  0.43743  0.29018  0.14936  1.0000
  H   H781      1.0  0.40157  0.34045  0.42815  1.0000
  H   H782      1.0  0.38468  0.28281  0.42480  1.0000
  C   C792      1.0  0.37283  0.28560  0.46507  1.0000
  H   H783      1.0  0.35460  0.27393  0.08653  1.0000
  S   S264      1.0  0.39829  0.49076  0.24412  1.0000
  C   C793      1.0  0.38255  0.29147  0.44002  1.0000
  C   C794      1.0  0.37096  0.29691  0.48542  1.0000
  H   H784      1.0  0.36726  0.27233  0.46935  1.0000
  C   C795      1.0  0.33280  0.43551  0.08313  1.0000
  C   C796      1.0  0.33016  0.26080  0.10500  1.0000
  C   C797      1.0  0.38997  0.30863  0.43533  1.0000
  C   C798      1.0  0.40802  0.26486  0.14465  1.0000
  C   C799      1.0  0.33901  0.25236  0.05860  1.0000
  C   C800      1.0  0.39542  0.33760  0.45013  1.0000
  H   H785      1.0  0.54106  0.49458  0.21101  1.0000
  C   C801      1.0  0.39338  0.24999  0.14349  1.0000
  H   H786      1.0  0.35622  0.46316  0.03949  1.0000
  H   H787      1.0  0.50518  0.46814  0.30008  1.0000
  C   C802      1.0  0.33058  0.46710  0.32199  1.0000
  H   H788      1.0  0.51903  0.46604  0.25361  1.0000
  N   N67       1.0  0.53787  0.49104  0.25810  1.0000
  N   N68       1.0  0.38772  0.31961  0.45507  1.0000
  H   H789      1.0  0.40790  0.27583  0.15605  1.0000
  C   C803      1.0  0.34278  0.47337  0.00968  1.0000
  C   C804      1.0  0.33505  0.46206  0.10335  1.0000
  C   C805      1.0  0.52384  0.47779  0.26658  1.0000
  C   C806      1.0  0.43684  0.28171  0.12996  1.0000
  H   H790      1.0  0.43917  0.48865  0.18716  1.0000
  H   H791      1.0  0.33056  0.45469  0.17080  1.0000
  H   H792      1.0  0.51647  0.49477  0.33098  1.0000
  H   H793      1.0  0.44669  0.35034  0.00852  1.0000
  H   H794      1.0  0.38214  0.24951  0.15392  1.0000
  H   H795      1.0  0.33363  0.48291  0.22167  1.0000
  H   H796      1.0  0.33093  0.42721  0.17960  1.0000
  H   H797      1.0  0.43308  0.49739  0.23498  1.0000
  H   H798      1.0  0.33282  0.26955  0.12403  1.0000
  H   H799      1.0  0.35617  0.44239  0.00060  1.0000
  C   C807      1.0  0.35053  0.45102  0.99508  1.0000
  S   S265      1.0  0.57472  0.47925  0.81649  1.0000
  Fe  Fe132     1.0  0.47963  0.40265  0.78716  1.0000
  S   S266      1.0  0.46878  0.40081  0.83298  1.0000
  S   S267      1.0  0.50118  0.42588  0.76983  1.0000
  Fe  Fe133     1.0  0.44783  0.37210  0.76073  1.0000
  S   S268      1.0  0.43480  0.36873  0.80483  1.0000
  S   S269      1.0  0.43172  0.35712  0.71931  1.0000
  Fe  Fe134     1.0  0.44449  0.39667  0.80722  1.0000
  S   S270      1.0  0.43047  0.41207  0.82112  1.0000
  Fe  Fe135     1.0  0.45995  0.37286  0.82703  1.0000
  S   S271      1.0  0.46266  0.35600  0.86430  1.0000
  S   S272      1.0  0.45547  0.39980  0.76196  1.0000
  S   S273      1.0  0.47275  0.37477  0.78254  1.0000
  S   S274      1.0  0.39622  0.46754  0.67769  1.0000
  Fe  Fe136     1.0  0.36493  0.46993  0.73421  1.0000
  S   S275      1.0  0.35780  0.44903  0.69886  1.0000
  S   S276      1.0  0.34375  0.46891  0.76429  1.0000
  Fe  Fe137     1.0  0.38309  0.44939  0.71272  1.0000
  S   S277      1.0  0.38669  0.42539  0.71485  1.0000
  Fe  Fe138     1.0  0.37138  0.46892  0.66640  1.0000
  S   S278      1.0  0.36607  0.46940  0.61510  1.0000
  S   S279      1.0  0.38950  0.46896  0.74988  1.0000
  H   H800      1.0  0.57154  0.47438  0.69040  1.0000
  Fe  Fe139     1.0  0.42243  0.29531  0.57647  1.0000
  S   S280      1.0  0.40494  0.30358  0.54910  1.0000
  S   S281      1.0  0.43746  0.30549  0.62164  1.0000
  Fe  Fe140     1.0  0.42015  0.26895  0.52802  1.0000
  C   C808      1.0  0.41478  0.32193  0.82738  1.0000
  C   C809      1.0  0.35029  0.26685  0.58798  1.0000
  S   S282      1.0  0.41438  0.32135  0.97139  1.0000
  Fe  Fe141     1.0  0.38949  0.27613  0.53899  1.0000
  H   H801      1.0  0.33312  0.43111  0.74724  1.0000
  S   S283      1.0  0.43818  0.29596  0.53683  1.0000
  S   S284      1.0  0.40575  0.26777  0.56939  1.0000
  C   C810      1.0  0.33104  0.45380  0.60432  1.0000
  C   C811      1.0  0.34887  0.45510  0.81835  1.0000
  H   H802      1.0  0.40594  0.32826  0.75403  1.0000
  C   C812      1.0  0.33816  0.45998  0.80033  1.0000
  H   H803      1.0  0.35208  0.44396  0.86005  1.0000
  N   N69       1.0  0.45786  0.37898  0.93989  1.0000
  H   H804      1.0  0.35955  0.42656  0.74744  1.0000
  H   H805      1.0  0.47401  0.43838  0.76273  1.0000
  C   C813      1.0  0.34693  0.45995  0.59207  1.0000
  S   S285      1.0  0.37714  0.49027  0.70050  1.0000
  H   H806      1.0  0.42870  0.49248  0.65097  1.0000
  H   H807      1.0  0.36113  0.45701  0.81063  1.0000
  H   H808      1.0  0.34231  0.44098  0.94941  1.0000
  C   C814      1.0  0.43613  0.32056  0.64752  1.0000
  C   C815      1.0  0.42271  0.32542  0.64583  1.0000
  C   C816      1.0  0.42174  0.33679  0.66776  1.0000
  C   C817      1.0  0.43425  0.34362  0.69138  1.0000
  C   C818      1.0  0.44785  0.33899  0.69279  1.0000
  C   C819      1.0  0.44867  0.32741  0.67113  1.0000
  H   H809      1.0  0.41293  0.32023  0.62792  1.0000
  H   H810      1.0  0.41116  0.34026  0.66645  1.0000
  H   H811      1.0  0.45766  0.34424  0.71060  1.0000
  H   H812      1.0  0.45914  0.32378  0.67258  1.0000
  C   C820      1.0  0.44821  0.34514  0.89209  1.0000
  C   C821      1.0  0.43312  0.34692  0.89545  1.0000
  C   C822      1.0  0.42263  0.33896  0.91908  1.0000
  C   C823      1.0  0.42693  0.32898  0.93951  1.0000
  C   C824      1.0  0.44167  0.32664  0.93534  1.0000
  C   C825      1.0  0.45226  0.33472  0.91184  1.0000
  H   H813      1.0  0.42970  0.35472  0.88030  1.0000
  H   H814      1.0  0.41124  0.34084  0.92202  1.0000
  H   H815      1.0  0.44519  0.31903  0.95081  1.0000
  H   H816      1.0  0.46383  0.33313  0.90937  1.0000
  C   C826      1.0  0.41799  0.41555  0.79189  1.0000
  C   C827      1.0  0.41320  0.40545  0.76542  1.0000
  C   C828      1.0  0.40324  0.40838  0.74233  1.0000
  C   C829      1.0  0.39834  0.42165  0.74521  1.0000
  C   C830      1.0  0.40314  0.43179  0.77168  1.0000
  C   C831      1.0  0.41283  0.42865  0.79507  1.0000
  H   H817      1.0  0.41701  0.39524  0.76284  1.0000
  H   H818      1.0  0.39953  0.40046  0.72193  1.0000
  H   H819      1.0  0.39941  0.44203  0.77414  1.0000
  H   H820      1.0  0.41650  0.43648  0.81555  1.0000
  C   C832      1.0  0.55366  0.46520  0.80490  1.0000
  C   C833      1.0  0.54466  0.46843  0.78067  1.0000
  C   C834      1.0  0.52860  0.45632  0.77054  1.0000
  C   C835      1.0  0.52107  0.44098  0.78493  1.0000
  C   C836      1.0  0.52991  0.43790  0.80960  1.0000
  C   C837      1.0  0.54616  0.44986  0.81926  1.0000
  H   H821      1.0  0.55014  0.48019  0.76955  1.0000
  H   H822      1.0  0.52192  0.45888  0.75144  1.0000
  H   H823      1.0  0.52441  0.42615  0.82079  1.0000
  H   H824      1.0  0.55299  0.44716  0.83796  1.0000
  H   H825      1.0  0.33384  0.45214  0.51673  1.0000
  C   C838      1.0  0.61246  0.48621  0.74901  1.0000
  C   C839      1.0  0.60987  0.47410  0.77059  1.0000
  Fe  Fe142     1.0  0.40130  0.48760  0.71367  1.0000
  H   H826      1.0  0.40195  0.49108  0.62684  1.0000
  H   H827      1.0  0.43456  0.32960  0.74964  1.0000
  H   H828      1.0  0.35994  0.46396  0.55052  1.0000
  H   H829      1.0  0.56778  0.45196  0.75729  1.0000
  H   H830      1.0  0.46068  0.43545  0.79427  1.0000
  N   N70       1.0  0.58298  0.47348  0.73343  1.0000
  H   H831      1.0  0.33354  0.40747  0.50726  1.0000
  H   H832      1.0  0.46350  0.33361  0.81446  1.0000
  C   C840      1.0  0.56876  0.47378  0.71476  1.0000
  H   H833      1.0  0.48002  0.37428  0.93835  1.0000
  C   C841      1.0  0.45542  0.32746  0.79379  1.0000
  N   N71       1.0  0.45549  0.44844  0.75797  1.0000
  C   C842      1.0  0.45269  0.46225  0.76526  1.0000
  C   C843      1.0  0.44655  0.43799  0.73413  1.0000
  C   C844      1.0  0.44104  0.46618  0.74789  1.0000
  C   C845      1.0  0.43483  0.44155  0.71628  1.0000
  C   C846      1.0  0.43209  0.45573  0.72326  1.0000
  C   C847      1.0  0.46747  0.44428  0.77672  1.0000
  H   H834      1.0  0.45940  0.47027  0.78469  1.0000
  H   H835      1.0  0.44824  0.42667  0.72908  1.0000
  H   H836      1.0  0.43878  0.47713  0.75362  1.0000
  H   H837      1.0  0.42743  0.43302  0.69786  1.0000
  H   H838      1.0  0.42268  0.45834  0.71012  1.0000
  C   C848      1.0  0.59879  0.48575  0.73058  1.0000
  H   H839      1.0  0.36252  0.27713  0.59199  1.0000
  C   C849      1.0  0.59376  0.46153  0.77311  1.0000
  C   C850      1.0  0.43111  0.32299  0.82414  1.0000
  H   H840      1.0  0.33299  0.49568  0.98566  1.0000
  H   H841      1.0  0.62490  0.49620  0.74713  1.0000
  C   C851      1.0  0.45016  0.35886  0.98992  1.0000
  S   S286      1.0  0.36098  0.26213  0.53184  1.0000
  H   H842      1.0  0.37744  0.32273  0.49644  1.0000
  H   H843      1.0  0.39305  0.32333  0.80428  1.0000
  C   C852      1.0  0.46173  0.38948  0.91334  1.0000
  H   H844      1.0  0.45517  0.31482  0.79032  1.0000
  C   C853      1.0  0.43660  0.26343  0.61912  1.0000
  H   H845      1.0  0.46146  0.33523  0.77441  1.0000
  Fe  Fe143     1.0  0.41985  0.30278  0.50875  1.0000
  H   H846      1.0  0.47747  0.45557  0.78811  1.0000
  C   C854      1.0  0.42912  0.32753  0.77159  1.0000
  C   C855      1.0  0.46503  0.36211  0.97534  1.0000
  H   H847      1.0  0.46177  0.26768  0.56057  1.0000
  C   C856      1.0  0.46872  0.37228  0.95020  1.0000
  C   C857      1.0  0.34368  0.44771  0.84642  1.0000
  C   C858      1.0  0.41279  0.32657  0.77394  1.0000
  N   N72       1.0  0.43822  0.32619  0.79665  1.0000
  C   C859      1.0  0.58037  0.46138  0.75421  1.0000
  H   H848      1.0  0.36394  0.29248  0.50554  1.0000
  H   H849      1.0  0.60086  0.49553  0.71448  1.0000
  H   H850      1.0  0.55691  0.46251  0.71765  1.0000
  C   C860      1.0  0.44343  0.37614  0.95446  1.0000
  H   H851      1.0  0.56645  0.48487  0.72144  1.0000
  H   H852      1.0  0.40937  0.31979  0.84943  1.0000
  H   H853      1.0  0.45107  0.28424  0.59234  1.0000
  H   H854      1.0  0.43148  0.27058  0.63246  1.0000
  H   H855      1.0  0.43817  0.32149  0.84385  1.0000
  C   C861      1.0  0.40563  0.32387  0.80209  1.0000
  S   S287      1.0  0.40309  0.27587  0.49684  1.0000
  N   N73       1.0  0.33510  0.47243  0.98159  1.0000
  C   C862      1.0  0.44757  0.27112  0.59647  1.0000
  C   C863      1.0  0.33781  0.26367  0.60919  1.0000
  C   C864      1.0  0.33603  0.42422  0.76516  1.0000
  C   C865      1.0  0.35481  0.41354  0.78920  1.0000
  H   H856      1.0  0.47331  0.35629  0.98279  1.0000
  H   H857      1.0  0.43474  0.38130  0.94610  1.0000
  H   H858      1.0  0.45034  0.38597  0.89772  1.0000
  H   H859      1.0  0.46628  0.40284  0.92053  1.0000
  C   C866      1.0  0.34774  0.45919  0.56032  1.0000
  H   H860      1.0  0.34055  0.27155  0.62952  1.0000
  C   C867      1.0  0.34273  0.45019  0.96645  1.0000
  H   H861      1.0  0.32867  0.46005  0.93798  1.0000
  C   C868      1.0  0.33499  0.46102  0.96009  1.0000
  H   H862      1.0  0.47152  0.38785  0.89996  1.0000
  C   C869      1.0  0.43930  0.36595  0.97954  1.0000
  C   C870      1.0  0.33293  0.45248  0.54105  1.0000
  C   C871      1.0  0.34666  0.25713  0.56113  1.0000
  H   H863      1.0  0.33016  0.45437  0.62863  1.0000
  H   H864      1.0  0.59143  0.45241  0.79057  1.0000
  H   H865      1.0  0.62025  0.47468  0.78576  1.0000
  C   C872      1.0  0.45371  0.26173  0.57882  1.0000
  H   H866      1.0  0.42743  0.36294  0.99013  1.0000
  H   H867      1.0  0.36643  0.41171  0.78948  1.0000
  C   C873      1.0  0.35094  0.42186  0.76546  1.0000
  C   C874      1.0  0.34366  0.40771  0.81251  1.0000
  H   H868      1.0  0.34677  0.40131  0.83100  1.0000
  N   N74       1.0  0.32910  0.41016  0.81216  1.0000
  C   C875      1.0  0.32774  0.44505  0.85686  1.0000
  S   S288      1.0  0.42907  0.24900  0.51314  1.0000
  Fe  Fe144     1.0  0.58750  0.54174  0.29080  1.0000
  S   S289      1.0  0.59056  0.52759  0.25077  1.0000
  S   S290      1.0  0.56700  0.55106  0.29465  1.0000
  Fe  Fe145     1.0  0.61706  0.53930  0.32870  1.0000
  S   S291      1.0  0.62201  0.52439  0.29100  1.0000
  H   H869      1.0  0.46693  0.54455  0.27579  1.0000
  Fe  Fe146     1.0  0.61859  0.54258  0.25860  1.0000
  S   S292      1.0  0.63623  0.56026  0.22503  1.0000
  C   C876      1.0  0.54397  0.50580  0.27465  1.0000
  S   S293      1.0  0.61498  0.55801  0.29644  1.0000
  S   S294      1.0  0.58883  0.52394  0.32568  1.0000
  Fe  Fe147     1.0  0.53680  0.63497  0.23596  1.0000
  S   S295      1.0  0.54950  0.63391  0.19284  1.0000
  S   S296      1.0  0.55458  0.65042  0.27553  1.0000
  Fe  Fe148     1.0  0.50291  0.60688  0.21161  1.0000
  S   S297      1.0  0.51349  0.60410  0.16750  1.0000
  S   S298      1.0  0.47622  0.59124  0.22681  1.0000
  Fe  Fe149     1.0  0.53630  0.60605  0.19617  1.0000
  S   S299      1.0  0.55029  0.58975  0.18713  1.0000
  Fe  Fe150     1.0  0.52589  0.63235  0.16764  1.0000
  S   S300      1.0  0.52306  0.64466  0.12319  1.0000
  S   S301      1.0  0.52503  0.60711  0.24028  1.0000
  S   S302      1.0  0.51379  0.63514  0.21062  1.0000
  Fe  Fe151     1.0  0.56992  0.71030  0.42090  1.0000
  S   S303      1.0  0.58521  0.69797  0.44323  1.0000
  S   S304      1.0  0.54912  0.69648  0.38444  1.0000
  C   C877      1.0  0.55143  0.72464  0.02040  1.0000
  H   H870      1.0  0.54637  0.56923  0.29070  1.0000
  Fe  Fe152     1.0  0.60699  0.72305  0.44134  1.0000
  H   H871      1.0  0.65002  0.57763  0.32159  1.0000
  C   C878      1.0  0.44913  0.52031  0.25862  1.0000
  S   S305      1.0  0.57521  0.70025  0.04084  1.0000
  S   S306      1.0  0.59221  0.73495  0.41558  1.0000
  S   S307      1.0  0.56274  0.71806  0.46553  1.0000
  H   H872      1.0  0.64433  0.52830  0.39232  1.0000
  S   S308      1.0  0.41604  0.52322  0.17630  1.0000
  C   C879      1.0  0.46031  0.57165  0.21318  1.0000
  C   C880      1.0  0.44668  0.56310  0.23133  1.0000
  C   C881      1.0  0.43337  0.54792  0.22100  1.0000
  C   C882      1.0  0.43324  0.54137  0.19189  1.0000
  C   C883      1.0  0.44685  0.54994  0.17371  1.0000
  C   C884      1.0  0.46048  0.56475  0.18450  1.0000
  H   H873      1.0  0.44634  0.56830  0.25351  1.0000
  H   H874      1.0  0.42292  0.54162  0.23513  1.0000
  H   H875      1.0  0.44685  0.54505  0.15109  1.0000
  H   H876      1.0  0.47092  0.57098  0.17033  1.0000
  C   C885      1.0  0.55268  0.66334  0.30527  1.0000
  C   C886      1.0  0.53800  0.66591  0.30866  1.0000
  C   C887      1.0  0.53721  0.67628  0.33274  1.0000
  C   C888      1.0  0.55104  0.68421  0.35363  1.0000
  C   C889      1.0  0.56566  0.68152  0.35037  1.0000
  C   C890      1.0  0.56645  0.67117  0.32634  1.0000
  H   H877      1.0  0.52730  0.65996  0.29272  1.0000
  H   H878      1.0  0.52580  0.67819  0.33514  1.0000
  H   H879      1.0  0.57638  0.68747  0.36630  1.0000
  H   H880      1.0  0.57788  0.66930  0.32393  1.0000
  C   C891      1.0  0.53809  0.65954  0.10006  1.0000
  C   C892      1.0  0.53289  0.66201  0.07053  1.0000
  C   C893      1.0  0.54411  0.67403  0.05176  1.0000
  C   C894      1.0  0.56068  0.68401  0.06247  1.0000
  C   C895      1.0  0.56583  0.68159  0.09205  1.0000
  C   C896      1.0  0.55471  0.66937  0.11060  1.0000
  H   H881      1.0  0.52010  0.65453  0.06203  1.0000
  H   H882      1.0  0.53988  0.67566  0.02917  1.0000
  H   H883      1.0  0.57856  0.68922  0.10072  1.0000
  H   H884      1.0  0.55895  0.66776  0.13322  1.0000
  H   H885      1.0  0.65718  0.58459  0.18499  1.0000
  C   C897      1.0  0.54406  0.65957  0.41703  1.0000
  H   H886      1.0  0.54152  0.51906  0.31433  1.0000
  C   C898      1.0  0.54849  0.66449  0.47033  1.0000
  S   S309      1.0  0.63295  0.72410  0.43286  1.0000
  C   C899      1.0  0.64490  0.54645  0.02323  1.0000
  H   H887      1.0  0.47188  0.53167  0.18391  1.0000
  C   C900      1.0  0.64865  0.74091  0.41537  1.0000
  C   C901      1.0  0.56149  0.56062  0.26383  1.0000
  C   C902      1.0  0.56748  0.56033  0.23507  1.0000
  C   C903      1.0  0.56328  0.56865  0.21130  1.0000
  C   C904      1.0  0.55348  0.57768  0.21635  1.0000
  C   C905      1.0  0.54724  0.57764  0.24497  1.0000
  C   C906      1.0  0.55111  0.56903  0.26853  1.0000
  H   H888      1.0  0.57541  0.55378  0.23116  1.0000
  H   H889      1.0  0.56797  0.56843  0.18909  1.0000
  H   H890      1.0  0.53962  0.58440  0.24916  1.0000
  C   C907      1.0  0.46648  0.60349  0.15390  1.0000
  H   H891      1.0  0.51947  0.66770  0.46361  1.0000
  C   C908      1.0  0.64473  0.53856  0.99539  1.0000
  C   C909      1.0  0.44389  0.50919  0.23346  1.0000
  C   C910      1.0  0.49054  0.64984  0.15916  1.0000
  C   C911      1.0  0.64630  0.55308  0.40235  1.0000
  Fe  Fe153     1.0  0.57949  0.70698  0.48759  1.0000
  C   C912      1.0  0.46943  0.62443  0.19384  1.0000
  H   H892      1.0  0.48690  0.63031  0.12624  1.0000
  C   C913      1.0  0.47616  0.64092  0.20540  1.0000
  H   H893      1.0  0.46189  0.60246  0.12978  1.0000
  C   C914      1.0  0.48678  0.65369  0.18789  1.0000
  C   C915      1.0  0.48351  0.63324  0.14826  1.0000
  C   C916      1.0  0.64792  0.55838  0.19410  1.0000
  H   H894      1.0  0.47667  0.59900  0.15582  1.0000
  H   H895      1.0  0.49249  0.66646  0.19688  1.0000
  C   C917      1.0  0.54314  0.73191  0.00161  1.0000
  C   C918      1.0  0.53639  0.50737  0.30108  1.0000
  S   S310      1.0  0.63298  0.55390  0.37110  1.0000
  N   N75       1.0  0.54001  0.66477  0.44368  1.0000
  C   C919      1.0  0.56127  0.65872  0.47081  1.0000
  N   N76       1.0  0.47301  0.62083  0.16545  1.0000
  H   H896      1.0  0.46164  0.61450  0.20798  1.0000
  H   H897      1.0  0.53361  0.68552  0.44384  1.0000
  C   C920      1.0  0.47139  0.53957  0.22990  1.0000
  C   C921      1.0  0.46297  0.53561  0.25675  1.0000
  Fe  Fe154     1.0  0.59328  0.51030  0.28591  1.0000
  C   C922      1.0  0.52726  0.67167  0.44357  1.0000
  H   H898      1.0  0.49931  0.65952  0.14572  1.0000
  N   N77       1.0  0.59040  0.60945  0.23089  1.0000
  C   C923      1.0  0.58908  0.60304  0.25920  1.0000
  C   C924      1.0  0.58518  0.62185  0.22487  1.0000
  C   C925      1.0  0.58202  0.60882  0.28216  1.0000
  C   C926      1.0  0.57841  0.62815  0.24747  1.0000
  C   C927      1.0  0.57665  0.62146  0.27617  1.0000
  C   C928      1.0  0.59766  0.60331  0.20675  1.0000
  H   H899      1.0  0.59299  0.59303  0.26397  1.0000
  H   H900      1.0  0.58591  0.62672  0.20229  1.0000
  H   H901      1.0  0.58045  0.60328  0.30423  1.0000
  H   H902      1.0  0.57435  0.63803  0.24267  1.0000
  H   H903      1.0  0.57097  0.62604  0.29352  1.0000
  H   H904      1.0  0.61013  0.61306  0.20145  1.0000
  H   H905      1.0  0.59932  0.59186  0.21317  1.0000
  H   H906      1.0  0.58907  0.59999  0.18596  1.0000
  H   H907      1.0  0.53757  0.66009  0.39580  1.0000
  H   H908      1.0  0.55486  0.51645  0.26765  1.0000
  H   H909      1.0  0.44228  0.51716  0.27919  1.0000
  H   H910      1.0  0.56035  0.65027  0.39521  1.0000
  C   C929      1.0  0.46570  0.52820  0.20508  1.0000
  C   C930      1.0  0.65505  0.54528  0.04762  1.0000
  H   H911      1.0  0.65539  0.55138  0.06936  1.0000
  C   C931      1.0  0.55692  0.65392  0.41659  1.0000
  S   S311      1.0  0.60245  0.73129  0.48695  1.0000
  H   H912      1.0  0.48187  0.55164  0.22795  1.0000
  N   N78       1.0  0.45217  0.51320  0.20717  1.0000
  H   H913      1.0  0.47354  0.64367  0.22813  1.0000
  H   H914      1.0  0.45579  0.59512  0.16697  1.0000
  C   C932      1.0  0.56555  0.65348  0.44371  1.0000
  H   H915      1.0  0.51867  0.66754  0.42285  1.0000
  C   C933      1.0  0.64849  0.54325  0.18545  1.0000
  H   H916      1.0  0.57577  0.64944  0.44369  1.0000
  H   H917      1.0  0.63736  0.55356  0.02583  1.0000
  Fe  Fe155     1.0  0.39677  0.49971  0.19719  1.0000
  C   C934      1.0  0.64997  0.53922  0.40739  1.0000
  H   H918      1.0  0.64123  0.53203  0.19713  1.0000
  H   H919      1.0  0.54944  0.71170  0.01662  1.0000
  Fe  Fe156     1.0  0.58624  0.74194  0.46156  1.0000
  C   C935      1.0  0.65374  0.56711  0.42239  1.0000
  C   C936      1.0  0.65749  0.57280  0.17852  1.0000
  H   H920      1.0  0.56918  0.72871  0.05843  1.0000
  C   C937      1.0  0.56252  0.73420  0.04397  1.0000
  H   H921      1.0  0.43671  0.50517  0.16671  1.0000
  H   H922      1.0  0.45624  0.50249  0.16624  1.0000
  C   C938      1.0  0.44581  0.50183  0.18048  1.0000
  H   H923      1.0  0.54564  0.66905  0.49136  1.0000
  H   H924      1.0  0.56816  0.65886  0.49200  1.0000
  H   H925      1.0  0.65104  0.57793  0.41873  1.0000
  C   C939      1.0  0.65865  0.54266  0.16175  1.0000
  H   H926      1.0  0.65909  0.53091  0.15541  1.0000
  N   N79       1.0  0.54571  0.74822  0.00643  1.0000
  H   H927      1.0  0.63466  0.55741  0.48973  1.0000
  Fe  Fe157     1.0  0.58804  0.53903  0.78527  1.0000
  S   S312      1.0  0.58752  0.51705  0.75780  1.0000
  S   S313      1.0  0.56709  0.54805  0.78391  1.0000
  Fe  Fe158     1.0  0.61704  0.54023  0.82923  1.0000
  S   S314      1.0  0.61840  0.51805  0.80509  1.0000
  S   S315      1.0  0.62920  0.55553  0.87334  1.0000
  Fe  Fe159     1.0  0.61602  0.53052  0.76159  1.0000
  S   S316      1.0  0.63121  0.52809  0.72188  1.0000
  N   N80       1.0  0.42416  0.51338  0.63680  1.0000
  S   S317      1.0  0.61625  0.55344  0.78594  1.0000
  S   S318      1.0  0.58878  0.52734  0.82975  1.0000
  Fe  Fe160     1.0  0.52606  0.63335  0.73497  1.0000
  S   S319      1.0  0.54592  0.63894  0.70100  1.0000
  S   S320      1.0  0.52556  0.65124  0.77255  1.0000
  Fe  Fe161     1.0  0.50141  0.60101  0.69981  1.0000
  S   S321      1.0  0.51966  0.60446  0.66293  1.0000
  S   S322      1.0  0.47320  0.58318  0.69973  1.0000
  Fe  Fe162     1.0  0.53934  0.61128  0.70185  1.0000
  S   S323      1.0  0.56164  0.60424  0.70125  1.0000
  Fe  Fe163     1.0  0.52515  0.63191  0.66452  1.0000
  S   S324      1.0  0.52417  0.64840  0.62509  1.0000
  S   S325      1.0  0.52085  0.60616  0.73869  1.0000
  S   S326      1.0  0.50552  0.62802  0.69863  1.0000
  Fe  Fe164     1.0  0.57968  0.70281  0.92307  1.0000
  S   S327      1.0  0.59771  0.70515  0.96325  1.0000
  S   S328      1.0  0.57711  0.68276  0.88708  1.0000
  Fe  Fe165     1.0  0.57421  0.73318  0.94552  1.0000
  H   H928      1.0  0.58843  0.56788  0.73707  1.0000
  Fe  Fe166     1.0  0.60868  0.73270  0.95542  1.0000
  C   C940      1.0  0.63903  0.55561  0.51225  1.0000
  H   H929      1.0  0.59232  0.68455  0.70231  1.0000
  S   S329      1.0  0.57710  0.69022  0.52839  1.0000
  S   S330      1.0  0.59223  0.73017  0.91353  1.0000
  S   S331      1.0  0.55997  0.70540  0.95196  1.0000
  H   H930      1.0  0.52168  0.66966  0.71837  1.0000
  C   C941      1.0  0.64439  0.56305  0.56566  1.0000
  C   C942      1.0  0.46145  0.56152  0.70584  1.0000
  C   C943      1.0  0.46908  0.55036  0.70938  1.0000
  C   C944      1.0  0.45911  0.53325  0.71346  1.0000
  C   C945      1.0  0.44141  0.52702  0.71407  1.0000
  C   C946      1.0  0.43380  0.53823  0.71103  1.0000
  C   C947      1.0  0.44377  0.55534  0.70687  1.0000
  H   H931      1.0  0.48264  0.55487  0.70867  1.0000
  H   H932      1.0  0.46519  0.52475  0.71592  1.0000
  H   H933      1.0  0.42023  0.53370  0.71162  1.0000
  H   H934      1.0  0.43770  0.56384  0.70431  1.0000
  C   C948      1.0  0.54042  0.66034  0.80358  1.0000
  C   C949      1.0  0.55429  0.65639  0.80898  1.0000
  C   C950      1.0  0.56540  0.66346  0.83456  1.0000
  C   C951      1.0  0.56291  0.67466  0.85483  1.0000
  C   C952      1.0  0.54916  0.67877  0.84913  1.0000
  C   C953      1.0  0.53795  0.67159  0.82370  1.0000
  H   H935      1.0  0.55638  0.64779  0.79370  1.0000
  H   H936      1.0  0.57600  0.66021  0.83880  1.0000
  H   H937      1.0  0.54708  0.68735  0.86452  1.0000
  H   H938      1.0  0.52727  0.67474  0.81973  1.0000
  C   C954      1.0  0.53898  0.65961  0.59798  1.0000
  C   C955      1.0  0.55508  0.65968  0.59751  1.0000
  C   C956      1.0  0.56651  0.66916  0.57615  1.0000
  C   C957      1.0  0.56208  0.67873  0.55499  1.0000
  C   C958      1.0  0.54601  0.67872  0.55554  1.0000
  C   C959      1.0  0.53458  0.66923  0.57689  1.0000
  H   H939      1.0  0.55870  0.65237  0.61349  1.0000
  H   H940      1.0  0.57888  0.66901  0.57596  1.0000
  H   H941      1.0  0.54241  0.68610  0.53970  1.0000
  H   H942      1.0  0.52221  0.66938  0.57713  1.0000
  H   H943      1.0  0.65538  0.54237  0.87262  1.0000
  C   C960      1.0  0.62052  0.59655  0.80965  1.0000
  C   C961      1.0  0.52807  0.67632  0.69819  1.0000
  C   C962      1.0  0.64646  0.55758  0.89890  1.0000
  H   H944      1.0  0.65289  0.52577  0.67649  1.0000
  H   H945      1.0  0.52707  0.68848  0.69710  1.0000
  H   H946      1.0  0.61523  0.61117  0.77523  1.0000
  H   H947      1.0  0.54724  0.67935  0.65136  1.0000
  C   C963      1.0  0.56538  0.56291  0.75917  1.0000
  C   C964      1.0  0.55164  0.56726  0.76140  1.0000
  C   C965      1.0  0.55023  0.57975  0.74348  1.0000
  C   C966      1.0  0.56263  0.58804  0.72326  1.0000
  C   C967      1.0  0.57638  0.58368  0.72097  1.0000
  C   C968      1.0  0.57775  0.57110  0.73882  1.0000
  H   H948      1.0  0.54203  0.56094  0.77712  1.0000
  H   H949      1.0  0.53958  0.58298  0.74533  1.0000
  H   H950      1.0  0.58600  0.59005  0.70532  1.0000
  H   H951      1.0  0.63373  0.57495  0.53388  1.0000
  H   H952      1.0  0.64786  0.51642  0.54973  1.0000
  H   H953      1.0  0.54831  0.68047  0.74775  1.0000
  C   C969      1.0  0.65837  0.52896  0.54856  1.0000
  H   H954      1.0  0.58485  0.60072  0.78561  1.0000
  H   H955      1.0  0.59829  0.56076  0.86752  1.0000
  C   C970      1.0  0.64932  0.56736  0.92585  1.0000
  N   N81       1.0  0.54585  0.67896  0.69941  1.0000
  C   C971      1.0  0.55447  0.68078  0.72683  1.0000
  C   C972      1.0  0.39651  0.51277  0.62721  1.0000
  C   C973      1.0  0.55389  0.68016  0.67306  1.0000
  C   C974      1.0  0.65087  0.55098  0.56911  1.0000
  C   C975      1.0  0.65339  0.53826  0.67591  1.0000
  H   H956      1.0  0.52111  0.66833  0.67799  1.0000
  S   S332      1.0  0.59120  0.73706  0.98692  1.0000
  C   C976      1.0  0.61360  0.58483  0.83186  1.0000
  C   C977      1.0  0.65729  0.54982  0.89328  1.0000
  H   H957      1.0  0.58632  0.57207  0.87972  1.0000
  C   C978      1.0  0.59312  0.59657  0.79890  1.0000
  H   H958      1.0  0.63691  0.53965  0.97645  1.0000
  C   C979      1.0  0.40320  0.53011  0.63093  1.0000
  N   N82       1.0  0.65160  0.54162  0.54465  1.0000
  H   H959      1.0  0.57787  0.68368  0.75020  1.0000
  H   H960      1.0  0.53476  0.72447  0.98298  1.0000
  C   C980      1.0  0.57128  0.68276  0.72833  1.0000
  C   C981      1.0  0.58660  0.58476  0.82109  1.0000
  C   C982      1.0  0.61015  0.60236  0.79297  1.0000
  H   H961      1.0  0.38307  0.50564  0.62229  1.0000
  C   C983      1.0  0.57068  0.68213  0.67365  1.0000
  C   C984      1.0  0.63855  0.56545  0.53697  1.0000
  N   N83       1.0  0.50046  0.61104  0.80741  1.0000
  C   C985      1.0  0.49182  0.62038  0.79884  1.0000
  C   C986      1.0  0.49485  0.59473  0.79748  1.0000
  C   C987      1.0  0.47712  0.61340  0.77994  1.0000
  C   C988      1.0  0.48016  0.58734  0.77867  1.0000
  C   C989      1.0  0.47126  0.59676  0.76992  1.0000
  C   C990      1.0  0.51642  0.61875  0.82563  1.0000
  H   H962      1.0  0.49649  0.63343  0.80599  1.0000
  H   H963      1.0  0.50198  0.58747  0.80342  1.0000
  H   H964      1.0  0.47055  0.62096  0.77254  1.0000
  H   H965      1.0  0.47596  0.57456  0.77002  1.0000
  H   H966      1.0  0.46011  0.59128  0.75462  1.0000
  H   H967      1.0  0.51726  0.61027  0.84340  1.0000
  H   H968      1.0  0.52715  0.62173  0.81067  1.0000
  H   H969      1.0  0.51781  0.63061  0.83721  1.0000
  H   H970      1.0  0.64112  0.57352  0.93041  1.0000
  N   N84       1.0  0.59676  0.57887  0.83692  1.0000
  C   C991      1.0  0.43518  0.50451  0.63970  1.0000
  N   N85       1.0  0.65456  0.52992  0.99191  1.0000
  H   H971      1.0  0.39495  0.53659  0.62909  1.0000
  H   H972      1.0  0.62173  0.58031  0.84458  1.0000
  C   C992      1.0  0.43090  0.53043  0.63963  1.0000
  H   H973      1.0  0.63778  0.56316  0.71081  1.0000
  C   C993      1.0  0.40726  0.50456  0.63001  1.0000
  C   C994      1.0  0.42052  0.53905  0.63698  1.0000
  H   H974      1.0  0.57679  0.68255  0.65257  1.0000
  C   C995      1.0  0.58947  0.56633  0.85974  1.0000
  H   H975      1.0  0.65549  0.54931  0.59143  1.0000
  C   C996      1.0  0.64402  0.54303  0.69632  1.0000
  C   C997      1.0  0.65493  0.57050  0.67425  1.0000
  S   S333      1.0  0.42954  0.50514  0.71778  1.0000
  C   C998      1.0  0.57937  0.68328  0.70151  1.0000
  H   H976      1.0  0.42590  0.55254  0.64008  1.0000
  H   H977      1.0  0.63377  0.60087  0.80520  1.0000
  H   H978      1.0  0.57320  0.57979  0.82470  1.0000
  Fe  Fe167     1.0  0.58983  0.50618  0.80253  1.0000
  H   H979      1.0  0.57785  0.55590  0.84996  1.0000
  C   C999      1.0  0.64490  0.55928  0.69538  1.0000
  C   C1000     1.0  0.64544  0.54354  0.51662  1.0000
  H   H980      1.0  0.64419  0.57065  0.58515  1.0000
  H   H981      1.0  0.63321  0.73866  0.89986  1.0000
  H   H982      1.0  0.44432  0.53747  0.64482  1.0000
  H   H983      1.0  0.64584  0.53598  0.49729  1.0000
  H   H984      1.0  0.44673  0.51181  0.65426  1.0000
  H   H985      1.0  0.43884  0.50210  0.61698  1.0000
  H   H986      1.0  0.65457  0.74454  0.86107  1.0000
  C   C1001     1.0  0.64598  0.74785  0.90476  1.0000
  H   H987      1.0  0.64794  0.50751  0.96567  1.0000
  H   H988      1.0  0.64681  0.52454  0.94478  1.0000
  C   C1002     1.0  0.65398  0.52122  0.96304  1.0000
  H   H989      1.0  0.65539  0.58298  0.67373  1.0000
  Fe  Fe168     1.0  0.57865  0.70910  0.99166  1.0000
  Fe  Fe169     1.0  0.39221  0.91346  0.21935  1.0000
  S   S334      1.0  0.39090  0.93391  0.19071  1.0000
  S   S335      1.0  0.41267  0.90343  0.21747  1.0000
  Fe  Fe170     1.0  0.35735  0.90512  0.24471  1.0000
  S   S336      1.0  0.35397  0.92500  0.21760  1.0000
  S   S337      1.0  0.60561  0.87280  0.99604  1.0000
  Fe  Fe171     1.0  0.36393  0.91613  0.17831  1.0000
  S   S338      1.0  0.35292  0.91642  0.13021  1.0000
  Fe  Fe172     1.0  0.38091  0.94115  0.23199  1.0000
  S   S339      1.0  0.38439  0.96737  0.24562  1.0000
  S   S340      1.0  0.36576  0.89511  0.20417  1.0000
  S   S341      1.0  0.38382  0.92181  0.26195  1.0000
  H   H990      1.0  0.33535  0.86728  0.40024  1.0000
  H   H991      1.0  0.51474  0.97678  0.24302  1.0000
  H   H992      1.0  0.63996  0.91198  0.41633  1.0000
  H   H993      1.0  0.34092  0.88437  0.44474  1.0000
  S   S342      1.0  0.33444  0.88746  0.26926  1.0000
  H   H994      1.0  0.62629  0.76928  0.49197  1.0000
  H   H995      1.0  0.37737  0.90096  0.12071  1.0000
  H   H996      1.0  0.63255  0.78580  0.46587  1.0000
  S   S343      1.0  0.59820  0.86740  0.48665  1.0000
  H   H997      1.0  0.55857  0.77061  0.03342  1.0000
  C   C1003     1.0  0.55075  0.83699  0.48919  1.0000
  C   C1004     1.0  0.54302  0.92340  0.35579  1.0000
  C   C1005     1.0  0.32945  0.88892  0.30759  1.0000
  C   C1006     1.0  0.40443  0.98411  0.25027  1.0000
  C   C1007     1.0  0.42011  0.98997  0.33221  1.0000
  C   C1008     1.0  0.41919  0.98145  0.25329  1.0000
  H   H998      1.0  0.43721  0.93945  0.14151  1.0000
  H   H999      1.0  0.41856  0.96894  0.25073  1.0000
  C   C1009     1.0  0.43492  0.91436  0.21517  1.0000
  H   H1000     1.0  0.43522  0.93888  0.21197  1.0000
  C   C1010     1.0  0.55648  0.75766  0.02967  1.0000
  Fe  Fe173     1.0  0.58687  0.85575  0.44083  1.0000
  C   C1011     1.0  0.33811  0.90141  0.10389  1.0000
  S   S344      1.0  0.57444  0.82775  0.42880  1.0000
  Fe  Fe174     1.0  0.59210  0.88971  0.41387  1.0000
  C   C1012     1.0  0.56516  0.75084  0.04860  1.0000
  S   S345      1.0  0.59218  0.90625  0.37450  1.0000
  Fe  Fe175     1.0  0.61785  0.88708  0.45971  1.0000
  S   S346      1.0  0.64605  0.89650  0.47057  1.0000
  H   H1001     1.0  0.57389  0.75840  0.06673  1.0000
  S   S347      1.0  0.58330  0.90039  0.02760  1.0000
  S   S348      1.0  0.60739  0.87437  0.41440  1.0000
  S   S349      1.0  0.57059  0.87017  0.43637  1.0000
  Fe  Fe176     1.0  0.53483  0.91634  0.23796  1.0000
  S   S350      1.0  0.55490  0.92422  0.20396  1.0000
  S   S351      1.0  0.53333  0.89935  0.27734  1.0000
  Fe  Fe177     1.0  0.51323  0.93155  0.20349  1.0000
  S   S352      1.0  0.53172  0.94024  0.16654  1.0000
  S   S353      1.0  0.49237  0.94118  0.20334  1.0000
  Fe  Fe178     1.0  0.53353  0.91544  0.16837  1.0000
  S   S354      1.0  0.53139  0.89741  0.12861  1.0000
  Fe  Fe179     1.0  0.55173  0.94845  0.20460  1.0000
  S   S355      1.0  0.57363  0.97355  0.20009  1.0000
  S   S356      1.0  0.51333  0.90598  0.20248  1.0000
  S   S357      1.0  0.53337  0.94132  0.24147  1.0000
  C   C1013     1.0  0.47030  0.93044  0.20820  1.0000
  C   C1014     1.0  0.46027  0.93960  0.20838  1.0000
  C   C1015     1.0  0.44271  0.93164  0.21189  1.0000
  C   C1016     1.0  0.44492  0.90519  0.21485  1.0000
  C   C1017     1.0  0.46249  0.91316  0.21149  1.0000
  H   H1002     1.0  0.46615  0.95297  0.20588  1.0000
  H   H1003     1.0  0.43905  0.89181  0.21722  1.0000
  H   H1004     1.0  0.46999  0.90592  0.21135  1.0000
  N   N86       1.0  0.55551  0.91352  0.40737  1.0000
  H   H1005     1.0  0.56280  0.97500  0.26130  1.0000
  H   H1006     1.0  0.55395  0.89565  0.44112  1.0000
  C   C1018     1.0  0.56882  0.89894  0.05603  1.0000
  C   C1019     1.0  0.57265  0.91261  0.07651  1.0000
  C   C1020     1.0  0.56146  0.91235  0.09892  1.0000
  C   C1021     1.0  0.54613  0.89845  0.10095  1.0000
  C   C1022     1.0  0.54234  0.88472  0.08062  1.0000
  C   C1023     1.0  0.55362  0.88491  0.05840  1.0000
  H   H1007     1.0  0.58435  0.92355  0.07494  1.0000
  H   H1008     1.0  0.56460  0.92301  0.11434  1.0000
  H   H1009     1.0  0.53056  0.87386  0.08203  1.0000
  H   H1010     1.0  0.55048  0.87424  0.04306  1.0000
  C   C1024     1.0  0.57609  0.90309  0.34602  1.0000
  C   C1025     1.0  0.56012  0.88996  0.34668  1.0000
  C   C1026     1.0  0.54727  0.88879  0.32502  1.0000
  C   C1027     1.0  0.55024  0.90075  0.30265  1.0000
  C   C1028     1.0  0.56634  0.91363  0.30148  1.0000
  C   C1029     1.0  0.57919  0.91478  0.32309  1.0000
  H   H1011     1.0  0.55760  0.88087  0.36414  1.0000
  H   H1012     1.0  0.53487  0.87872  0.32594  1.0000
  H   H1013     1.0  0.56878  0.92291  0.28437  1.0000
  H   H1014     1.0  0.59152  0.92500  0.32247  1.0000
  H   H1015     1.0  0.57120  0.99845  0.29945  1.0000
  H   H1016     1.0  0.59354  0.79771  0.00715  1.0000
  C   C1030     1.0  0.58849  0.78523  0.46184  1.0000
  C   C1031     1.0  0.56222  0.90850  0.43462  1.0000
  C   C1032     1.0  0.59381  0.81495  0.46304  1.0000
  C   C1033     1.0  0.58105  0.81195  0.44040  1.0000
  C   C1034     1.0  0.57235  0.79560  0.42806  1.0000
  C   C1035     1.0  0.57609  0.78233  0.43856  1.0000
  C   C1036     1.0  0.65864  0.76805  0.39276  1.0000
  C   C1037     1.0  0.33580  0.87517  0.48956  1.0000
  H   H1017     1.0  0.56245  0.79312  0.41054  1.0000
  H   H1018     1.0  0.56908  0.76980  0.42916  1.0000
  S   S358      1.0  0.60394  0.90370  0.45792  1.0000
  H   H1019     1.0  0.38800  0.88436  0.16653  1.0000
  H   H1020     1.0  0.55018  0.83713  0.46400  1.0000
  C   C1038     1.0  0.64545  0.75414  0.40400  1.0000
  H   H1021     1.0  0.41711  0.95003  0.11782  1.0000
  C   C1039     1.0  0.33651  0.90096  0.35902  1.0000
  N   N87       1.0  0.40176  0.90355  0.13741  1.0000
  N   N88       1.0  0.54973  0.88250  0.20072  1.0000
  C   C1040     1.0  0.55930  0.88822  0.22722  1.0000
  C   C1041     1.0  0.55716  0.88556  0.17351  1.0000
  C   C1042     1.0  0.57659  0.89826  0.22684  1.0000
  C   C1043     1.0  0.57439  0.89566  0.17219  1.0000
  C   C1044     1.0  0.58412  0.90216  0.19907  1.0000
  C   C1045     1.0  0.53150  0.87260  0.20150  1.0000
  H   H1022     1.0  0.55351  0.88528  0.24882  1.0000
  H   H1023     1.0  0.54971  0.88045  0.15257  1.0000
  H   H1024     1.0  0.58399  0.90319  0.24795  1.0000
  H   H1025     1.0  0.58002  0.89857  0.15038  1.0000
  H   H1026     1.0  0.59744  0.91023  0.19836  1.0000
  H   H1027     1.0  0.52875  0.85912  0.20206  1.0000
  H   H1028     1.0  0.52635  0.87620  0.22170  1.0000
  H   H1029     1.0  0.52471  0.87486  0.18129  1.0000
  C   C1046     1.0  0.57937  0.98978  0.22805  1.0000
  H   H1030     1.0  0.51950  0.90271  0.36332  1.0000
  C   C1047     1.0  0.65333  0.91497  0.41898  1.0000
  C   C1048     1.0  0.39062  0.90925  0.12457  1.0000
  C   C1049     1.0  0.54970  0.80876  0.48624  1.0000
  C   C1050     1.0  0.41288  0.93693  0.12285  1.0000
  H   H1031     1.0  0.56826  0.94242  0.35343  1.0000
  C   C1051     1.0  0.39561  0.88612  0.14628  1.0000
  C   C1052     1.0  0.55982  0.93214  0.36613  1.0000
  C   C1053     1.0  0.42414  0.93102  0.13609  1.0000
  H   H1032     1.0  0.65614  0.77840  0.38459  1.0000
  H   H1033     1.0  0.53069  0.89434  0.40971  1.0000
  C   C1054     1.0  0.63241  0.77332  0.47018  1.0000
  H   H1034     1.0  0.39142  0.99323  0.31872  1.0000
  C   C1055     1.0  0.34082  0.90056  0.32868  1.0000
  H   H1035     1.0  0.38704  0.93048  0.10717  1.0000
  H   H1036     1.0  0.54044  0.80586  0.46737  1.0000
  C   C1056     1.0  0.56590  0.92699  0.39210  1.0000
  H   H1037     1.0  0.38777  0.87757  0.12748  1.0000
  C   C1057     1.0  0.65159  0.76005  0.48240  1.0000
  C   C1058     1.0  0.53188  0.98181  0.20715  1.0000
  H   H1038     1.0  0.54986  0.78423  0.48450  1.0000
  H   H1039     1.0  0.63940  0.81461  0.99752  1.0000
  Fe  Fe180     1.0  0.58331  0.88314  0.48094  1.0000
  H   H1040     1.0  0.42715  0.90975  0.15369  1.0000
  C   C1059     1.0  0.57202  0.98723  0.25611  1.0000
  H   H1041     1.0  0.41101  0.98063  0.31557  1.0000
  H   H1042     1.0  0.60059  0.82742  0.47283  1.0000
  C   C1060     1.0  0.41835  0.91418  0.14307  1.0000
  C   C1061     1.0  0.59741  0.80164  0.47380  1.0000
  C   C1062     1.0  0.52597  0.98594  0.23347  1.0000
  C   C1063     1.0  0.53247  0.90978  0.37166  1.0000
  S   S359      1.0  0.59240  0.76876  0.47859  1.0000
  H   H1043     1.0  0.57914  0.93344  0.39935  1.0000
  H   H1044     1.0  0.55119  0.99029  0.17480  1.0000
  H   H1045     1.0  0.35304  0.90914  0.32171  1.0000
  C   C1064     1.0  0.53893  0.90504  0.39769  1.0000
  H   H1046     1.0  0.33482  0.87971  0.12940  1.0000
  H   H1047     1.0  0.56360  0.91722  0.45405  1.0000
  H   H1048     1.0  0.53832  0.92681  0.33494  1.0000
  H   H1049     1.0  0.57475  0.90857  0.43056  1.0000
  H   H1050     1.0  0.40617  0.88256  0.15262  1.0000
  C   C1065     1.0  0.39603  0.92597  0.11683  1.0000
  C   C1066     1.0  0.65956  0.90879  0.44334  1.0000
  H   H1051     1.0  0.62444  0.76449  0.45179  1.0000
  H   H1052     1.0  0.34550  0.90992  0.37515  1.0000
  H   H1053     1.0  0.52539  0.96947  0.19643  1.0000
  H   H1054     1.0  0.43295  0.99245  0.32479  1.0000
  N   N89       1.0  0.64936  0.77355  0.47159  1.0000
  C   C1067     1.0  0.33110  0.88427  0.10900  1.0000
  C   C1068     1.0  0.54624  0.99358  0.19480  1.0000
  C   C1069     1.0  0.43470  0.99493  0.26111  1.0000
  H   H1055     1.0  0.65949  0.93021  0.37972  1.0000
  H   H1056     1.0  0.44600  0.99274  0.26451  1.0000
  H   H1057     1.0  0.60700  0.80405  0.49186  1.0000
  C   C1070     1.0  0.33312  0.90701  0.07707  1.0000
  H   H1058     1.0  0.33844  0.92023  0.07283  1.0000
  C   C1071     1.0  0.33521  0.87332  0.45797  1.0000
  H   H1059     1.0  0.63287  0.75373  0.40427  1.0000
  H   H1060     1.0  0.41858  0.98449  0.35493  1.0000
  H   H1061     1.0  0.52385  0.75282  0.99796  1.0000
  H   H1062     1.0  0.66074  0.79716  0.45106  1.0000
  H   H1063     1.0  0.32761  0.84503  0.40281  1.0000
  H   H1064     1.0  0.64092  0.74923  0.48962  1.0000
  H   H1065     1.0  0.33363  0.88556  0.64271  1.0000
  Fe  Fe181     1.0  0.58788  0.85006  0.96874  1.0000
  H   H1066     1.0  0.36282  0.87908  0.83543  1.0000
  H   H1067     1.0  0.33007  0.92595  0.67939  1.0000
  Fe  Fe182     1.0  0.57956  0.87199  0.92335  1.0000
  S   S360      1.0  0.59709  0.89605  0.94727  1.0000
  S   S361      1.0  0.56222  0.86967  0.88146  1.0000
  Fe  Fe183     1.0  0.61528  0.88378  0.95156  1.0000
  S   S362      1.0  0.64404  0.89526  0.95337  1.0000
  H   H1068     1.0  0.38070  0.89011  0.86124  1.0000
  S   S363      1.0  0.56415  0.88622  0.51193  1.0000
  S   S364      1.0  0.59860  0.86052  0.92445  1.0000
  S   S365      1.0  0.56747  0.85974  0.96614  1.0000
  Fe  Fe184     1.0  0.54918  0.92705  0.74875  1.0000
  S   S366      1.0  0.56645  0.94306  0.71437  1.0000
  S   S367      1.0  0.56337  0.92721  0.79386  1.0000
  Fe  Fe185     1.0  0.51783  0.92035  0.70679  1.0000
  S   S368      1.0  0.53335  0.93552  0.66953  1.0000
  S   S369      1.0  0.48913  0.90795  0.69680  1.0000
  Fe  Fe186     1.0  0.55095  0.92305  0.67926  1.0000
  S   S370      1.0  0.56725  0.91545  0.64763  1.0000
  Fe  Fe187     1.0  0.54765  0.95414  0.70732  1.0000
  S   S371      1.0  0.55263  0.98137  0.70102  1.0000
  S   S372      1.0  0.53459  0.90637  0.71430  1.0000
  S   S373      1.0  0.53122  0.93967  0.74386  1.0000
  Fe  Fe188     1.0  0.40357  0.92518  0.72340  1.0000
  S   S374      1.0  0.39635  0.94058  0.69006  1.0000
  S   S375      1.0  0.43149  0.93089  0.73572  1.0000
  Fe  Fe189     1.0  0.36728  0.90895  0.74543  1.0000
  S   S376      1.0  0.35782  0.92328  0.71363  1.0000
  S   S377      1.0  0.34973  0.88899  0.77579  1.0000
  Fe  Fe190     1.0  0.37255  0.91742  0.67828  1.0000
  S   S378      1.0  0.36416  0.91475  0.62763  1.0000
  Fe  Fe191     1.0  0.38204  0.94534  0.72716  1.0000
  S   S379      1.0  0.38074  0.97044  0.73359  1.0000
  S   S380      1.0  0.38084  0.90148  0.70913  1.0000
  S   S381      1.0  0.39045  0.93145  0.76174  1.0000
  C   C1072     1.0  0.54625  0.91683  0.89030  1.0000
  C   C1073     1.0  0.54169  0.89079  0.91593  1.0000
  C   C1074     1.0  0.65810  0.75123  0.88280  1.0000
  H   H1069     1.0  0.63811  0.90498  0.89224  1.0000
  C   C1075     1.0  0.37491  0.89038  0.83849  1.0000
  S   S382      1.0  0.63591  0.75190  0.96182  1.0000
  H   H1070     1.0  0.51769  0.97926  0.71136  1.0000
  H   H1071     1.0  0.63207  0.78661  0.97347  1.0000
  C   C1076     1.0  0.34536  0.90155  0.60638  1.0000
  H   H1072     1.0  0.61532  0.94313  0.76630  1.0000
  H   H1073     1.0  0.60987  0.82488  0.92686  1.0000
  C   C1077     1.0  0.62724  0.79505  0.96313  1.0000
  C   C1078     1.0  0.62527  0.82167  0.96351  1.0000
  C   C1079     1.0  0.39973  0.98827  0.74190  1.0000
  H   H1074     1.0  0.57450  0.84081  0.53290  1.0000
  C   C1080     1.0  0.41496  0.98680  0.74763  1.0000
  H   H1075     1.0  0.34879  0.91820  0.80766  1.0000
  H   H1076     1.0  0.41531  0.97464  0.74628  1.0000
  C   C1081     1.0  0.47322  0.91436  0.70824  1.0000
  C   C1082     1.0  0.45700  0.90702  0.69360  1.0000
  C   C1083     1.0  0.44404  0.91182  0.70165  1.0000
  C   C1084     1.0  0.44708  0.92390  0.72481  1.0000
  C   C1085     1.0  0.46321  0.93104  0.73976  1.0000
  C   C1086     1.0  0.47625  0.92644  0.73138  1.0000
  H   H1077     1.0  0.45447  0.89760  0.67578  1.0000
  H   H1078     1.0  0.43173  0.90619  0.68991  1.0000
  H   H1079     1.0  0.46573  0.94037  0.75776  1.0000
  H   H1080     1.0  0.48859  0.93215  0.74297  1.0000
  H   H1081     1.0  0.49394  0.92664  0.64438  1.0000
  H   H1082     1.0  0.57744  0.98228  0.74875  1.0000
  C   C1087     1.0  0.50644  0.97073  0.69849  1.0000
  C   C1088     1.0  0.56549  0.89482  0.54949  1.0000
  C   C1089     1.0  0.55112  0.89604  0.56082  1.0000
  C   C1090     1.0  0.55142  0.90249  0.59049  1.0000
  C   C1091     1.0  0.56611  0.90771  0.60947  1.0000
  C   C1092     1.0  0.58046  0.90645  0.59814  1.0000
  C   C1093     1.0  0.58021  0.90014  0.56839  1.0000
  H   H1083     1.0  0.53963  0.89195  0.54655  1.0000
  H   H1084     1.0  0.54025  0.90329  0.59875  1.0000
  H   H1085     1.0  0.59191  0.91044  0.61249  1.0000
  H   H1086     1.0  0.59138  0.89932  0.56018  1.0000
  C   C1094     1.0  0.56314  0.88572  0.85671  1.0000
  C   C1095     1.0  0.57504  0.90219  0.86150  1.0000
  C   C1096     1.0  0.57489  0.91467  0.84195  1.0000
  C   C1097     1.0  0.56288  0.91086  0.81742  1.0000
  C   C1098     1.0  0.55105  0.89437  0.81250  1.0000
  C   C1099     1.0  0.55118  0.88189  0.83211  1.0000
  H   H1087     1.0  0.58429  0.90532  0.88037  1.0000
  H   H1088     1.0  0.58412  0.92739  0.84593  1.0000
  H   H1089     1.0  0.54175  0.89125  0.79371  1.0000
  H   H1090     1.0  0.54188  0.86918  0.82826  1.0000
  H   H1091     1.0  0.57208  0.79106  0.52587  1.0000
  H   H1092     1.0  0.55755  0.77997  0.91217  1.0000
  C   C1100     1.0  0.57063  0.77242  0.94739  1.0000
  C   C1101     1.0  0.56561  0.78387  0.93272  1.0000
  C   C1102     1.0  0.57086  0.80036  0.94450  1.0000
  H   H1093     1.0  0.53831  0.86863  0.94028  1.0000
  C   C1103     1.0  0.47623  0.95838  0.68869  1.0000
  H   H1094     1.0  0.62794  0.83376  0.97428  1.0000
  H   H1095     1.0  0.54319  0.76902  0.98591  1.0000
  H   H1096     1.0  0.59558  0.94547  0.76457  1.0000
  H   H1097     1.0  0.58758  0.92357  0.70119  1.0000
  C   C1104     1.0  0.55147  0.89109  0.96796  1.0000
  C   C1105     1.0  0.57970  0.99497  0.74339  1.0000
  C   C1106     1.0  0.61096  0.80074  0.92396  1.0000
  C   C1107     1.0  0.34046  0.90705  0.81836  1.0000
  H   H1098     1.0  0.56982  0.89341  0.69420  1.0000
  H   H1099     1.0  0.54196  0.90855  0.86954  1.0000
  H   H1100     1.0  0.52030  0.96159  0.66999  1.0000
  H   H1101     1.0  0.60671  0.94658  0.73070  1.0000
  C   C1108     1.0  0.34340  0.90475  0.57560  1.0000
  H   H1102     1.0  0.58484  0.76892  0.98566  1.0000
  H   H1103     1.0  0.59779  0.91728  0.79412  1.0000
  C   C1109     1.0  0.61222  0.77333  0.92415  1.0000
  H   H1104     1.0  0.55282  0.88458  0.98789  1.0000
  C   C1110     1.0  0.49547  0.93878  0.63488  1.0000
  C   C1111     1.0  0.38174  0.87938  0.79176  1.0000
  H   H1105     1.0  0.50806  0.94447  0.62507  1.0000
  H   H1106     1.0  0.60033  0.76903  0.90965  1.0000
  H   H1107     1.0  0.36919  0.86933  0.79039  1.0000
  H   H1108     1.0  0.48918  0.97725  0.72362  1.0000
  H   H1109     1.0  0.65833  0.92056  0.85383  1.0000
  C   C1112     1.0  0.35640  0.95097  0.65724  1.0000
  H   H1110     1.0  0.60256  0.79675  0.90376  1.0000
  H   H1111     1.0  0.53544  0.88369  0.89530  1.0000
  C   C1113     1.0  0.32881  0.92696  0.65509  1.0000
  C   C1114     1.0  0.33232  0.88827  0.61917  1.0000
  C   C1115     1.0  0.61512  0.81670  0.93676  1.0000
  H   H1112     1.0  0.55845  0.92720  0.88543  1.0000
  C   C1116     1.0  0.49051  0.96962  0.70527  1.0000
  S   S383      1.0  0.58772  0.82586  0.98786  1.0000
  H   H1113     1.0  0.36651  0.94637  0.65630  1.0000
  H   H1114     1.0  0.48578  0.93641  0.61610  1.0000
  N   N90       1.0  0.61681  0.79008  0.93746  1.0000
  C   C1117     1.0  0.65050  0.75618  0.93311  1.0000
  H   H1115     1.0  0.35338  0.91498  0.56545  1.0000
  C   C1118     1.0  0.32850  0.89507  0.55801  1.0000
  H   H1116     1.0  0.46373  0.95707  0.69432  1.0000
  H   H1117     1.0  0.60998  0.76417  0.94229  1.0000
  H   H1118     1.0  0.46690  0.93906  0.65379  1.0000
  H   H1119     1.0  0.34204  0.88744  0.50056  1.0000
  N   N91       1.0  0.49381  0.94965  0.65881  1.0000
  C   C1119     1.0  0.40210  0.90426  0.81581  1.0000
  C   C1120     1.0  0.41345  0.90554  0.79351  1.0000
  C   C1121     1.0  0.39272  0.88038  0.76891  1.0000
  C   C1122     1.0  0.40868  0.89355  0.76987  1.0000
  H   H1120     1.0  0.40575  0.91386  0.83370  1.0000
  H   H1121     1.0  0.42573  0.91600  0.79406  1.0000
  H   H1122     1.0  0.38871  0.87122  0.75021  1.0000
  H   H1123     1.0  0.41724  0.89469  0.75201  1.0000
  H   H1124     1.0  0.56695  0.80906  0.93294  1.0000
  H   H1125     1.0  0.33364  0.92054  0.85271  1.0000
  H   H1126     1.0  0.36104  0.96359  0.64766  1.0000
  C   C1123     1.0  0.63152  0.81086  0.97669  1.0000
  N   N92       1.0  0.38651  0.89125  0.81483  1.0000
  C   C1124     1.0  0.54322  0.88216  0.94140  1.0000
  Fe  Fe192     1.0  0.58615  0.88331  0.99029  1.0000
  C   C1125     1.0  0.60340  0.94022  0.75257  1.0000
  C   C1126     1.0  0.58091  0.77759  0.97407  1.0000
  C   C1127     1.0  0.55822  0.90848  0.96869  1.0000
  C   C1128     1.0  0.50786  0.96061  0.67504  1.0000
  C   C1129     1.0  0.47811  0.94825  0.66569  1.0000
  N   N93       1.0  0.34112  0.93925  0.64032  1.0000
  H   H1127     1.0  0.58035  0.88693  0.78807  1.0000
  C   C1130     1.0  0.65743  0.90442  0.92373  1.0000
  C   C1131     1.0  0.58084  0.80541  0.97154  1.0000
  C   C1132     1.0  0.55652  0.91673  0.94275  1.0000
  H   H1128     1.0  0.56603  0.87483  0.73788  1.0000
  H   H1129     1.0  0.65765  0.93689  0.95385  1.0000
  C   C1133     1.0  0.65148  0.90839  0.89639  1.0000
  H   H1130     1.0  0.56485  0.91546  0.98925  1.0000
  C   C1134     1.0  0.33973  0.94012  0.60950  1.0000
  N   N94       1.0  0.59392  0.92213  0.74794  1.0000
  C   C1135     1.0  0.58621  0.91556  0.72024  1.0000
  C   C1136     1.0  0.59206  0.91200  0.77197  1.0000
  C   C1137     1.0  0.57616  0.89845  0.71615  1.0000
  C   C1138     1.0  0.58216  0.89482  0.76868  1.0000
  C   C1139     1.0  0.57406  0.88805  0.74061  1.0000
  H   H1131     1.0  0.58449  0.81959  0.55020  1.0000
  H   H1132     1.0  0.56181  0.93026  0.94350  1.0000
  H   H1133     1.0  0.37169  0.90138  0.83748  1.0000
  H   H1134     1.0  0.62258  0.77309  0.91060  1.0000
  C   C1140     1.0  0.33836  0.89136  0.80685  1.0000
  H   H1135     1.0  0.35409  0.95247  0.68145  1.0000
  C   C1141     1.0  0.58576  0.79389  0.98628  1.0000
  H   H1136     1.0  0.53678  0.92197  0.89441  1.0000
  N   N95       1.0  0.54836  0.90787  0.91680  1.0000
  C   C1142     1.0  0.56956  0.99792  0.72082  1.0000
  H   H1137     1.0  0.34986  0.94934  0.59764  1.0000
  C   C1143     1.0  0.56890  0.82834  0.52247  1.0000
  C   C1144     1.0  0.55496  0.79647  0.49585  1.0000
  S   S384      1.0  0.56273  0.75149  0.93302  1.0000
  C   C1145     1.0  0.56749  0.80034  0.51906  1.0000
  C   C1146     1.0  0.57454  0.81637  0.53250  1.0000
  C   C1147     1.0  0.53606  0.75531  0.98784  1.0000
  C   C1148     1.0  0.33184  0.90833  0.84397  1.0000
  N   N96       1.0  0.55673  0.82447  0.49944  1.0000
  H   H1138     1.0  0.55928  0.84981  0.49766  1.0000
  H   H1139     1.0  0.53800  0.83411  0.49736  1.0000
  H   H1140     1.0  0.32788  0.86247  0.53125  1.0000
  C   C1149     1.0  0.32793  0.86115  0.50677  1.0000
  H   H1141     1.0  0.53358  0.74986  0.96431  1.0000
  C   C1150     1.0  0.32754  0.87703  0.82132  1.0000
  Fe  Fe193     1.0  0.92950  0.21289  0.12781  1.0000
  S   S385      1.0  0.92434  0.19373  0.09027  1.0000
  S   S386      1.0  0.91169  0.22519  0.13627  1.0000
  Fe  Fe194     1.0  0.96103  0.20924  0.15277  1.0000
  S   S387      1.0  0.95796  0.18947  0.11671  1.0000
  H   H1142     1.0  0.73951  0.17924  0.46239  1.0000
  Fe  Fe195     1.0  0.95236  0.20612  0.08388  1.0000
  S   S388      1.0  0.95941  0.21023  0.03435  1.0000
  Fe  Fe196     1.0  0.93005  0.17853  0.12579  1.0000
  S   S389      1.0  0.91511  0.14998  0.12502  1.0000
  S   S390      1.0  0.95688  0.22646  0.11897  1.0000
  S   S391      1.0  0.93371  0.19711  0.16428  1.0000
  Fe  Fe197     1.0  0.70344  0.13963  0.07069  1.0000
  S   S392      1.0  0.70323  0.11696  0.04575  1.0000
  S   S393      1.0  0.68556  0.14001  0.10696  1.0000
  Fe  Fe198     1.0  0.73013  0.16417  0.03078  1.0000
  H   H1143     1.0  0.77215  0.00540  0.05715  1.0000
  S   S394      1.0  0.74528  0.19126  0.01764  1.0000
  H   H1144     1.0  0.88898  0.24125  0.13230  1.0000
  S   S395      1.0  0.69953  0.12210  0.44765  1.0000
  Fe  Fe199     1.0  0.73148  0.13118  0.04731  1.0000
  S   S396      1.0  0.75273  0.12258  0.05049  1.0000
  S   S397      1.0  0.70154  0.15255  0.02762  1.0000
  S   S398      1.0  0.73191  0.15297  0.07545  1.0000
  Fe  Fe200     1.0  0.81851  0.07439  0.13449  1.0000
  S   S399      1.0  0.79801  0.06415  0.16810  1.0000
  S   S400      1.0  0.83718  0.10202  0.14253  1.0000
  Fe  Fe201     1.0  0.79947  0.04419  0.08948  1.0000
  S   S401      1.0  0.77777  0.03257  0.11945  1.0000
  S   S402      1.0  0.80087  0.03581  0.04071  1.0000
  Fe  Fe202     1.0  0.77987  0.05870  0.12750  1.0000
  S   S403      1.0  0.75665  0.06429  0.12883  1.0000
  Fe  Fe203     1.0  0.79754  0.03877  0.15797  1.0000
  S   S404      1.0  0.79543  0.01788  0.19072  1.0000
  S   S405      1.0  0.79999  0.06991  0.09466  1.0000
  S   S406      1.0  0.81957  0.04927  0.12722  1.0000
  C   C1151     1.0  0.78707  0.01740  0.01986  1.0000
  H   H1145     1.0  0.66291  0.09415  0.00802  1.0000
  C   C1152     1.0  0.97921  0.21997  0.01749  1.0000
  H   H1146     1.0  0.82595  0.03804  0.24190  1.0000
  C   C1153     1.0  0.74176  0.06031  0.04007  1.0000
  H   H1147     1.0  0.68825  0.10960  0.12846  1.0000
  C   C1154     1.0  0.69903  0.17463  0.45135  1.0000
  H   H1148     1.0  0.71912  0.18846  0.48456  1.0000
  C   C1155     1.0  0.70625  0.15884  0.41375  1.0000
  C   C1156     1.0  0.79825  0.10640  0.15704  1.0000
  C   C1157     1.0  0.78119  0.02192  0.24413  1.0000
  H   H1149     1.0  0.66697  0.07833  0.41228  1.0000
  H   H1150     1.0  0.78409  0.03457  0.23751  1.0000
  C   C1158     1.0  0.67635  0.12630  0.13677  1.0000
  C   C1159     1.0  0.92056  0.24494  0.08638  1.0000
  H   H1151     1.0  0.88488  0.19998  0.09729  1.0000
  S   S407      1.0  0.82299  0.23939  0.05106  1.0000
  C   C1160     1.0  0.89728  0.24541  0.11377  1.0000
  C   C1161     1.0  0.68144  0.11900  0.42355  1.0000
  C   C1162     1.0  0.68020  0.11205  0.39413  1.0000
  H   H1152     1.0  0.74734  0.16613  0.42243  1.0000
  H   H1153     1.0  0.81732  0.12323  0.12968  1.0000
  H   H1154     1.0  0.69021  0.10882  0.38672  1.0000
  H   H1155     1.0  0.94514  0.23628  0.23409  1.0000
  C   C1163     1.0  0.75540  0.08031  0.10666  1.0000
  C   C1164     1.0  0.74085  0.08350  0.10662  1.0000
  C   C1165     1.0  0.73961  0.09625  0.08909  1.0000
  C   C1166     1.0  0.75297  0.10584  0.07157  1.0000
  C   C1167     1.0  0.76743  0.10257  0.07152  1.0000
  C   C1168     1.0  0.76867  0.08991  0.08904  1.0000
  H   H1156     1.0  0.73052  0.07613  0.12026  1.0000
  H   H1157     1.0  0.72843  0.09875  0.08935  1.0000
  H   H1158     1.0  0.77785  0.11002  0.05815  1.0000
  H   H1159     1.0  0.77997  0.08773  0.08908  1.0000
  C   C1169     1.0  0.97874  0.21380  0.24384  1.0000
  C   C1170     1.0  0.79433  0.21006  0.05224  1.0000
  C   C1171     1.0  0.77726  0.19922  0.04541  1.0000
  C   C1172     1.0  0.76685  0.20456  0.02759  1.0000
  H   H1160     1.0  0.77213  0.18678  0.05414  1.0000
  H   H1161     1.0  0.96664  0.20439  0.23552  1.0000
  H   H1162     1.0  0.80008  0.13872  0.11426  1.0000
  H   H1163     1.0  0.79162  0.06369  0.02373  1.0000
  C   C1173     1.0  0.69442  0.16391  0.42575  1.0000
  H   H1164     1.0  0.80573  0.09961  0.16378  1.0000
  C   C1174     1.0  0.89324  0.13697  0.12903  1.0000
  C   C1175     1.0  0.88174  0.14333  0.13807  1.0000
  C   C1176     1.0  0.86471  0.13245  0.14187  1.0000
  C   C1177     1.0  0.85880  0.11507  0.13638  1.0000
  C   C1178     1.0  0.87023  0.10874  0.12684  1.0000
  C   C1179     1.0  0.88731  0.11961  0.12337  1.0000
  H   H1165     1.0  0.88604  0.15660  0.14273  1.0000
  H   H1166     1.0  0.85608  0.13754  0.14943  1.0000
  H   H1167     1.0  0.86599  0.09545  0.12261  1.0000
  H   H1168     1.0  0.89603  0.11446  0.11649  1.0000
  C   C1180     1.0  0.66603  0.10903  0.37420  1.0000
  H   H1169     1.0  0.70240  0.15004  0.39448  1.0000
  S   S408      1.0  0.73118  0.14311  0.00286  1.0000
  C   C1181     1.0  0.77523  0.01679  0.27315  1.0000
  N   N97       1.0  0.76506  0.05423  0.02597  1.0000
  H   H1170     1.0  0.73096  0.14528  0.42274  1.0000
  H   H1171     1.0  0.97132  0.23422  0.47710  1.0000
  H   H1172     1.0  0.93030  0.24046  0.08357  1.0000
  C   C1182     1.0  0.73718  0.04741  0.06046  1.0000
  C   C1183     1.0  0.88323  0.22298  0.03880  1.0000
  H   H1173     1.0  0.77985  0.04627  0.99806  1.0000
  C   C1184     1.0  0.95697  0.15877  0.06408  1.0000
  C   C1185     1.0  0.92984  0.15930  0.02954  1.0000
  C   C1186     1.0  0.82199  0.01299  0.25307  1.0000
  H   H1174     1.0  0.75996  0.10681  0.16605  1.0000
  C   C1187     1.0  0.77264  0.11069  0.15834  1.0000
  C   C1188     1.0  0.94054  0.14832  0.07112  1.0000
  H   H1175     1.0  0.75545  0.12531  0.13019  1.0000
  C   C1189     1.0  0.76069  0.04161  0.04603  1.0000
  C   C1190     1.0  0.86034  0.23152  0.04225  1.0000
  H   H1176     1.0  0.74365  0.02840  0.08023  1.0000
  C   C1191     1.0  0.80477  0.11975  0.13787  1.0000
  H   H1177     1.0  0.90000  0.20885  0.06962  1.0000
  C   C1192     1.0  0.76923  0.13331  0.13100  1.0000
  C   C1193     1.0  0.92691  0.14865  0.05377  1.0000
  H   H1178     1.0  0.98177  0.19089  0.05158  1.0000
  H   H1179     1.0  0.77672  0.09101  0.18141  1.0000
  N   N98       1.0  0.72225  0.16438  0.42675  1.0000
  H   H1180     1.0  0.89465  0.22411  0.02822  1.0000
  H   H1181     1.0  0.77208  0.14383  0.14762  1.0000
  H   H1182     1.0  0.80176  0.02883  0.47536  1.0000
  C   C1194     1.0  0.98324  0.21564  0.27521  1.0000
  N   N99       1.0  0.95975  0.16909  0.04015  1.0000
  H   H1183     1.0  0.66522  0.10356  0.35175  1.0000
  C   C1195     1.0  0.78004  0.05795  0.00849  1.0000
  H   H1184     1.0  0.72673  0.04517  0.07485  1.0000
  H   H1185     1.0  0.75968  0.07406  0.00804  1.0000
  C   C1196     1.0  0.90984  0.23948  0.11034  1.0000
  H   H1186     1.0  0.73479  0.06809  0.03836  1.0000
  C   C1197     1.0  0.71538  0.18026  0.46443  1.0000
  C   C1198     1.0  0.66842  0.12316  0.43266  1.0000
  C   C1199     1.0  0.74672  0.03803  0.06358  1.0000
  C   C1200     1.0  0.73407  0.15810  0.41476  1.0000
  H   H1187     1.0  0.85873  0.20351  0.09524  1.0000
  H   H1188     1.0  0.84327  0.22028  0.07726  1.0000
  H   H1189     1.0  0.96747  0.15885  0.07834  1.0000
  S   S409      1.0  0.98514  0.22225  0.18350  1.0000
  N   N100      1.0  0.77907  0.12374  0.13938  1.0000
  C   C1201     1.0  0.79497  0.12839  0.12929  1.0000
  H   H1190     1.0  0.93367  0.24369  0.18859  1.0000
  N   N101      1.0  0.87750  0.21276  0.06266  1.0000
  H   H1191     1.0  0.73326  0.15767  0.38958  1.0000
  C   C1202     1.0  0.79095  0.23164  0.02320  1.0000
  H   H1192     1.0  0.66916  0.12852  0.45517  1.0000
  C   C1203     1.0  0.78208  0.10175  0.16728  1.0000
  H   H1193     1.0  0.77205  0.13833  0.10794  1.0000
  C   C1204     1.0  0.88622  0.20240  0.07268  1.0000
  C   C1205     1.0  0.94645  0.16947  0.02294  1.0000
  H   H1194     1.0  0.68990  0.17843  0.46122  1.0000
  C   C1206     1.0  0.72690  0.17497  0.45177  1.0000
  C   C1207     1.0  0.77394  0.00448  0.03323  1.0000
  C   C1208     1.0  0.79361  0.01815  0.48743  1.0000
  H   H1195     1.0  0.76817  0.03441  0.04890  1.0000
  C   C1209     1.0  0.77204  0.00061  0.28287  1.0000
  C   C1210     1.0  0.82245  0.02878  0.25927  1.0000
  C   C1211     1.0  0.81744  0.03223  0.28717  1.0000
  H   H1196     1.0  0.95422  0.22446  0.21317  1.0000
  H   H1197     1.0  0.82511  0.01002  0.23086  1.0000
  C   C1212     1.0  0.95638  0.23711  0.22203  1.0000
  C   C1213     1.0  0.77385  0.22081  0.01644  1.0000
  H   H1198     1.0  0.88107  0.19031  0.05963  1.0000
  H   H1199     1.0  0.97447  0.20760  0.29078  1.0000
  H   H1200     1.0  0.77353  0.02560  0.28853  1.0000
  N   N102      1.0  0.95965  0.24851  0.19685  1.0000
  C   C1214     1.0  0.67953  0.11218  0.14212  1.0000
  H   H1201     1.0  0.85373  0.23894  0.03453  1.0000
  C   C1215     1.0  0.78436  0.01101  0.22453  1.0000
  C   C1216     1.0  0.80132  0.22636  0.04129  1.0000
  H   H1202     1.0  0.96728  0.24139  0.23897  1.0000
  C   C1217     1.0  0.78377  0.00306  0.47118  1.0000
  Fe  Fe204     1.0  0.70289  0.13064  0.00290  1.0000
  H   H1203     1.0  0.68165  0.15920  0.41563  1.0000
  H   H1204     1.0  0.80217  0.20580  0.06628  1.0000
  H   H1205     1.0  0.87972  0.24120  0.01023  1.0000
  H   H1206     1.0  0.67394  0.09047  0.16927  1.0000
  C   C1218     1.0  0.85449  0.22099  0.06636  1.0000
  C   C1219     1.0  0.87480  0.23259  0.02836  1.0000
  C   C1220     1.0  0.98101  0.23104  0.48770  1.0000
  C   C1221     1.0  0.75592  0.06368  0.02310  1.0000
  C   C1222     1.0  0.86326  0.21159  0.07633  1.0000
  H   H1207     1.0  0.93830  0.14045  0.09062  1.0000
  C   C1223     1.0  0.67138  0.10134  0.16529  1.0000
  H   H1208     1.0  0.81715  0.04426  0.29173  1.0000
  C   C1224     1.0  0.97709  0.18047  0.03425  1.0000
  H   H1209     1.0  0.91410  0.14099  0.05975  1.0000
  C   C1225     1.0  0.81184  0.01972  0.30842  1.0000
  H   H1210     1.0  0.91933  0.15995  0.01637  1.0000
  H   H1211     1.0  0.80714  0.02224  0.32941  1.0000
  C   C1226     1.0  0.99000  0.22395  0.22339  1.0000
  H   H1212     1.0  0.78439  0.00221  0.44685  1.0000
  H   H1213     1.0  0.76596  0.22511  0.00263  1.0000
  H   H1214     1.0  0.79606  0.24411  0.01460  1.0000
  H   H1215     1.0  0.98554  0.17383  0.03497  1.0000
  C   C1227     1.0  0.66495  0.12940  0.15488  1.0000
  H   H1216     1.0  0.94861  0.17801  0.00450  1.0000
  H   H1217     1.0  0.97789  0.18606  0.01161  1.0000
  N   N103      1.0  0.81141  0.00424  0.30212  1.0000
  H   H1218     1.0  0.66546  0.12312  0.00297  1.0000
  H   H1219     1.0  0.66242  0.14031  0.15104  1.0000
  C   C1228     1.0  0.81643  0.00081  0.27491  1.0000
  H   H1220     1.0  0.79585  0.09035  0.49398  1.0000
  S   S410      1.0  0.73922  0.14829  0.49458  1.0000
  Fe  Fe205     1.0  0.92760  0.21278  0.62774  1.0000
  S   S411      1.0  0.92334  0.19639  0.58624  1.0000
  C   C1229     1.0  0.78265  0.00549  0.53446  1.0000
  Fe  Fe206     1.0  0.95951  0.20866  0.64924  1.0000
  S   S412      1.0  0.95715  0.19144  0.60889  1.0000
  H   H1221     1.0  0.78230  0.00623  0.55887  1.0000
  Fe  Fe207     1.0  0.95130  0.20976  0.58092  1.0000
  S   S413      1.0  0.95970  0.22060  0.53460  1.0000
  Fe  Fe208     1.0  0.92914  0.17922  0.61732  1.0000
  S   S414      1.0  0.91308  0.15110  0.60815  1.0000
  S   S415      1.0  0.95495  0.22753  0.62038  1.0000
  S   S416      1.0  0.93203  0.19503  0.65977  1.0000
  Fe  Fe209     1.0  0.71234  0.13539  0.56539  1.0000
  S   S417      1.0  0.71417  0.11666  0.53171  1.0000
  S   S418      1.0  0.70181  0.12411  0.61069  1.0000
  Fe  Fe210     1.0  0.73613  0.16530  0.52971  1.0000
  C   C1230     1.0  0.86778  0.07322  0.63799  1.0000
  H   H1222     1.0  0.70735  0.13578  0.91307  1.0000
  H   H1223     1.0  0.73509  0.18429  0.95526  1.0000
  S   S419      1.0  0.68703  0.11454  0.96180  1.0000
  Fe  Fe211     1.0  0.74173  0.13326  0.53339  1.0000
  S   S420      1.0  0.76348  0.12548  0.53533  1.0000
  S   S421      1.0  0.70757  0.15103  0.52853  1.0000
  S   S422      1.0  0.74046  0.15120  0.56870  1.0000
  Fe  Fe212     1.0  0.82235  0.07319  0.63723  1.0000
  S   S423      1.0  0.79975  0.06349  0.66651  1.0000
  S   S424      1.0  0.84510  0.09661  0.65606  1.0000
  Fe  Fe213     1.0  0.80424  0.04579  0.58762  1.0000
  S   S425      1.0  0.78067  0.03457  0.61297  1.0000
  S   S426      1.0  0.80647  0.03847  0.53872  1.0000
  Fe  Fe214     1.0  0.78447  0.06103  0.62290  1.0000
  S   S427      1.0  0.76137  0.06679  0.61867  1.0000
  Fe  Fe215     1.0  0.79770  0.03768  0.65482  1.0000
  S   S428      1.0  0.79097  0.01475  0.68463  1.0000
  S   S429      1.0  0.80691  0.07226  0.59461  1.0000
  S   S430      1.0  0.82148  0.04740  0.62847  1.0000
  C   C1231     1.0  0.79320  0.01943  0.51916  1.0000
  S   S431      1.0  0.74953  0.19353  0.52290  1.0000
  C   C1232     1.0  0.78040  0.01911  0.77304  1.0000
  H   H1224     1.0  0.77735  0.04484  0.54219  1.0000
  C   C1233     1.0  0.74906  0.15549  0.93432  1.0000
  H   H1225     1.0  0.79152  0.03607  0.73708  1.0000
  H   H1226     1.0  0.93399  0.24606  0.59817  1.0000
  C   C1234     1.0  0.78268  0.01048  0.72133  1.0000
  C   C1235     1.0  0.81319  0.00858  0.79511  1.0000
  C   C1236     1.0  0.67591  0.13376  0.74386  1.0000
  C   C1237     1.0  0.78527  0.02315  0.74308  1.0000
  H   H1227     1.0  0.73938  0.03285  0.53540  1.0000
  H   H1228     1.0  0.78297  0.02905  0.78985  1.0000
  C   C1238     1.0  0.68410  0.12143  0.63236  1.0000
  C   C1239     1.0  0.76528  0.18285  0.95920  1.0000
  C   C1240     1.0  0.67347  0.12947  0.62580  1.0000
  H   H1229     1.0  0.70809  0.16244  0.93429  1.0000
  H   H1230     1.0  0.66251  0.14990  0.70794  1.0000
  C   C1241     1.0  0.67450  0.11635  0.93005  1.0000
  C   C1242     1.0  0.66753  0.10298  0.90853  1.0000
  H   H1231     1.0  0.86003  0.06953  0.65818  1.0000
  H   H1232     1.0  0.67571  0.13742  0.60655  1.0000
  H   H1233     1.0  0.66968  0.09181  0.91183  1.0000
  H   H1234     1.0  0.73358  0.13110  0.91398  1.0000
  C   C1243     1.0  0.76205  0.08299  0.59511  1.0000
  C   C1244     1.0  0.77732  0.09447  0.58495  1.0000
  C   C1245     1.0  0.77756  0.10743  0.56652  1.0000
  C   C1246     1.0  0.76257  0.10907  0.55842  1.0000
  C   C1247     1.0  0.74729  0.09766  0.56870  1.0000
  C   C1248     1.0  0.74703  0.08458  0.58689  1.0000
  H   H1235     1.0  0.78898  0.09352  0.59150  1.0000
  H   H1236     1.0  0.78942  0.11627  0.55867  1.0000
  H   H1237     1.0  0.73568  0.09886  0.56253  1.0000
  H   H1238     1.0  0.73518  0.07575  0.59480  1.0000
  H   H1239     1.0  0.73836  0.04856  0.56144  1.0000
  C   C1249     1.0  0.79558  0.23337  0.52292  1.0000
  C   C1250     1.0  0.67161  0.13070  0.92530  1.0000
  C   C1251     1.0  0.77163  0.20631  0.52870  1.0000
  C   C1252     1.0  0.78261  0.20075  0.54424  1.0000
  C   C1253     1.0  0.79985  0.21151  0.54953  1.0000
  N   N104      1.0  0.88325  0.08841  0.64412  1.0000
  C   C1254     1.0  0.86958  0.20979  0.57290  1.0000
  H   H1240     1.0  0.68623  0.13550  0.76107  1.0000
  H   H1241     1.0  0.66636  0.13651  0.79931  1.0000
  C   C1255     1.0  0.89224  0.13827  0.61884  1.0000
  C   C1256     1.0  0.88666  0.14013  0.64732  1.0000
  C   C1257     1.0  0.87167  0.12769  0.65760  1.0000
  C   C1258     1.0  0.86185  0.11338  0.63942  1.0000
  C   C1259     1.0  0.86686  0.11205  0.61017  1.0000
  C   C1260     1.0  0.88206  0.12429  0.60017  1.0000
  H   H1242     1.0  0.89436  0.15068  0.66212  1.0000
  H   H1243     1.0  0.86798  0.12890  0.68026  1.0000
  H   H1244     1.0  0.85946  0.10123  0.59574  1.0000
  H   H1245     1.0  0.88624  0.12267  0.57813  1.0000
  H   H1246     1.0  0.74552  0.07011  0.52470  1.0000
  N   N105      1.0  0.74943  0.17025  0.94546  1.0000
  C   C1261     1.0  0.97828  0.22327  0.51581  1.0000
  H   H1247     1.0  0.80028  0.06639  0.51578  1.0000
  C   C1262     1.0  0.66204  0.14300  0.78256  1.0000
  H   H1248     1.0  0.81264  0.01550  0.77448  1.0000
  C   C1263     1.0  0.90987  0.22614  0.53254  1.0000
  C   C1264     1.0  0.66732  0.10887  0.67598  1.0000
  H   H1249     1.0  0.77777  0.18822  0.55258  1.0000
  C   C1265     1.0  0.89460  0.09409  0.62202  1.0000
  H   H1250     1.0  0.86377  0.20082  0.59008  1.0000
  H   H1251     1.0  0.89146  0.24260  0.51391  1.0000
  C   C1266     1.0  0.77826  0.22270  0.51810  1.0000
  H   H1252     1.0  0.80693  0.01276  0.81288  1.0000
  C   C1267     1.0  0.91189  0.11806  0.65397  1.0000
  H   H1253     1.0  0.76817  0.09208  0.49843  1.0000
  H   H1254     1.0  0.96390  0.20432  0.72983  1.0000
  C   C1268     1.0  0.78928  0.01585  0.98876  1.0000
  N   N106      1.0  0.76025  0.05638  0.53545  1.0000
  C   C1269     1.0  0.88592  0.09723  0.67107  1.0000
  H   H1255     1.0  0.97114  0.20658  0.78528  1.0000
  H   H1256     1.0  0.91723  0.23915  0.52565  1.0000
  C   C1270     1.0  0.90946  0.24066  0.61467  1.0000
  H   H1257     1.0  0.68901  0.10484  0.66294  1.0000
  Fe  Fe216     1.0  0.71115  0.13308  0.49516  1.0000
  S   S432      1.0  0.82816  0.24115  0.54829  1.0000
  H   H1258     1.0  0.76494  0.19535  0.96099  1.0000
  C   C1271     1.0  0.90031  0.11214  0.67644  1.0000
  H   H1259     1.0  0.89217  0.08742  0.60026  1.0000
  C   C1272     1.0  0.88530  0.23319  0.53023  1.0000
  N   N107      1.0  0.75676  0.12038  0.63278  1.0000
  C   C1273     1.0  0.74011  0.11769  0.62992  1.0000
  C   C1274     1.0  0.76156  0.10949  0.64815  1.0000
  C   C1275     1.0  0.72771  0.10349  0.64172  1.0000
  C   C1276     1.0  0.74949  0.09517  0.66025  1.0000
  C   C1277     1.0  0.73245  0.09214  0.65686  1.0000
  C   C1278     1.0  0.76954  0.13532  0.62016  1.0000
  H   H1260     1.0  0.73626  0.12637  0.61802  1.0000
  H   H1261     1.0  0.77473  0.11147  0.65018  1.0000
  H   H1262     1.0  0.71449  0.10127  0.63873  1.0000
  H   H1263     1.0  0.75330  0.08618  0.67120  1.0000
  H   H1264     1.0  0.72294  0.08091  0.66559  1.0000
  H   H1265     1.0  0.76466  0.13837  0.59845  1.0000
  H   H1266     1.0  0.77318  0.14611  0.63644  1.0000
  H   H1267     1.0  0.78095  0.13333  0.61469  1.0000
  H   H1268     1.0  0.84902  0.21749  0.56764  1.0000
  H   H1269     1.0  0.90834  0.21737  0.51314  1.0000
  H   H1270     1.0  0.79941  0.02574  0.97818  1.0000
  H   H1271     1.0  0.78082  0.06656  0.98992  1.0000
  C   C1279     1.0  0.74682  0.04348  0.55129  1.0000
  C   C1280     1.0  0.68094  0.11117  0.65762  1.0000
  C   C1281     1.0  0.90907  0.10899  0.62659  1.0000
  C   C1282     1.0  0.73395  0.14294  0.92227  1.0000
  H   H1272     1.0  0.66500  0.10079  0.69504  1.0000
  C   C1283     1.0  0.98033  0.21447  0.77018  1.0000
  H   H1273     1.0  0.68168  0.13794  0.72182  1.0000
  H   H1274     1.0  0.96762  0.21656  0.97230  1.0000
  C   C1284     1.0  0.86139  0.21917  0.56050  1.0000
  H   H1275     1.0  0.80808  0.20707  0.56199  1.0000
  H   H1276     1.0  0.91753  0.22371  0.55111  1.0000
  C   C1285     1.0  0.77861  0.00155  0.97123  1.0000
  H   H1277     1.0  0.75223  0.03889  0.57055  1.0000
  C   C1286     1.0  0.97942  0.22109  0.98574  1.0000
  C   C1287     1.0  0.89575  0.24517  0.61388  1.0000
  C   C1288     1.0  0.98811  0.22279  0.71871  1.0000
  H   H1278     1.0  0.77613  0.18412  0.94558  1.0000
  C   C1289     1.0  0.80648  0.22789  0.53900  1.0000
  N   N108      1.0  0.66601  0.14295  0.75296  1.0000
  H   H1279     1.0  0.80047  0.24583  0.51431  1.0000
  C   C1290     1.0  0.75747  0.06917  0.52260  1.0000
  H   H1280     1.0  0.76041  0.15321  0.93533  1.0000
  H   H1281     1.0  0.90201  0.11949  0.69724  1.0000
  H   H1282     1.0  0.91761  0.11398  0.60850  1.0000
  C   C1291     1.0  0.73494  0.17282  0.94550  1.0000
  H   H1283     1.0  0.66752  0.12024  0.74113  1.0000
  S   S433      1.0  0.98439  0.22017  0.67855  1.0000
  N   N109      1.0  0.89329  0.22400  0.54264  1.0000
  C   C1292     1.0  0.88556  0.21228  0.56346  1.0000
  H   H1284     1.0  0.99292  0.23762  0.61900  1.0000
  H   H1285     1.0  0.92259  0.13008  0.65708  1.0000
  H   H1286     1.0  0.76995  0.22716  0.50593  1.0000
  H   H1287     1.0  0.87083  0.06265  0.63093  1.0000
  H   H1288     1.0  0.76741  0.17927  0.98254  1.0000
  H   H1289     1.0  0.89194  0.20512  0.57361  1.0000
  S   S434      1.0  0.90845  0.22349  0.63584  1.0000
  C   C1293     1.0  0.71961  0.16052  0.93370  1.0000
  H   H1290     1.0  0.87652  0.09322  0.68799  1.0000
  C   C1294     1.0  0.97618  0.21314  0.73870  1.0000
  H   H1291     1.0  0.85980  0.07542  0.61972  1.0000
  C   C1295     1.0  0.71918  0.14553  0.92189  1.0000
  C   C1296     1.0  0.77528  0.05516  0.53255  1.0000
  H   H1292     1.0  0.86297  0.23829  0.52940  1.0000
  H   H1293     1.0  0.78057  0.00052  0.94741  1.0000
  C   C1297     1.0  0.77021  0.08159  0.50753  1.0000
  C   C1298     1.0  0.99085  0.21907  0.52903  1.0000
  C   C1299     1.0  0.78828  0.06731  0.51753  1.0000
  C   C1300     1.0  0.77272  0.00238  0.78168  1.0000
  C   C1301     1.0  0.66192  0.13159  0.89937  1.0000
  H   H1294     1.0  0.67675  0.14107  0.94162  1.0000
  H   H1295     1.0  0.98889  0.21296  0.55048  1.0000
  H   H1296     1.0  0.82656  0.01202  0.80262  1.0000
  C   C1302     1.0  0.86925  0.23090  0.53897  1.0000
  C   C1303     1.0  0.78576  0.08068  0.50520  1.0000
  H   H1297     1.0  0.88501  0.23846  0.62714  1.0000
  H   H1298     1.0  0.80387  0.24885  0.58639  1.0000
  Fe  Fe217     1.0  0.94002  0.39670  0.29298  1.0000
  S   S435      1.0  0.92709  0.39682  0.24802  1.0000
  S   S436      1.0  0.96800  0.40974  0.30633  1.0000
  Fe  Fe218     1.0  0.90666  0.37764  0.32379  1.0000
  S   S437      1.0  0.89102  0.37656  0.28089  1.0000
  S   S438      1.0  0.89816  0.37049  0.37201  1.0000
  Fe  Fe219     1.0  0.91002  0.37011  0.25670  1.0000
  S   S439      1.0  0.90499  0.34793  0.22402  1.0000
  Fe  Fe220     1.0  0.90923  0.40348  0.27530  1.0000
  S   S440      1.0  0.90155  0.42382  0.25751  1.0000
  S   S441      1.0  0.92450  0.36955  0.30016  1.0000
  S   S442      1.0  0.92331  0.40504  0.31960  1.0000
  C   C1304     1.0  0.93276  0.43718  0.20552  1.0000
  S   S443      1.0  0.84073  0.29052  0.03184  1.0000
  S   S444      1.0  0.86847  0.30205  0.44319  1.0000
  Fe  Fe221     1.0  0.88067  0.28187  0.04100  1.0000
  S   S445      1.0  0.86259  0.27718  0.07801  1.0000
  S   S446      1.0  0.90344  0.27553  0.04206  1.0000
  Fe  Fe222     1.0  0.84212  0.26587  0.04070  1.0000
  C   C1305     1.0  0.88685  0.36018  0.01332  1.0000
  Fe  Fe223     1.0  0.86269  0.30203  0.06638  1.0000
  S   S447      1.0  0.86229  0.32248  0.09851  1.0000
  H   H1299     1.0  0.88039  0.34711  0.05507  1.0000
  S   S448      1.0  0.88246  0.30775  0.03195  1.0000
  H   H1300     1.0  0.96555  0.40158  0.24165  1.0000
  C   C1306     1.0  0.90596  0.26205  0.06915  1.0000
  C   C1307     1.0  0.97948  0.44952  0.25495  1.0000
  N   N110      1.0  0.94894  0.44137  0.22240  1.0000
  C   C1308     1.0  0.90764  0.44430  0.27368  1.0000
  C   C1309     1.0  0.90334  0.45592  0.25786  1.0000
  C   C1310     1.0  0.90819  0.47236  0.26966  1.0000
  C   C1311     1.0  0.91739  0.47736  0.29751  1.0000
  C   C1312     1.0  0.92167  0.46573  0.31332  1.0000
  C   C1313     1.0  0.91687  0.44932  0.30151  1.0000
  H   H1301     1.0  0.89620  0.45218  0.23633  1.0000
  H   H1302     1.0  0.90478  0.48114  0.25722  1.0000
  H   H1303     1.0  0.92874  0.46943  0.33491  1.0000
  H   H1304     1.0  0.92019  0.44054  0.31408  1.0000
  C   C1314     1.0  0.89500  0.34292  0.18704  1.0000
  C   C1315     1.0  0.88464  0.35038  0.17548  1.0000
  C   C1316     1.0  0.87515  0.34436  0.14779  1.0000
  C   C1317     1.0  0.87603  0.33096  0.13123  1.0000
  C   C1318     1.0  0.88694  0.32398  0.14215  1.0000
  C   C1319     1.0  0.89628  0.32989  0.16996  1.0000
  H   H1305     1.0  0.88356  0.36045  0.18829  1.0000
  H   H1306     1.0  0.86680  0.34988  0.13949  1.0000
  H   H1307     1.0  0.88780  0.31371  0.12965  1.0000
  H   H1308     1.0  0.90429  0.32405  0.17864  1.0000
  C   C1320     1.0  0.88994  0.35123  0.39116  1.0000
  C   C1321     1.0  0.88576  0.33576  0.37632  1.0000
  C   C1322     1.0  0.87933  0.32091  0.39265  1.0000
  C   C1323     1.0  0.87722  0.32129  0.42408  1.0000
  C   C1324     1.0  0.88176  0.33680  0.43901  1.0000
  C   C1325     1.0  0.88795  0.35162  0.42261  1.0000
  H   H1309     1.0  0.88726  0.33520  0.35222  1.0000
  H   H1310     1.0  0.87584  0.30900  0.38082  1.0000
  H   H1311     1.0  0.88015  0.33735  0.46308  1.0000
  H   H1312     1.0  0.89110  0.36348  0.43440  1.0000
  C   C1326     1.0  0.87622  0.34810  0.03192  1.0000
  C   C1327     1.0  0.98301  0.41567  0.27819  1.0000
  C   C1328     1.0  0.97842  0.41006  0.24801  1.0000
  C   C1329     1.0  0.99054  0.41532  0.22596  1.0000
  N   N111      1.0  0.85978  0.32001  0.22103  1.0000
  C   C1330     1.0  0.84838  0.31936  0.19817  1.0000
  C   C1331     1.0  0.86750  0.30922  0.22055  1.0000
  C   C1332     1.0  0.84459  0.30783  0.17379  1.0000
  C   C1333     1.0  0.86393  0.29746  0.19659  1.0000
  C   C1334     1.0  0.85245  0.29684  0.17302  1.0000
  C   C1335     1.0  0.86372  0.33249  0.24591  1.0000
  H   H1313     1.0  0.84255  0.32815  0.19823  1.0000
  H   H1314     1.0  0.87695  0.31008  0.23814  1.0000
  H   H1315     1.0  0.83613  0.30783  0.15498  1.0000
  H   H1316     1.0  0.87047  0.28930  0.19578  1.0000
  H   H1317     1.0  0.85005  0.28826  0.15368  1.0000
  H   H1318     1.0  0.87431  0.33280  0.26134  1.0000
  H   H1319     1.0  0.86784  0.34517  0.23669  1.0000
  H   H1320     1.0  0.85251  0.32979  0.25944  1.0000
  N   N112      1.0  0.94247  0.37848  0.38323  1.0000
  C   C1336     1.0  0.86015  0.33715  0.02048  1.0000
  C   C1337     1.0  0.93193  0.36752  0.40261  1.0000
  C   C1338     1.0  0.95041  0.37309  0.36225  1.0000
  C   C1339     1.0  0.92851  0.35053  0.40047  1.0000
  C   C1340     1.0  0.93619  0.34484  0.37862  1.0000
  C   C1341     1.0  0.94535  0.39612  0.38549  1.0000
  H   H1321     1.0  0.96266  0.44283  0.18282  1.0000
  H   H1322     1.0  0.92551  0.37178  0.41903  1.0000
  H   H1323     1.0  0.93338  0.33163  0.37638  1.0000
  H   H1324     1.0  0.91958  0.34179  0.41511  1.0000
  H   H1325     1.0  0.93815  0.43944  0.26535  1.0000
  H   H1326     1.0  0.92627  0.44473  0.21459  1.0000
  C   C1342     1.0  0.91868  0.25628  0.06598  1.0000
  H   H1327     1.0  0.95322  0.40213  0.40635  1.0000
  H   H1328     1.0  0.95887  0.38179  0.34697  1.0000
  C   C1343     1.0  0.94731  0.35618  0.35949  1.0000
  C   C1344     1.0  0.97894  0.26673  0.16248  1.0000
  H   H1329     1.0  0.92441  0.42378  0.20794  1.0000
  H   H1330     1.0  0.98606  0.25457  0.19879  1.0000
  C   C1345     1.0  0.94931  0.26076  0.15703  1.0000
  C   C1346     1.0  0.96319  0.44401  0.20734  1.0000
  C   C1347     1.0  0.97570  0.25643  0.18739  1.0000
  C   C1348     1.0  0.89527  0.25657  0.09314  1.0000
  H   H1331     1.0  0.96517  0.44647  0.29475  1.0000
  H   H1332     1.0  0.95180  0.40308  0.36561  1.0000
  H   H1333     1.0  0.98998  0.45010  0.21150  1.0000
  H   H1334     1.0  0.93881  0.26215  0.14511  1.0000
  H   H1335     1.0  0.88545  0.26093  0.09581  1.0000
  C   C1349     1.0  0.96480  0.44619  0.27015  1.0000
  C   C1350     1.0  0.94954  0.44211  0.25341  1.0000
  H   H1336     1.0  0.95327  0.35190  0.34227  1.0000
  C   C1351     1.0  0.96563  0.26892  0.14727  1.0000
  Fe  Fe224     1.0  0.86640  0.29590  0.49369  1.0000
  H   H1337     1.0  0.93433  0.43969  0.18104  1.0000
  H   H1338     1.0  0.89940  0.36863  0.02187  1.0000
  H   H1339     1.0  0.93308  0.39722  0.38617  1.0000
  Fe  Fe225     1.0  0.86080  0.29502  0.99793  1.0000
  S   S449      1.0  0.86050  0.26948  0.00422  1.0000
  H   H1340     1.0  0.87122  0.47418  0.31853  1.0000
  C   C1352     1.0  0.97870  0.44821  0.22338  1.0000
  H   H1341     1.0  0.96789  0.27671  0.12768  1.0000
  C   C1353     1.0  0.87511  0.48541  0.33283  1.0000
  C   C1354     1.0  0.86586  0.49516  0.33190  1.0000
  H   H1342     1.0  0.92699  0.26046  0.04744  1.0000
  H   H1343     1.0  0.85467  0.49158  0.31685  1.0000
  H   H1344     1.0  0.99139  0.45263  0.26766  1.0000
  H   H1345     1.0  0.89689  0.48285  0.35242  1.0000
  C   C1355     1.0  0.88973  0.49046  0.35189  1.0000
  H   H1346     1.0  0.85195  0.32788  0.03522  1.0000
  H   H1347     1.0  0.98692  0.41078  0.20270  1.0000
  S   S450      1.0  0.92362  0.49776  0.31405  1.0000
  H   H1348     1.0  0.99165  0.27274  0.15478  1.0000
  C   C1356     1.0  0.94650  0.25040  0.18180  1.0000
  Fe  Fe226     1.0  0.94001  0.38752  0.78833  1.0000
  S   S451      1.0  0.92526  0.38926  0.74682  1.0000
  S   S452      1.0  0.96787  0.39312  0.79314  1.0000
  Fe  Fe227     1.0  0.90886  0.37435  0.82715  1.0000
  S   S453      1.0  0.89159  0.37559  0.78811  1.0000
  S   S454      1.0  0.90560  0.36711  0.87721  1.0000
  Fe  Fe228     1.0  0.90539  0.36444  0.75879  1.0000
  S   S455      1.0  0.89573  0.34065  0.72844  1.0000
  Fe  Fe229     1.0  0.91279  0.40064  0.77864  1.0000
  S   S456      1.0  0.91294  0.42500  0.76002  1.0000
  S   S457      1.0  0.92125  0.36194  0.79844  1.0000
  S   S458      1.0  0.92892  0.40016  0.81947  1.0000
  C   C1357     1.0  0.87810  0.48362  0.75301  1.0000
  S   S459      1.0  0.84448  0.29155  0.52352  1.0000
  S   S460      1.0  0.85795  0.30423  0.95046  1.0000
  Fe  Fe230     1.0  0.88522  0.28523  0.54350  1.0000
  S   S461      1.0  0.86530  0.28063  0.57679  1.0000
  H   H1349     1.0  0.91384  0.31691  0.85217  1.0000
  Fe  Fe231     1.0  0.84665  0.26778  0.53747  1.0000
  H   H1350     1.0  0.92529  0.33458  0.68779  1.0000
  Fe  Fe232     1.0  0.86478  0.30445  0.56066  1.0000
  S   S462      1.0  0.86485  0.32530  0.59205  1.0000
  C   C1358     1.0  0.92205  0.32986  0.66446  1.0000
  S   S463      1.0  0.88624  0.31014  0.52994  1.0000
  H   H1351     1.0  0.96260  0.40992  0.74009  1.0000
  N   N113      1.0  0.91916  0.33945  0.64270  1.0000
  H   H1352     1.0  0.92249  0.30602  0.67449  1.0000
  C   C1359     1.0  0.88392  0.49437  0.72917  1.0000
  C   C1360     1.0  0.91290  0.44317  0.77834  1.0000
  C   C1361     1.0  0.91963  0.45844  0.76356  1.0000
  C   C1362     1.0  0.91790  0.47270  0.77505  1.0000
  C   C1363     1.0  0.90927  0.47182  0.80142  1.0000
  C   C1364     1.0  0.90290  0.45666  0.81656  1.0000
  C   C1365     1.0  0.90479  0.44245  0.80525  1.0000
  H   H1353     1.0  0.92584  0.45915  0.74262  1.0000
  H   H1354     1.0  0.79099  0.26282  0.55198  1.0000
  H   H1355     1.0  0.89617  0.45581  0.83694  1.0000
  H   H1356     1.0  0.89938  0.43078  0.81674  1.0000
  C   C1366     1.0  0.88618  0.33641  0.69115  1.0000
  C   C1367     1.0  0.88307  0.32096  0.67673  1.0000
  C   C1368     1.0  0.87672  0.31743  0.64634  1.0000
  C   C1369     1.0  0.87300  0.32920  0.63026  1.0000
  C   C1370     1.0  0.87565  0.34446  0.64492  1.0000
  C   C1371     1.0  0.88234  0.34813  0.67514  1.0000
  H   H1357     1.0  0.88591  0.31178  0.68899  1.0000
  H   H1358     1.0  0.87471  0.30562  0.63544  1.0000
  H   H1359     1.0  0.87268  0.35359  0.63273  1.0000
  H   H1360     1.0  0.88459  0.36003  0.68598  1.0000
  C   C1372     1.0  0.89261  0.34889  0.89626  1.0000
  C   C1373     1.0  0.87753  0.33689  0.88300  1.0000
  C   C1374     1.0  0.86728  0.32317  0.89973  1.0000
  C   C1375     1.0  0.87209  0.32102  0.92968  1.0000
  C   C1376     1.0  0.88746  0.33271  0.94257  1.0000
  C   C1377     1.0  0.89750  0.34666  0.92613  1.0000
  H   H1361     1.0  0.87353  0.33840  0.86012  1.0000
  H   H1362     1.0  0.85544  0.31421  0.88944  1.0000
  H   H1363     1.0  0.89137  0.33126  0.96554  1.0000
  H   H1364     1.0  0.90909  0.35585  0.93676  1.0000
  C   C1378     1.0  0.98745  0.42474  0.72506  1.0000
  H   H1365     1.0  0.93406  0.26902  0.56602  1.0000
  C   C1379     1.0  0.97595  0.41316  0.74366  1.0000
  C   C1380     1.0  0.86516  0.35005  0.97289  1.0000
  C   C1381     1.0  0.88127  0.36127  0.98367  1.0000
  C   C1382     1.0  0.90937  0.26647  0.57775  1.0000
  H   H1366     1.0  0.94828  0.43772  0.79987  1.0000
  S   S464      1.0  0.86703  0.27116  0.50518  1.0000
  H   H1367     1.0  0.82209  0.25757  0.64410  1.0000
  C   C1383     1.0  0.97890  0.43824  0.80542  1.0000
  N   N114      1.0  0.93204  0.34212  0.85938  1.0000
  C   C1384     1.0  0.80174  0.27023  0.56710  1.0000
  H   H1368     1.0  0.87179  0.43765  0.70940  1.0000
  H   H1369     1.0  0.95162  0.44977  0.76674  1.0000
  C   C1385     1.0  0.95695  0.35477  0.83122  1.0000
  C   C1386     1.0  0.96335  0.36814  0.85231  1.0000
  H   H1370     1.0  0.95858  0.37899  0.89292  1.0000
  C   C1387     1.0  0.92333  0.26236  0.57934  1.0000
  C   C1388     1.0  0.88976  0.47328  0.70278  1.0000
  C   C1389     1.0  0.83040  0.26301  0.62516  1.0000
  C   C1390     1.0  0.93822  0.35525  0.88006  1.0000
  C   C1391     1.0  0.82238  0.29694  0.58645  1.0000
  H   H1371     1.0  0.82788  0.31049  0.58637  1.0000
  H   H1372     1.0  0.83744  0.32463  0.95464  1.0000
  H   H1373     1.0  0.91224  0.35993  0.63740  1.0000
  C   C1392     1.0  0.91602  0.30746  0.62729  1.0000
  C   C1393     1.0  0.94116  0.34178  0.83511  1.0000
  C   C1394     1.0  0.98181  0.40616  0.76722  1.0000
  C   C1395     1.0  0.91323  0.31737  0.60526  1.0000
  C   C1396     1.0  0.83797  0.32659  0.97967  1.0000
  C   C1397     1.0  0.91498  0.32909  0.86183  1.0000
  H   H1374     1.0  0.92283  0.48424  0.76309  1.0000
  C   C1398     1.0  0.92159  0.35660  0.65042  1.0000
  S   S465      1.0  0.90947  0.28221  0.55346  1.0000
  H   H1375     1.0  0.91240  0.34095  0.59612  1.0000
  H   H1376     1.0  0.88948  0.37050  0.96882  1.0000
  H   H1377     1.0  0.91973  0.35815  0.67487  1.0000
  H   H1378     1.0  0.97536  0.37850  0.84901  1.0000
  H   H1379     1.0  0.98121  0.25077  0.58047  1.0000
  C   C1399     1.0  0.98370  0.45624  0.76397  1.0000
  H   H1380     1.0  0.98286  0.43040  0.70729  1.0000
  H   H1381     1.0  0.89438  0.46937  0.68305  1.0000
  H   H1382     1.0  0.91480  0.29498  0.62112  1.0000
  H   H1383     1.0  0.90993  0.31264  0.58199  1.0000
  H   H1384     1.0  0.93079  0.35580  0.89877  1.0000
  H   H1385     1.0  0.86110  0.35071  0.94955  1.0000
  C   C1400     1.0  0.95394  0.36843  0.87687  1.0000
  H   H1386     1.0  0.93453  0.36545  0.64535  1.0000
  C   C1401     1.0  0.92040  0.31369  0.65714  1.0000
  C   C1402     1.0  0.91482  0.33342  0.61338  1.0000
  H   H1387     1.0  0.93601  0.33172  0.81805  1.0000
  C   C1403     1.0  0.89561  0.25794  0.59524  1.0000
  C   C1404     1.0  0.87811  0.46773  0.75111  1.0000
  C   C1405     1.0  0.82944  0.28868  0.60560  1.0000
  C   C1406     1.0  0.80910  0.26239  0.58659  1.0000
  S   S466      1.0  0.90482  0.48871  0.81488  1.0000
  C   C1407     1.0  0.92333  0.24939  0.59755  1.0000
  N   N115      1.0  0.82293  0.27161  0.60513  1.0000
  C   C1408     1.0  0.88305  0.44575  0.72378  1.0000
  H   H1388     1.0  0.97024  0.42884  0.81943  1.0000
  H   H1389     1.0  0.84030  0.29607  0.62047  1.0000
  C   C1409     1.0  0.95466  0.44006  0.77808  1.0000
  H   H1390     1.0  0.82862  0.33156  0.98571  1.0000
  C   C1410     1.0  0.80851  0.28763  0.56695  1.0000
  H   H1391     1.0  0.80314  0.29389  0.55157  1.0000
  H   H1392     1.0  0.90571  0.33281  0.84949  1.0000
  N   N116      1.0  0.88390  0.46275  0.72620  1.0000
  H   H1393     1.0  0.98171  0.25890  0.52772  1.0000
  H   H1394     1.0  0.91159  0.32719  0.88589  1.0000
  H   H1395     1.0  0.88481  0.26103  0.59424  1.0000
  H   H1396     1.0  0.96393  0.35484  0.81143  1.0000
  H   H1397     1.0  0.87386  0.45962  0.77010  1.0000
  H   H1398     1.0  0.94917  0.42841  0.76367  1.0000
  N   N117      1.0  0.97289  0.44529  0.78305  1.0000
  H   H1399     1.0  0.87400  0.48771  0.77324  1.0000
  C   C1411     1.0  0.88993  0.48928  0.70397  1.0000
  H   H1400     1.0  0.88233  0.44017  0.74642  1.0000
  H   H1401     1.0  0.89458  0.44574  0.71386  1.0000
  H   H1402     1.0  0.84311  0.27158  0.63474  1.0000
  H   H1403     1.0  0.97889  0.46121  0.74533  1.0000
  H   H1404     1.0  0.83441  0.31403  0.98920  1.0000
  H   H1405     1.0  0.89475  0.49781  0.68566  1.0000
  H   H1406     1.0  0.83199  0.25282  0.61226  1.0000
  N   N118      1.0  0.85493  0.33804  0.99114  1.0000
  C   C1412     1.0  0.99371  0.25113  0.57811  1.0000
  N   N119      1.0  0.83485  0.55867  0.12056  1.0000
  S   S467      1.0  0.85815  0.57005  0.04519  1.0000
  S   S468      1.0  0.89080  0.57453  0.48583  1.0000
  Fe  Fe233     1.0  0.87916  0.61704  0.02993  1.0000
  S   S469      1.0  0.86029  0.60679  0.06563  1.0000
  S   S470      1.0  0.88922  0.64447  0.01889  1.0000
  Fe  Fe234     1.0  0.87461  0.59106  0.07724  1.0000
  S   S471      1.0  0.87945  0.58959  0.12806  1.0000
  Fe  Fe235     1.0  0.84536  0.58667  0.03093  1.0000
  S   S472      1.0  0.81686  0.57431  0.02010  1.0000
  S   S473      1.0  0.89453  0.60270  0.04358  1.0000
  C   C1413     1.0  0.81188  0.56244  0.09461  1.0000
  Fe  Fe236     1.0  0.94692  0.72858  0.10307  1.0000
  S   S474      1.0  0.94176  0.70129  0.10800  1.0000
  Fe  Fe237     1.0  0.91114  0.54093  0.24874  1.0000
  S   S475      1.0  0.91973  0.56399  0.27884  1.0000
  S   S476      1.0  0.90291  0.53933  0.19865  1.0000
  Fe  Fe238     1.0  0.92054  0.52092  0.29698  1.0000
  S   S477      1.0  0.92991  0.54284  0.33076  1.0000
  Fe  Fe239     1.0  0.90684  0.54683  0.31614  1.0000
  S   S478      1.0  0.88871  0.55265  0.34581  1.0000
  Fe  Fe240     1.0  0.94211  0.55826  0.29117  1.0000
  S   S479      1.0  0.96818  0.57955  0.29553  1.0000
  S   S480      1.0  0.89648  0.52380  0.28479  1.0000
  S   S481      1.0  0.93447  0.53629  0.25872  1.0000
  Fe  Fe241     1.0  0.69980  0.57674  0.01382  1.0000
  S   S482      1.0  0.70993  0.56463  0.04972  1.0000
  H   H1407     1.0  0.86430  0.51752  0.34946  1.0000
  Fe  Fe242     1.0  0.71028  0.60853  0.05390  1.0000
  S   S483      1.0  0.72025  0.59823  0.09240  1.0000
  S   S484      1.0  0.71228  0.63516  0.05399  1.0000
  Fe  Fe243     1.0  0.73251  0.58934  0.05618  1.0000
  S   S485      1.0  0.76108  0.59796  0.06609  1.0000
  Fe  Fe244     1.0  0.69687  0.57454  0.08294  1.0000
  S   S486      1.0  0.68104  0.55558  0.11686  1.0000
  S   S487      1.0  0.72334  0.60070  0.01802  1.0000
  S   S488      1.0  0.68580  0.58548  0.04664  1.0000
  N   N120      1.0  0.77377  0.64947  0.05744  1.0000
  S   S489      1.0  0.76725  0.73516  0.12934  1.0000
  Fe  Fe245     1.0  0.78252  0.72099  0.11675  1.0000
  S   S490      1.0  0.77499  0.69330  0.12285  1.0000
  C   C1414     1.0  0.66510  0.53654  0.04376  1.0000
  C   C1415     1.0  0.72895  0.65124  0.07506  1.0000
  C   C1416     1.0  0.73973  0.64769  0.09533  1.0000
  C   C1417     1.0  0.75342  0.66074  0.11059  1.0000
  C   C1418     1.0  0.75664  0.67746  0.10537  1.0000
  C   C1419     1.0  0.74565  0.68109  0.08572  1.0000
  C   C1420     1.0  0.73180  0.66799  0.07072  1.0000
  H   H1408     1.0  0.73761  0.63488  0.09903  1.0000
  H   H1409     1.0  0.76179  0.65783  0.12593  1.0000
  H   H1410     1.0  0.74800  0.69394  0.08157  1.0000
  H   H1411     1.0  0.72347  0.67083  0.05514  1.0000
  H   H1412     1.0  0.83038  0.59218  0.15054  1.0000
  H   H1413     1.0  0.85204  0.55158  0.14660  1.0000
  S   S491      1.0  0.68178  0.55281  0.48338  1.0000
  C   C1421     1.0  0.83781  0.57227  0.13919  1.0000
  S   S492      1.0  0.93163  0.73797  0.07283  1.0000
  H   H1414     1.0  0.92054  0.50755  0.37630  1.0000
  H   H1415     1.0  0.96649  0.56944  0.15829  1.0000
  C   C1422     1.0  0.76062  0.63939  0.03833  1.0000
  N   N121      1.0  0.66547  0.56551  0.30902  1.0000
  H   H1416     1.0  0.84812  0.57640  0.15639  1.0000
  H   H1417     1.0  0.95594  0.61521  0.24305  1.0000
  C   C1423     1.0  0.82782  0.58127  0.13599  1.0000
  H   H1418     1.0  0.91388  0.62833  0.45160  1.0000
  C   C1424     1.0  0.98116  0.56927  0.24711  1.0000
  H   H1419     1.0  0.96930  0.55841  0.24490  1.0000
  H   H1420     1.0  0.67172  0.59149  0.31590  1.0000
  H   H1421     1.0  0.67328  0.53583  0.06244  1.0000
  C   C1425     1.0  0.80163  0.58157  0.03184  1.0000
  C   C1426     1.0  0.78452  0.57249  0.02258  1.0000
  C   C1427     1.0  0.77194  0.57738  0.03246  1.0000
  C   C1428     1.0  0.77632  0.59135  0.05203  1.0000
  C   C1429     1.0  0.79344  0.60041  0.06133  1.0000
  C   C1430     1.0  0.80603  0.59564  0.05116  1.0000
  H   H1422     1.0  0.75623  0.62594  0.03888  1.0000
  C   C1431     1.0  0.85593  0.74533  0.12208  1.0000
  H   H1423     1.0  0.79701  0.61117  0.07659  1.0000
  H   H1424     1.0  0.81911  0.60274  0.05853  1.0000
  C   C1432     1.0  0.88698  0.57613  0.14697  1.0000
  C   C1433     1.0  0.89016  0.56385  0.13137  1.0000
  C   C1434     1.0  0.89505  0.55270  0.14755  1.0000
  C   C1435     1.0  0.89697  0.55381  0.17939  1.0000
  C   C1436     1.0  0.89404  0.56625  0.19496  1.0000
  C   C1437     1.0  0.88900  0.57729  0.17880  1.0000
  H   H1425     1.0  0.88873  0.56285  0.10687  1.0000
  H   H1426     1.0  0.89733  0.54314  0.13531  1.0000
  H   H1427     1.0  0.89535  0.56718  0.21946  1.0000
  H   H1428     1.0  0.88652  0.58672  0.19107  1.0000
  C   C1438     1.0  0.89011  0.56894  0.44657  1.0000
  C   C1439     1.0  0.87680  0.56765  0.42625  1.0000
  C   C1440     1.0  0.87671  0.56282  0.39555  1.0000
  C   C1441     1.0  0.88996  0.55939  0.38458  1.0000
  C   C1442     1.0  0.90338  0.56087  0.40482  1.0000
  C   C1443     1.0  0.90338  0.56554  0.43559  1.0000
  H   H1429     1.0  0.86648  0.57017  0.43423  1.0000
  H   H1430     1.0  0.86625  0.56171  0.38018  1.0000
  H   H1431     1.0  0.91371  0.55837  0.39684  1.0000
  H   H1432     1.0  0.91376  0.56649  0.45104  1.0000
  C   C1444     1.0  0.90481  0.65997  0.04281  1.0000
  C   C1445     1.0  0.91072  0.65600  0.07020  1.0000
  C   C1446     1.0  0.92227  0.66879  0.08971  1.0000
  C   C1447     1.0  0.92781  0.68563  0.08221  1.0000
  C   C1448     1.0  0.92193  0.68959  0.05479  1.0000
  C   C1449     1.0  0.91059  0.67680  0.03508  1.0000
  H   H1433     1.0  0.90636  0.64310  0.07641  1.0000
  H   H1434     1.0  0.92683  0.66561  0.11081  1.0000
  H   H1435     1.0  0.92621  0.70249  0.04864  1.0000
  C   C1450     1.0  0.90258  0.70306  0.12959  1.0000
  C   C1451     1.0  0.66846  0.55350  0.45204  1.0000
  H   H1436     1.0  0.97609  0.74428  0.25626  1.0000
  H   H1437     1.0  0.78274  0.72351  0.21010  1.0000
  H   H1438     1.0  0.91185  0.71583  0.12506  1.0000
  C   C1452     1.0  0.86985  0.74174  0.13087  1.0000
  H   H1439     1.0  0.66567  0.52775  0.32218  1.0000
  H   H1440     1.0  0.67291  0.52253  0.01256  1.0000
  H   H1441     1.0  0.77859  0.70506  0.18765  1.0000
  C   C1453     1.0  0.88603  0.51445  0.36867  1.0000
  H   H1442     1.0  0.86643  0.67351  0.02832  1.0000
  C   C1454     1.0  0.98921  0.74769  0.25168  1.0000
  C   C1455     1.0  0.77308  0.71064  0.20453  1.0000
  C   C1456     1.0  0.91087  0.51034  0.38801  1.0000
  C   C1457     1.0  0.66637  0.53854  0.30971  1.0000
  H   H1443     1.0  0.89021  0.52588  0.38246  1.0000
  C   C1458     1.0  0.82230  0.55391  0.09808  1.0000
  C   C1459     1.0  0.84567  0.54959  0.12358  1.0000
  H   H1444     1.0  0.82034  0.54355  0.08252  1.0000
  H   H1445     1.0  0.80192  0.55862  0.07678  1.0000
  H   H1446     1.0  0.83825  0.53595  0.11975  1.0000
  H   H1447     1.0  0.85562  0.55411  0.10689  1.0000
  C   C1460     1.0  0.66334  0.57927  0.32475  1.0000
  H   H1448     1.0  0.68407  0.74638  0.30602  1.0000
  C   C1461     1.0  0.66841  0.53900  0.27854  1.0000
  H   H1449     1.0  0.75886  0.57026  0.02513  1.0000
  H   H1450     1.0  0.87673  0.70432  0.03698  1.0000
  H   H1451     1.0  0.80683  0.58307  0.11082  1.0000
  H   H1452     1.0  0.66637  0.57959  0.34955  1.0000
  H   H1453     1.0  0.93524  0.59861  0.24221  1.0000
  C   C1462     1.0  0.81469  0.57622  0.11367  1.0000
  C   C1463     1.0  0.66477  0.52897  0.01556  1.0000
  C   C1464     1.0  0.66498  0.74143  0.41441  1.0000
  H   H1454     1.0  0.67026  0.55323  0.23846  1.0000
  C   C1465     1.0  0.75776  0.66353  0.01830  1.0000
  C   C1466     1.0  0.78157  0.64176  0.07873  1.0000
  H   H1455     1.0  0.91003  0.69620  0.13833  1.0000
  H   H1456     1.0  0.77069  0.70325  0.22530  1.0000
  H   H1457     1.0  0.67032  0.57823  0.46221  1.0000
  H   H1458     1.0  0.77184  0.63314  0.09329  1.0000
  C   C1467     1.0  0.97008  0.59885  0.21224  1.0000
  H   H1459     1.0  0.66368  0.52863  0.43574  1.0000
  H   H1460     1.0  0.89426  0.70402  0.14716  1.0000
  H   H1461     1.0  0.90608  0.67997  0.01392  1.0000
  H   H1462     1.0  0.66704  0.57636  0.26569  1.0000
  H   H1463     1.0  0.86840  0.73249  0.14769  1.0000
  H   H1464     1.0  0.67482  0.58341  0.14301  1.0000
  C   C1468     1.0  0.66724  0.56595  0.27840  1.0000
  H   H1465     1.0  0.97962  0.60988  0.22376  1.0000
  H   H1466     1.0  0.76069  0.73296  0.21785  1.0000
  C   C1469     1.0  0.98394  0.58130  0.27021  1.0000
  H   H1467     1.0  0.90007  0.60824  0.46504  1.0000
  N   N122      1.0  0.75733  0.71098  0.19212  1.0000
  C   C1470     1.0  0.74704  0.69861  0.17206  1.0000
  C   C1471     1.0  0.75276  0.72340  0.20135  1.0000
  C   C1472     1.0  0.73225  0.69904  0.15920  1.0000
  C   C1473     1.0  0.73803  0.72420  0.18906  1.0000
  C   C1474     1.0  0.72781  0.71201  0.16762  1.0000
  H   H1468     1.0  0.78941  0.67451  0.07276  1.0000
  H   H1469     1.0  0.75039  0.68848  0.16543  1.0000
  H   H1470     1.0  0.90828  0.50376  0.40970  1.0000
  H   H1471     1.0  0.72447  0.68949  0.14249  1.0000
  N   N123      1.0  0.89527  0.50507  0.36881  1.0000
  H   H1472     1.0  0.71653  0.71266  0.15745  1.0000
  C   C1475     1.0  0.87124  0.50969  0.35015  1.0000
  H   H1473     1.0  0.93684  0.55812  0.17433  1.0000
  H   H1474     1.0  0.89576  0.62601  0.47300  1.0000
  N   N124      1.0  0.89254  0.69493  0.10185  1.0000
  C   C1476     1.0  0.88873  0.70430  0.08080  1.0000
  C   C1477     1.0  0.88650  0.67798  0.09770  1.0000
  C   C1478     1.0  0.87926  0.69677  0.05405  1.0000
  C   C1479     1.0  0.87673  0.67001  0.07148  1.0000
  C   C1480     1.0  0.87334  0.67951  0.04933  1.0000
  H   H1475     1.0  0.78094  0.56156  0.00769  1.0000
  H   H1476     1.0  0.89325  0.71772  0.08444  1.0000
  H   H1477     1.0  0.88970  0.67057  0.11419  1.0000
  H   H1478     1.0  0.73478  0.73439  0.19580  1.0000
  H   H1479     1.0  0.87255  0.65663  0.06764  1.0000
  N   N125      1.0  0.95370  0.59276  0.22036  1.0000
  H   H1480     1.0  0.66310  0.55143  0.34881  1.0000
  C   C1481     1.0  0.77140  0.67375  0.03745  1.0000
  C   C1482     1.0  0.66893  0.55281  0.26278  1.0000
  H   H1481     1.0  0.84394  0.73890  0.13214  1.0000
  C   C1483     1.0  0.66489  0.55198  0.32467  1.0000
  H   H1482     1.0  0.77540  0.68720  0.03807  1.0000
  C   C1484     1.0  0.77930  0.66647  0.05706  1.0000
  C   C1485     1.0  0.94894  0.60148  0.24427  1.0000
  H   H1483     1.0  0.91648  0.52405  0.39292  1.0000
  C   C1486     1.0  0.75235  0.64625  0.01862  1.0000
  H   H1484     1.0  0.92903  0.57314  0.21409  1.0000
  C   C1487     1.0  0.90617  0.62189  0.47064  1.0000
  H   H1485     1.0  0.95185  0.59759  0.26685  1.0000
  H   H1486     1.0  0.78704  0.63432  0.06604  1.0000
  C   C1488     1.0  0.97486  0.59074  0.18941  1.0000
  S   S493      1.0  0.80504  0.73736  0.14662  1.0000
  C   C1489     1.0  0.94192  0.57824  0.20716  1.0000
  C   C1490     1.0  0.94629  0.56967  0.18456  1.0000
  S   S494      1.0  0.79210  0.73517  0.07465  1.0000
  H   H1487     1.0  0.66750  0.73119  0.42310  1.0000
  C   C1491     1.0  0.66824  0.55710  0.14619  1.0000
  C   C1492     1.0  0.66752  0.57218  0.15465  1.0000
  H   H1488     1.0  0.66934  0.52858  0.26649  1.0000
  S   S495      1.0  0.90287  0.74550  0.13152  1.0000
  Fe  Fe246     1.0  0.87705  0.58271  0.01010  1.0000
  C   C1493     1.0  0.66472  0.56733  0.44709  1.0000
  H   H1489     1.0  0.79167  0.65114  0.09378  1.0000
  S   S496      1.0  0.94395  0.74124  0.14550  1.0000
  H   H1490     1.0  0.99126  0.56221  0.20830  1.0000
  C   C1494     1.0  0.96287  0.57603  0.17557  1.0000
  C   C1495     1.0  0.99368  0.57143  0.22645  1.0000
  H   H1491     1.0  0.98792  0.59551  0.18324  1.0000
  H   H1492     1.0  0.77212  0.66713  0.48463  1.0000
  H   H1493     1.0  0.98413  0.74172  0.20371  1.0000
  H   H1494     1.0  0.74143  0.63817  0.00447  1.0000
  H   H1495     1.0  0.75107  0.66895  0.00385  1.0000
  C   C1496     1.0  0.66096  0.53945  0.43208  1.0000
  H   H1496     1.0  0.66902  0.74862  0.49051  1.0000
  C   C1497     1.0  0.99372  0.74624  0.22221  1.0000
  C   C1498     1.0  0.95736  0.57585  0.87562  1.0000
  S   S497      1.0  0.85449  0.56771  0.54586  1.0000
  H   H1497     1.0  0.88469  0.69999  0.58738  1.0000
  Fe  Fe247     1.0  0.87377  0.61600  0.53967  1.0000
  S   S498      1.0  0.85379  0.60288  0.57224  1.0000
  S   S499      1.0  0.88448  0.64358  0.52942  1.0000
  Fe  Fe248     1.0  0.86855  0.58734  0.58230  1.0000
  S   S500      1.0  0.87269  0.58385  0.63269  1.0000
  Fe  Fe249     1.0  0.84110  0.58433  0.53393  1.0000
  S   S501      1.0  0.81273  0.57353  0.52116  1.0000
  S   S502      1.0  0.88944  0.60202  0.55249  1.0000
  N   N126      1.0  0.77030  0.65323  0.52412  1.0000
  Fe  Fe250     1.0  0.94350  0.72989  0.60867  1.0000
  S   S503      1.0  0.93217  0.70254  0.62062  1.0000
  Fe  Fe251     1.0  0.91193  0.53831  0.74771  1.0000
  S   S504      1.0  0.92886  0.56173  0.77420  1.0000
  S   S505      1.0  0.90150  0.53592  0.69864  1.0000
  Fe  Fe252     1.0  0.91421  0.51544  0.79810  1.0000
  S   S506      1.0  0.93106  0.53738  0.82844  1.0000
  Fe  Fe253     1.0  0.91381  0.54963  0.81454  1.0000
  S   S507      1.0  0.90529  0.56636  0.84373  1.0000
  Fe  Fe254     1.0  0.94472  0.54770  0.78608  1.0000
  S   S508      1.0  0.97343  0.55824  0.79087  1.0000
  S   S509      1.0  0.89583  0.52703  0.78701  1.0000
  S   S510      1.0  0.92894  0.52499  0.75693  1.0000
  Fe  Fe255     1.0  0.69588  0.57232  0.52131  1.0000
  S   S511      1.0  0.70212  0.56289  0.56581  1.0000
  H   H1498     1.0  0.93191  0.65478  0.55594  1.0000
  Fe  Fe256     1.0  0.71220  0.60858  0.54512  1.0000
  S   S512      1.0  0.71918  0.60158  0.59025  1.0000
  S   S513      1.0  0.71733  0.63552  0.53617  1.0000
  Fe  Fe257     1.0  0.72776  0.58458  0.56393  1.0000
  S   S514      1.0  0.75421  0.58773  0.58110  1.0000
  Fe  Fe258     1.0  0.69318  0.58080  0.58832  1.0000
  H   H1499     1.0  0.82601  0.54139  0.96645  1.0000
  S   S515      1.0  0.72205  0.59282  0.51841  1.0000
  S   S516      1.0  0.68560  0.58890  0.54403  1.0000
  S   S517      1.0  0.79983  0.73246  0.65572  1.0000
  S   S518      1.0  0.76735  0.73359  0.61850  1.0000
  Fe  Fe259     1.0  0.78518  0.72142  0.61180  1.0000
  S   S519      1.0  0.77934  0.69375  0.60568  1.0000
  H   H1500     1.0  0.90834  0.71394  0.64895  1.0000
  C   C1499     1.0  0.73374  0.65165  0.55744  1.0000
  C   C1500     1.0  0.74467  0.64816  0.57741  1.0000
  C   C1501     1.0  0.75826  0.66126  0.59270  1.0000
  C   C1502     1.0  0.76103  0.67795  0.58830  1.0000
  C   C1503     1.0  0.74978  0.68147  0.56914  1.0000
  C   C1504     1.0  0.73619  0.66832  0.55365  1.0000
  H   H1501     1.0  0.74300  0.63542  0.58049  1.0000
  H   H1502     1.0  0.76688  0.65846  0.60763  1.0000
  H   H1503     1.0  0.75184  0.69431  0.56558  1.0000
  H   H1504     1.0  0.72776  0.67112  0.53824  1.0000
  S   S520      1.0  0.68940  0.56183  0.96875  1.0000
  H   H1505     1.0  0.97688  0.61063  0.79882  1.0000
  C   C1505     1.0  0.92040  0.64012  0.51491  1.0000
  C   C1506     1.0  0.69780  0.73772  0.90911  1.0000
  H   H1506     1.0  0.77637  0.54943  0.57086  1.0000
  H   H1507     1.0  0.66701  0.52486  0.95548  1.0000
  C   C1507     1.0  0.82783  0.57127  0.63223  1.0000
  C   C1508     1.0  0.67341  0.56136  0.94156  1.0000
  S   S521      1.0  0.93579  0.73896  0.56636  1.0000
  C   C1509     1.0  0.92973  0.64350  0.54269  1.0000
  Fe  Fe260     1.0  0.78338  0.74641  0.66043  1.0000
  H   H1508     1.0  0.84157  0.57886  0.93488  1.0000
  H   H1509     1.0  0.85052  0.53474  0.93574  1.0000
  C   C1510     1.0  0.98202  0.57524  0.73729  1.0000
  H   H1510     1.0  0.96863  0.57068  0.73148  1.0000
  H   H1511     1.0  0.83870  0.57831  0.64743  1.0000
  C   C1511     1.0  0.85746  0.56274  0.88037  1.0000
  C   C1512     1.0  0.79723  0.57947  0.53601  1.0000
  C   C1513     1.0  0.78086  0.57296  0.52198  1.0000
  C   C1514     1.0  0.76767  0.57584  0.53481  1.0000
  C   C1515     1.0  0.77062  0.58502  0.56221  1.0000
  C   C1516     1.0  0.78705  0.59174  0.57600  1.0000
  C   C1517     1.0  0.80032  0.58919  0.56280  1.0000
  C   C1518     1.0  0.97398  0.59743  0.80396  1.0000
  C   C1519     1.0  0.89787  0.71764  0.64942  1.0000
  H   H1512     1.0  0.78951  0.59883  0.59723  1.0000
  H   H1513     1.0  0.81283  0.59427  0.57388  1.0000
  C   C1520     1.0  0.88141  0.57084  0.65018  1.0000
  C   C1521     1.0  0.88420  0.55855  0.63384  1.0000
  C   C1522     1.0  0.89046  0.54805  0.64899  1.0000
  C   C1523     1.0  0.89419  0.54984  0.68052  1.0000
  C   C1524     1.0  0.89156  0.56226  0.69679  1.0000
  C   C1525     1.0  0.88511  0.57261  0.68171  1.0000
  H   H1514     1.0  0.88140  0.55701  0.60960  1.0000
  H   H1515     1.0  0.89244  0.53849  0.63617  1.0000
  H   H1516     1.0  0.89432  0.56378  0.72104  1.0000
  H   H1517     1.0  0.88298  0.58207  0.69458  1.0000
  C   C1526     1.0  0.89140  0.56632  0.94358  1.0000
  C   C1527     1.0  0.89350  0.57985  0.92537  1.0000
  C   C1528     1.0  0.89815  0.57979  0.89514  1.0000
  C   C1529     1.0  0.90076  0.56624  0.88269  1.0000
  C   C1530     1.0  0.89914  0.55294  0.90116  1.0000
  C   C1531     1.0  0.89445  0.55298  0.93136  1.0000
  H   H1518     1.0  0.89124  0.59021  0.93439  1.0000
  H   H1519     1.0  0.89940  0.59019  0.88114  1.0000
  H   H1520     1.0  0.90116  0.54245  0.89201  1.0000
  H   H1521     1.0  0.89293  0.54246  0.94524  1.0000
  C   C1532     1.0  0.89780  0.65967  0.55517  1.0000
  C   C1533     1.0  0.90154  0.65647  0.58487  1.0000
  C   C1534     1.0  0.91220  0.66971  0.60460  1.0000
  C   C1535     1.0  0.91928  0.68620  0.59477  1.0000
  C   C1536     1.0  0.91574  0.68932  0.56490  1.0000
  C   C1537     1.0  0.90499  0.67612  0.54527  1.0000
  H   H1522     1.0  0.89610  0.64384  0.59274  1.0000
  H   H1523     1.0  0.91489  0.66717  0.62765  1.0000
  H   H1524     1.0  0.92127  0.70187  0.55686  1.0000
  H   H1525     1.0  0.90224  0.67868  0.52226  1.0000
  S   S522      1.0  0.88388  0.56481  0.98079  1.0000
  C   C1538     1.0  0.93576  0.63204  0.55353  1.0000
  H   H1526     1.0  0.86854  0.72229  0.60311  1.0000
  H   H1527     1.0  0.81147  0.58085  0.65282  1.0000
  N   N127      1.0  0.80029  0.55357  0.59251  1.0000
  C   C1539     1.0  0.81257  0.57267  0.63524  1.0000
  S   S523      1.0  0.80258  0.74187  0.58325  1.0000
  H   H1528     1.0  0.76836  0.67649  0.51871  1.0000
  H   H1529     1.0  0.86146  0.54024  0.88437  1.0000
  N   N128      1.0  0.88902  0.71787  0.62318  1.0000
  N   N129      1.0  0.70583  0.63535  0.62167  1.0000
  C   C1540     1.0  0.71402  0.65226  0.61901  1.0000
  C   C1541     1.0  0.71139  0.62736  0.64299  1.0000
  C   C1542     1.0  0.72855  0.66154  0.63727  1.0000
  C   C1543     1.0  0.72598  0.63623  0.66141  1.0000
  C   C1544     1.0  0.73464  0.65342  0.65836  1.0000
  C   C1545     1.0  0.69055  0.62588  0.60256  1.0000
  H   H1530     1.0  0.70962  0.65861  0.60213  1.0000
  H   H1531     1.0  0.70466  0.61399  0.64557  1.0000
  H   H1532     1.0  0.73534  0.67488  0.63448  1.0000
  H   H1533     1.0  0.73056  0.62978  0.67781  1.0000
  H   H1534     1.0  0.74612  0.66047  0.67212  1.0000
  H   H1535     1.0  0.69121  0.63142  0.57991  1.0000
  H   H1536     1.0  0.68901  0.61283  0.59844  1.0000
  H   H1537     1.0  0.67928  0.62562  0.61378  1.0000
  C   C1546     1.0  0.87096  0.72677  0.65130  1.0000
  C   C1547     1.0  0.67689  0.73302  0.94615  1.0000
  H   H1538     1.0  0.66379  0.72911  0.95171  1.0000
  H   H1539     1.0  0.87698  0.73100  0.69933  1.0000
  N   N130      1.0  0.96453  0.59251  0.83144  1.0000
  C   C1548     1.0  0.95275  0.59856  0.83744  1.0000
  C   C1549     1.0  0.92326  0.61456  0.50863  1.0000
  C   C1550     1.0  0.94334  0.59376  0.86319  1.0000
  C   C1551     1.0  0.96682  0.58120  0.85003  1.0000
  C   C1552     1.0  0.94557  0.58223  0.88224  1.0000
  H   H1540     1.0  0.84727  0.54998  0.98369  1.0000
  C   C1553     1.0  0.99380  0.58568  0.71750  1.0000
  H   H1541     1.0  0.67898  0.54572  0.90974  1.0000
  H   H1542     1.0  0.93379  0.59834  0.86762  1.0000
  C   C1554     1.0  0.89351  0.71298  0.59417  1.0000
  H   H1543     1.0  0.83614  0.56302  0.97833  1.0000
  C   C1555     1.0  0.78384  0.65967  0.54465  1.0000
  C   C1556     1.0  0.68983  0.73970  0.96869  1.0000
  H   H1544     1.0  0.90649  0.71355  0.59569  1.0000
  C   C1557     1.0  0.77997  0.63182  0.55777  1.0000
  H   H1545     1.0  0.75511  0.57053  0.52394  1.0000
  H   H1546     1.0  0.98937  0.58907  0.69647  1.0000
  H   H1547     1.0  0.79926  0.65422  0.57873  1.0000
  H   H1548     1.0  0.78353  0.62340  0.57117  1.0000
  C   C1558     1.0  0.82913  0.56081  0.60941  1.0000
  H   H1549     1.0  0.84094  0.55960  0.60711  1.0000
  C   C1559     1.0  0.84574  0.57023  0.92375  1.0000
  C   C1560     1.0  0.81521  0.55213  0.58942  1.0000
  C   C1561     1.0  0.78879  0.64907  0.56195  1.0000
  H   H1550     1.0  0.74047  0.74083  0.65718  1.0000
  N   N131      1.0  0.71041  0.74395  0.93143  1.0000
  H   H1551     1.0  0.94268  0.63433  0.57536  1.0000
  C   C1562     1.0  0.67072  0.55180  0.91438  1.0000
  H   H1552     1.0  0.81649  0.54439  0.57120  1.0000
  S   S524      1.0  0.76873  0.74551  0.70279  1.0000
  C   C1563     1.0  0.85200  0.57373  0.89482  1.0000
  H   H1553     1.0  0.74803  0.74422  0.75222  1.0000
  C   C1564     1.0  0.79876  0.56349  0.61531  1.0000
  H   H1554     1.0  0.95894  0.56660  0.88988  1.0000
  C   C1565     1.0  0.83827  0.55248  0.96805  1.0000
  H   H1555     1.0  0.75153  0.65894  0.50043  1.0000
  C   C1566     1.0  0.88023  0.72708  0.67804  1.0000
  H   H1556     1.0  0.93724  0.60848  0.54448  1.0000
  C   C1567     1.0  0.76538  0.66450  0.50598  1.0000
  S   S525      1.0  0.67642  0.58048  0.62733  1.0000
  C   C1568     1.0  0.87557  0.72212  0.62389  1.0000
  H   H1557     1.0  0.72290  0.74689  0.65533  1.0000
  S   S526      1.0  0.86013  0.59847  0.50011  1.0000
  H   H1558     1.0  0.93785  0.57795  0.90162  1.0000
  H   H1559     1.0  0.78954  0.54315  0.54876  1.0000
  C   C1569     1.0  0.98761  0.57076  0.76450  1.0000
  C   C1570     1.0  0.85050  0.54549  0.92402  1.0000
  H   H1560     1.0  0.77935  0.53082  0.58044  1.0000
  H   H1561     1.0  0.85287  0.58500  0.88389  1.0000
  H   H1562     1.0  0.78694  0.56467  0.61774  1.0000
  H   H1563     1.0  0.91567  0.64905  0.50671  1.0000
  C   C1571     1.0  0.68087  0.73186  0.91623  1.0000
  H   H1564     1.0  0.66456  0.57667  0.96775  1.0000
  C   C1572     1.0  0.85667  0.54851  0.89499  1.0000
  C   C1573     1.0  0.76643  0.62538  0.53637  1.0000
  H   H1565     1.0  0.75093  0.63119  0.50347  1.0000
  H   H1566     1.0  0.86281  0.56550  0.85830  1.0000
  H   H1567     1.0  0.70075  0.73756  0.88552  1.0000
  H   H1568     1.0  0.86050  0.73050  0.65165  1.0000
  C   C1574     1.0  0.78562  0.54369  0.57227  1.0000
  H   H1569     1.0  0.67081  0.54568  0.63982  1.0000
  C   C1575     1.0  0.89374  0.72241  0.67719  1.0000
  H   H1570     1.0  0.89321  0.72165  0.57628  1.0000
  N   N132      1.0  0.84510  0.55627  0.93798  1.0000
  Fe  Fe261     1.0  0.87452  0.58344  0.51479  1.0000
  H   H1571     1.0  0.67094  0.72710  0.89838  1.0000
  C   C1576     1.0  0.93271  0.61756  0.53625  1.0000
  H   H1572     1.0  0.79054  0.67309  0.54849  1.0000
  H   H1573     1.0  0.90103  0.72255  0.69783  1.0000
  C   C1577     1.0  0.76171  0.63631  0.51963  1.0000
  H   H1574     1.0  0.95040  0.60697  0.82208  1.0000
  H   H1575     1.0  0.73592  0.74745  0.94131  1.0000
  H   H1576     1.0  0.75957  0.61196  0.53302  1.0000
  C   C1578     1.0  0.70663  0.74510  0.96089  1.0000
  C   C1579     1.0  0.66430  0.56574  0.65387  1.0000
  H   H1577     1.0  0.77830  0.56540  0.50128  1.0000
  H   H1578     1.0  0.97586  0.57606  0.84494  1.0000
  H   H1579     1.0  0.88393  0.50670  0.73027  1.0000
  S   S527      1.0  0.97109  0.74575  0.60370  1.0000
  S   S528      1.0  0.93955  0.74852  0.63945  1.0000
  C   C1580     1.0  0.66353  0.54953  0.65495  1.0000
  H   H1580     1.0  0.72956  0.74472  0.90180  1.0000
  H   H1581     1.0  0.66616  0.52891  0.52927  1.0000
  H   H1582     1.0  0.73332  0.74584  0.69134  1.0000
  H   H1583     1.0  0.98620  0.59622  0.80641  1.0000
  C   C1581     1.0  0.66267  0.56924  0.94705  1.0000
  H   H1584     1.0  0.96648  0.58924  0.78443  1.0000
  H   H1585     1.0  0.68685  0.74083  0.99197  1.0000
  S   S529      1.0  0.86315  0.59793  0.99387  1.0000
  N   N133      1.0  0.91677  0.62553  0.49883  1.0000
  H   H1586     1.0  0.66673  0.53153  0.56950  1.0000
  H   H1587     1.0  0.92074  0.60316  0.49555  1.0000
  C   C1582     1.0  0.70559  0.96940  0.43887  1.0000
  S   S530      1.0  0.95286  0.77483  0.10688  1.0000
  H   H1588     1.0  0.79581  0.80234  0.39822  1.0000
  H   H1589     1.0  0.78298  0.98607  0.21892  1.0000
  Fe  Fe262     1.0  0.95634  0.76022  0.06712  1.0000
  S   S531      1.0  0.96366  0.77257  0.02159  1.0000
  C   C1583     1.0  0.85769  0.75751  0.10084  1.0000
  H   H1590     1.0  0.95783  0.77520  0.46924  1.0000
  H   H1591     1.0  0.70324  0.81474  0.26723  1.0000
  H   H1592     1.0  0.69499  0.87947  0.41543  1.0000
  H   H1593     1.0  0.68182  0.90801  0.46526  1.0000
  H   H1594     1.0  0.78406  0.76195  0.45942  1.0000
  Fe  Fe263     1.0  0.81380  0.75250  0.10558  1.0000
  H   H1595     1.0  0.71456  0.90903  0.33834  1.0000
  H   H1596     1.0  0.79350  0.98051  0.31405  1.0000
  C   C1584     1.0  0.98341  0.78058  0.22232  1.0000
  S   S532      1.0  0.80087  0.76937  0.11719  1.0000
  Fe  Fe264     1.0  0.74468  0.79393  0.32957  1.0000
  S   S533      1.0  0.76651  0.80802  0.36271  1.0000
  S   S534      1.0  0.74472  0.78682  0.27929  1.0000
  Fe  Fe265     1.0  0.71884  0.79177  0.37675  1.0000
  S   S535      1.0  0.73888  0.80506  0.41344  1.0000
  S   S536      1.0  0.69142  0.78731  0.38127  1.0000
  Fe  Fe266     1.0  0.75194  0.82284  0.37719  1.0000
  S   S537      1.0  0.76429  0.85036  0.39292  1.0000
  Fe  Fe267     1.0  0.75173  0.78928  0.39650  1.0000
  S   S538      1.0  0.76636  0.77713  0.42353  1.0000
  S   S539      1.0  0.73130  0.81037  0.34138  1.0000
  S   S540      1.0  0.73049  0.77437  0.36240  1.0000
  Fe  Fe268     1.0  0.75006  0.93618  0.36658  1.0000
  S   S541      1.0  0.73631  0.94740  0.33579  1.0000
  S   S542      1.0  0.74825  0.91129  0.34622  1.0000
  Fe  Fe269     1.0  0.75603  0.96299  0.41693  1.0000
  S   S543      1.0  0.74249  0.97541  0.38949  1.0000
  S   S544      1.0  0.76181  0.96929  0.46770  1.0000
  Fe  Fe270     1.0  0.72336  0.94950  0.37744  1.0000
  S   S545      1.0  0.69524  0.94275  0.37527  1.0000
  Fe  Fe271     1.0  0.75677  0.97242  0.34992  1.0000
  C   C1585     1.0  0.67757  0.88648  0.38925  1.0000
  S   S546      1.0  0.73574  0.93702  0.40712  1.0000
  S   S547      1.0  0.77170  0.96131  0.37837  1.0000
  C   C1586     1.0  0.68181  0.92945  0.40156  1.0000
  C   C1587     1.0  0.69889  0.80266  0.27752  1.0000
  C   C1588     1.0  0.71680  0.96589  0.45816  1.0000
  C   C1589     1.0  0.67694  0.91280  0.44650  1.0000
  C   C1590     1.0  0.68803  0.92305  0.42563  1.0000
  H   H1597     1.0  0.70893  0.76942  0.28459  1.0000
  H   H1598     1.0  0.74441  0.77745  0.21662  1.0000
  H   H1599     1.0  0.70138  0.92613  0.42840  1.0000
  C   C1591     1.0  0.69319  0.88602  0.39589  1.0000
  C   C1592     1.0  0.68842  0.96241  0.44412  1.0000
  H   H1600     1.0  0.78696  0.76590  0.01933  1.0000
  S   S548      1.0  0.97177  0.74959  0.09411  1.0000
  H   H1601     1.0  0.66959  0.77833  0.32446  1.0000
  H   H1602     1.0  0.77184  0.97690  0.26952  1.0000
  C   C1593     1.0  0.85143  0.76721  0.19437  1.0000
  C   C1594     1.0  0.75868  0.86677  0.38072  1.0000
  C   C1595     1.0  0.74886  0.86530  0.35400  1.0000
  C   C1596     1.0  0.74569  0.87900  0.34408  1.0000
  C   C1597     1.0  0.75199  0.89425  0.36095  1.0000
  C   C1598     1.0  0.76138  0.89557  0.38815  1.0000
  C   C1599     1.0  0.76485  0.88197  0.39777  1.0000
  H   H1603     1.0  0.74412  0.85378  0.34050  1.0000
  H   H1604     1.0  0.73849  0.87784  0.32293  1.0000
  H   H1605     1.0  0.76641  0.90721  0.40133  1.0000
  H   H1606     1.0  0.77252  0.88331  0.41841  1.0000
  H   H1607     1.0  0.89932  0.76853  0.08673  1.0000
  S   S549      1.0  0.84107  0.76375  0.09110  1.0000
  C   C1600     1.0  0.70411  0.90277  0.35262  1.0000
  C   C1601     1.0  0.76283  0.76658  0.02499  1.0000
  C   C1602     1.0  0.68661  0.91259  0.32052  1.0000
  H   H1608     1.0  0.82320  0.78375  0.17777  1.0000
  C   C1603     1.0  0.76708  0.77407  0.46311  1.0000
  C   C1604     1.0  0.86319  0.77530  0.17307  1.0000
  H   H1609     1.0  0.67872  0.80554  0.30009  1.0000
  Fe  Fe272     1.0  0.79036  0.75271  0.15623  1.0000
  C   C1605     1.0  0.77430  0.98940  0.26261  1.0000
  H   H1610     1.0  0.81474  0.98630  0.33034  1.0000
  C   C1606     1.0  0.70194  0.77708  0.28737  1.0000
  C   C1607     1.0  0.77873  0.76821  0.22597  1.0000
  C   C1608     1.0  0.66442  0.92531  0.39827  1.0000
  C   C1609     1.0  0.75482  0.77582  0.22818  1.0000
  C   C1610     1.0  0.75805  0.77958  0.25956  1.0000
  C   C1611     1.0  0.77163  0.77748  0.27408  1.0000
  C   C1612     1.0  0.78188  0.77184  0.25737  1.0000
  C   C1613     1.0  0.67559  0.89525  0.36427  1.0000
  C   C1614     1.0  0.76506  0.77015  0.21147  1.0000
  H   H1611     1.0  0.77428  0.78028  0.29817  1.0000
  H   H1612     1.0  0.87420  0.77259  0.17081  1.0000
  C   C1615     1.0  0.67511  0.76886  0.39291  1.0000
  C   C1616     1.0  0.67997  0.78203  0.30949  1.0000
  C   C1617     1.0  0.77735  0.76642  0.47479  1.0000
  H   H1613     1.0  0.98952  0.79507  0.11065  1.0000
  H   H1614     1.0  0.71010  0.97699  0.41929  1.0000
  C   C1618     1.0  0.88729  0.76200  0.09660  1.0000
  S   S550      1.0  0.79200  0.76091  0.20618  1.0000
  H   H1615     1.0  0.75059  0.78574  0.47456  1.0000
  H   H1616     1.0  0.97732  0.78266  0.26865  1.0000
  C   C1619     1.0  0.76333  0.99013  0.01574  1.0000
  H   H1617     1.0  0.71825  0.79641  0.25937  1.0000
  C   C1620     1.0  0.68357  0.75638  0.32108  1.0000
  C   C1621     1.0  0.68112  0.77308  0.47217  1.0000
  H   H1618     1.0  0.86908  0.79200  0.13615  1.0000
  S   S551      1.0  0.99212  0.77737  0.16321  1.0000
  C   C1622     1.0  0.99242  0.80515  0.06592  1.0000
  C   C1623     1.0  0.80406  0.81528  0.40651  1.0000
  H   H1619     1.0  0.81681  0.81593  0.41286  1.0000
  C   C1624     1.0  0.99230  0.77079  0.46766  1.0000
  H   H1620     1.0  0.83911  0.79422  0.11149  1.0000
  H   H1621     1.0  0.80530  0.82380  0.38753  1.0000
  H   H1622     1.0  0.71876  0.89381  0.38219  1.0000
  H   H1623     1.0  0.98405  0.75938  0.45546  1.0000
  C   C1625     1.0  0.78915  0.83054  0.42994  1.0000
  C   C1626     1.0  0.87343  0.76576  0.08813  1.0000
  H   H1624     1.0  0.92328  0.75996  0.47936  1.0000
  Fe  Fe273     1.0  0.96749  0.76317  0.13442  1.0000
  H   H1625     1.0  0.97038  0.77497  0.21377  1.0000
  C   C1627     1.0  0.68266  0.95204  0.46853  1.0000
  C   C1628     1.0  0.70730  0.79237  0.27307  1.0000
  H   H1626     1.0  0.75342  0.98011  0.02648  1.0000
  N   N134      1.0  0.84617  0.78947  0.15560  1.0000
  C   C1629     1.0  0.86029  0.78638  0.15363  1.0000
  H   H1627     1.0  0.73921  0.76910  0.02373  1.0000
  H   H1628     1.0  0.82766  0.76404  0.21238  1.0000
  C   C1630     1.0  0.79716  0.81245  0.45976  1.0000
  S   S552      1.0  0.76760  0.99601  0.32166  1.0000
  H   H1629     1.0  0.69085  0.75589  0.40347  1.0000
  C   C1631     1.0  0.69422  0.94871  0.48729  1.0000
  C   C1632     1.0  0.83457  0.78159  0.17645  1.0000
  H   H1630     1.0  0.80257  0.80333  0.46164  1.0000
  C   C1633     1.0  0.68513  0.79749  0.29585  1.0000
  C   C1634     1.0  0.98168  0.77477  0.00141  1.0000
  H   H1631     1.0  0.66925  0.94601  0.47211  1.0000
  H   H1632     1.0  0.79236  0.77033  0.26892  1.0000
  H   H1633     1.0  0.68310  0.90439  0.29976  1.0000
  C   C1635     1.0  0.77722  0.76917  0.00922  1.0000
  C   C1636     1.0  0.67821  0.75539  0.40328  1.0000
  C   C1637     1.0  0.78059  0.99464  0.23383  1.0000
  H   H1634     1.0  0.67953  0.96448  0.42855  1.0000
  H   H1635     1.0  0.77548  0.84279  0.45210  1.0000
  C   C1638     1.0  0.84319  0.80067  0.13416  1.0000
  C   C1639     1.0  0.80501  0.99098  0.32401  1.0000
  C   C1640     1.0  0.78216  0.82711  0.48238  1.0000
  H   H1636     1.0  0.98031  0.80598  0.06530  1.0000
  H   H1637     1.0  0.69839  0.92385  0.31710  1.0000
  H   H1638     1.0  0.66351  0.89585  0.35965  1.0000
  N   N135      1.0  0.68838  0.77206  0.30515  1.0000
  H   H1639     1.0  0.76247  0.76747  0.18735  1.0000
  H   H1640     1.0  0.68906  0.79690  0.45122  1.0000
  C   C1641     1.0  0.67870  0.78674  0.46094  1.0000
  C   C1642     1.0  0.70654  0.89410  0.37738  1.0000
  N   N136      1.0  0.79678  0.81972  0.43274  1.0000
  S   S553      1.0  0.75987  0.75794  0.06141  1.0000
  H   H1641     1.0  0.85491  0.81214  0.13195  1.0000
  N   N137      1.0  0.68888  0.90350  0.34667  1.0000
  H   H1642     1.0  0.66715  0.88048  0.40377  1.0000
  C   C1643     1.0  0.83704  0.77038  0.19618  1.0000
  H   H1643     1.0  0.83323  0.80455  0.14149  1.0000
  H   H1644     1.0  0.69234  0.75832  0.34124  1.0000
  C   C1644     1.0  0.98740  0.78496  0.25346  1.0000
  C   C1645     1.0  0.78171  0.83437  0.45467  1.0000
  H   H1645     1.0  0.87496  0.77521  0.07167  1.0000
  C   C1646     1.0  0.75029  0.77091  0.01149  1.0000
  H   H1646     1.0  0.81556  0.98839  0.26952  1.0000
  C   C1647     1.0  0.88563  0.75005  0.11828  1.0000
  H   H1647     1.0  0.69338  0.77264  0.47138  1.0000
  H   H1648     1.0  0.67055  0.75195  0.32908  1.0000
  H   H1649     1.0  0.72818  0.94422  0.48737  1.0000
  C   C1648     1.0  0.75849  0.77979  0.48322  1.0000
  H   H1650     1.0  0.80127  0.99536  0.34507  1.0000
  C   C1649     1.0  0.79002  0.81615  0.48505  1.0000
  Fe  Fe274     1.0  0.92932  0.75155  0.11473  1.0000
  C   C1650     1.0  0.66262  0.78675  0.46074  1.0000
  H   H1651     1.0  0.72103  0.96084  0.99921  1.0000
  C   C1651     1.0  0.66749  0.75963  0.48298  1.0000
  H   H1652     1.0  0.78859  0.83618  0.40846  1.0000
  H   H1653     1.0  0.67673  0.91729  0.32429  1.0000
  N   N138      1.0  0.71106  0.95565  0.48196  1.0000
  H   H1654     1.0  0.73012  0.97117  0.45370  1.0000
  Fe  Fe275     1.0  0.77852  0.75086  0.08926  1.0000
  C   C1652     1.0  0.77362  0.98897  0.48660  1.0000
  H   H1655     1.0  0.85336  0.75832  0.20912  1.0000
  H   H1656     1.0  0.98329  0.80994  0.01012  1.0000
  H   H1657     1.0  0.99327  0.76552  0.03628  1.0000
  H   H1658     1.0  0.70573  0.94100  0.01057  1.0000
  C   C1653     1.0  0.95691  0.78361  0.48661  1.0000
  H   H1659     1.0  0.98038  0.80372  0.47587  1.0000
  C   C1654     1.0  0.96972  0.79972  0.49031  1.0000
  Fe  Fe276     1.0  0.96681  0.76530  0.63154  1.0000
  S   S554      1.0  0.95988  0.77682  0.59020  1.0000
  H   H1660     1.0  0.71297  0.91344  0.84842  1.0000
  C   C1655     1.0  0.76830  0.76157  0.72741  1.0000
  S   S555      1.0  0.97273  0.75741  0.51566  1.0000
  H   H1661     1.0  0.97640  0.77554  0.77170  1.0000
  C   C1656     1.0  0.86222  0.76187  0.62372  1.0000
  N   N139      1.0  0.94376  0.77826  0.50537  1.0000
  C   C1657     1.0  0.89191  0.76584  0.62756  1.0000
  S   S556      1.0  0.77350  0.76968  0.56631  1.0000
  C   C1658     1.0  0.69419  0.95974  0.92059  1.0000
  H   H1662     1.0  0.75761  0.81314  0.96135  1.0000
  C   C1659     1.0  0.75728  0.79529  0.68351  1.0000
  H   H1663     1.0  0.70017  0.84551  0.88207  1.0000
  C   C1660     1.0  0.75780  0.77151  0.64215  1.0000
  H   H1664     1.0  0.78378  0.95482  0.82598  1.0000
  S   S557      1.0  0.80098  0.76838  0.63586  1.0000
  Fe  Fe277     1.0  0.74846  0.80023  0.82987  1.0000
  S   S558      1.0  0.76327  0.81718  0.86951  1.0000
  S   S559      1.0  0.76194  0.80257  0.78554  1.0000
  Fe  Fe278     1.0  0.71699  0.78491  0.86662  1.0000
  S   S560      1.0  0.72964  0.80031  0.90877  1.0000
  C   C1661     1.0  0.78944  0.96294  0.80755  1.0000
  Fe  Fe279     1.0  0.74015  0.82182  0.87722  1.0000
  S   S561      1.0  0.73897  0.84582  0.89581  1.0000
  Fe  Fe280     1.0  0.75169  0.79461  0.89789  1.0000
  S   S562      1.0  0.76955  0.78887  0.93027  1.0000
  S   S563      1.0  0.72602  0.80660  0.83552  1.0000
  S   S564      1.0  0.73834  0.77743  0.85784  1.0000
  Fe  Fe281     1.0  0.75423  0.93968  0.86463  1.0000
  S   S565      1.0  0.74072  0.94821  0.82856  1.0000
  S   S566      1.0  0.76275  0.91987  0.84757  1.0000
  Fe  Fe282     1.0  0.75106  0.96363  0.91327  1.0000
  S   S567      1.0  0.73707  0.97332  0.88037  1.0000
  S   S568      1.0  0.75199  0.97002  0.96391  1.0000
  Fe  Fe283     1.0  0.72279  0.94651  0.86485  1.0000
  S   S569      1.0  0.69453  0.93463  0.85394  1.0000
  Fe  Fe284     1.0  0.75634  0.97423  0.84696  1.0000
  C   C1662     1.0  0.75207  0.77770  0.98247  1.0000
  S   S570      1.0  0.73534  0.93652  0.89960  1.0000
  S   S571      1.0  0.77131  0.96601  0.88111  1.0000
  C   C1663     1.0  0.68041  0.92231  0.88042  1.0000
  Fe  Fe285     1.0  0.78567  0.75506  0.59335  1.0000
  H   H1665     1.0  0.79570  0.82175  0.94377  1.0000
  C   C1664     1.0  0.78252  0.85589  0.91376  1.0000
  C   C1665     1.0  0.68628  0.91794  0.90743  1.0000
  Fe  Fe286     1.0  0.81651  0.75345  0.62782  1.0000
  C   C1666     1.0  0.79214  0.83155  0.93588  1.0000
  H   H1666     1.0  0.69964  0.92180  0.91216  1.0000
  C   C1667     1.0  0.94273  0.78876  0.52760  1.0000
  H   H1667     1.0  0.80248  0.86136  0.88295  1.0000
  H   H1668     1.0  0.75808  0.76235  0.62574  1.0000
  C   C1668     1.0  0.77456  0.99375  0.72975  1.0000
  C   C1669     1.0  0.67928  0.77139  0.91723  1.0000
  H   H1669     1.0  0.97904  0.82278  0.51684  1.0000
  C   C1670     1.0  0.86112  0.75629  0.59356  1.0000
  C   C1671     1.0  0.74632  0.86645  0.88231  1.0000
  C   C1672     1.0  0.75487  0.87102  0.85557  1.0000
  C   C1673     1.0  0.75996  0.88745  0.84542  1.0000
  C   C1674     1.0  0.75640  0.89943  0.86164  1.0000
  C   C1675     1.0  0.74784  0.89484  0.88836  1.0000
  C   C1676     1.0  0.74298  0.87850  0.89873  1.0000
  H   H1670     1.0  0.75752  0.86190  0.84265  1.0000
  H   H1671     1.0  0.76661  0.89087  0.82475  1.0000
  H   H1672     1.0  0.74510  0.90392  0.90121  1.0000
  H   H1673     1.0  0.73640  0.87513  0.91948  1.0000
  H   H1674     1.0  0.76352  0.97678  0.76577  1.0000
  H   H1675     1.0  0.87452  0.75194  0.55675  1.0000
  C   C1677     1.0  0.76948  0.82294  0.97164  1.0000
  C   C1678     1.0  0.77080  0.77057  0.52640  1.0000
  H   H1676     1.0  0.73784  0.77470  0.70374  1.0000
  C   C1679     1.0  0.79604  0.85378  0.90148  1.0000
  C   C1680     1.0  0.76643  0.78016  0.96663  1.0000
  C   C1681     1.0  0.66296  0.91725  0.87474  1.0000
  C   C1682     1.0  0.76043  0.77813  0.51471  1.0000
  H   H1677     1.0  0.68952  0.94017  0.50554  1.0000
  N   N140      1.0  0.74686  0.76679  0.66502  1.0000
  C   C1683     1.0  0.66714  0.76805  0.93916  1.0000
  H   H1678     1.0  0.75391  0.78279  0.53013  1.0000
  H   H1679     1.0  0.79791  0.98552  0.83513  1.0000
  H   H1680     1.0  0.77833  0.86508  0.90484  1.0000
  C   C1684     1.0  0.75455  0.76954  0.76835  1.0000
  C   C1685     1.0  0.76489  0.78643  0.76504  1.0000
  C   C1686     1.0  0.77721  0.79076  0.74328  1.0000
  C   C1687     1.0  0.77894  0.77842  0.72459  1.0000
  C   C1688     1.0  0.79575  0.96665  0.75485  1.0000
  H   H1681     1.0  0.74502  0.76598  0.78494  1.0000
  H   H1682     1.0  0.78535  0.80377  0.74061  1.0000
  H   H1683     1.0  0.78834  0.78198  0.70775  1.0000
  C   C1689     1.0  0.89091  0.76062  0.59720  1.0000
  C   C1690     1.0  0.98177  0.77686  0.72429  1.0000
  H   H1684     1.0  0.70469  0.90265  0.81254  1.0000
  C   C1691     1.0  0.95537  0.80492  0.53207  1.0000
  C   C1692     1.0  0.71189  0.94823  0.99079  1.0000
  C   C1693     1.0  0.76881  0.80014  0.66079  1.0000
  N   N141      1.0  0.69969  0.94972  0.96839  1.0000
  C   C1694     1.0  0.98958  0.77331  0.49812  1.0000
  H   H1685     1.0  0.96863  0.77138  0.71640  1.0000
  H   H1686     1.0  0.97373  0.78473  0.96242  1.0000
  H   H1687     1.0  0.93226  0.78459  0.54241  1.0000
  H   H1688     1.0  0.79018  0.77786  0.96820  1.0000
  C   C1695     1.0  0.67483  0.76288  0.88901  1.0000
  H   H1689     1.0  0.79012  0.81010  0.50627  1.0000
  H   H1690     1.0  0.71890  0.96424  0.93945  1.0000
  H   H1691     1.0  0.93659  0.75214  0.50080  1.0000
  N   N142      1.0  0.70999  0.88806  0.84586  1.0000
  C   C1696     1.0  0.70058  0.88392  0.87090  1.0000
  C   C1697     1.0  0.71536  0.87699  0.83293  1.0000
  C   C1698     1.0  0.69684  0.86855  0.88429  1.0000
  C   C1699     1.0  0.71165  0.86143  0.84547  1.0000
  C   C1700     1.0  0.70252  0.85729  0.87153  1.0000
  C   C1701     1.0  0.71379  0.90416  0.83198  1.0000
  C   C1702     1.0  0.87544  0.75589  0.58031  1.0000
  S   S572      1.0  0.98944  0.78175  0.66337  1.0000
  H   H1692     1.0  0.72686  0.90947  0.82407  1.0000
  H   H1693     1.0  0.76320  0.84709  0.94579  1.0000
  H   H1694     1.0  0.77770  0.81306  0.65964  1.0000
  H   H1695     1.0  0.71640  0.85287  0.83582  1.0000
  C   C1703     1.0  0.67690  0.95214  0.92469  1.0000
  N   N143      1.0  0.77899  0.83383  0.94798  1.0000
  C   C1704     1.0  0.93068  0.76122  0.50108  1.0000
  H   H1696     1.0  0.90372  0.76965  0.64083  1.0000
  H   H1697     1.0  0.78722  0.75883  0.51490  1.0000
  C   C1705     1.0  0.70548  0.95845  0.94288  1.0000
  C   C1706     1.0  0.68274  0.94224  0.97263  1.0000
  H   H1698     1.0  0.73389  0.96339  0.50917  1.0000
  H   H1699     1.0  0.69606  0.89259  0.88083  1.0000
  H   H1700     1.0  0.99361  0.81473  0.78239  1.0000
  C   C1707     1.0  0.67110  0.94340  0.95093  1.0000
  H   H1701     1.0  0.76541  0.97949  0.53054  1.0000
  H   H1702     1.0  0.87874  0.77108  0.66388  1.0000
  C   C1708     1.0  0.77917  0.76462  0.50624  1.0000
  H   H1703     1.0  0.95469  0.81304  0.55020  1.0000
  S   S573      1.0  0.69000  0.76528  0.86197  1.0000
  C   C1709     1.0  0.77402  0.84567  0.93700  1.0000
  H   H1704     1.0  0.71728  0.94457  0.52103  1.0000
  H   H1705     1.0  0.77242  0.98383  0.71312  1.0000
  H   H1706     1.0  0.68973  0.86547  0.90455  1.0000
  H   H1707     1.0  0.72296  0.88034  0.81325  1.0000
  C   C1710     1.0  0.98624  0.77925  0.75570  1.0000
  C   C1711     1.0  0.96899  0.81038  0.51336  1.0000
  H   H1708     1.0  0.75726  0.80435  0.70048  1.0000
  H   H1709     1.0  0.92182  0.75780  0.51974  1.0000
  C   C1712     1.0  0.87771  0.76666  0.64057  1.0000
  C   C1713     1.0  0.72811  0.75033  0.92362  1.0000
  C   C1714     1.0  0.67482  0.90895  0.92887  1.0000
  H   H1710     1.0  0.74241  0.78113  0.97252  1.0000
  C   C1715     1.0  0.77900  0.77595  0.98022  1.0000
  H   H1711     1.0  0.67949  0.90593  0.95002  1.0000
  H   H1712     1.0  0.69211  0.78031  0.92236  1.0000
  H   H1713     1.0  0.69879  0.96611  0.89983  1.0000
  H   H1714     1.0  0.77793  0.79173  0.62199  1.0000
  S   S574      1.0  0.90860  0.76027  0.57884  1.0000
  H   H1715     1.0  0.81107  0.83941  0.90259  1.0000
  H   H1716     1.0  0.73323  0.76408  0.92153  1.0000
  H   H1717     1.0  0.80923  0.99203  0.74214  1.0000
  C   C1716     1.0  0.74631  0.77845  0.68529  1.0000
  C   C1717     1.0  0.76563  0.98853  0.98468  1.0000
  S   S575      1.0  0.84485  0.76338  0.64139  1.0000
  C   C1718     1.0  0.77306  0.99032  0.51829  1.0000
  H   H1718     1.0  0.67073  0.77453  0.96107  1.0000
  C   C1719     1.0  0.80089  0.84151  0.91253  1.0000
  H   H1719     1.0  0.77625  0.82980  0.50161  1.0000
  C   C1720     1.0  0.98368  0.78181  0.97264  1.0000
  Fe  Fe287     1.0  0.93296  0.75843  0.59626  1.0000
  H   H1720     1.0  0.66799  0.95254  0.90709  1.0000
  C   C1721     1.0  0.76946  0.98970  0.75961  1.0000
  C   C1722     1.0  0.72309  0.95170  0.50093  1.0000
  Fe  Fe288     1.0  0.96302  0.75651  0.56328  1.0000
  C   C1723     1.0  0.75625  0.75722  0.74965  1.0000
  C   C1724     1.0  0.76903  0.78820  0.63982  1.0000
  S   S576      1.0  0.76932  0.99819  0.82083  1.0000
  H   H1721     1.0  0.79489  0.96153  0.73203  1.0000
  H   H1722     1.0  0.71914  0.94188  0.98013  1.0000
  H   H1723     1.0  0.78200  0.94273  0.77432  1.0000
  H   H1724     1.0  0.71664  0.75031  0.97851  1.0000
  H   H1725     1.0  0.84935  0.75267  0.58025  1.0000
  H   H1726     1.0  0.77676  0.81658  0.98306  1.0000
  C   C1725     1.0  0.78848  0.95613  0.77846  1.0000
  C   C1726     1.0  0.79756  0.98026  0.81259  1.0000
  H   H1727     1.0  0.76638  0.83019  0.98931  1.0000
  C   C1727     1.0  0.80392  0.98390  0.76075  1.0000
  N   N144      1.0  0.80451  0.99049  0.78926  1.0000
  H   H1728     1.0  0.67802  0.93490  0.99238  1.0000
  C   C1728     1.0  0.73520  0.74923  0.66719  1.0000
