data_image0
_chemical_formula_structural       FeS2CH2SNHFeS2H3CFeCFeS2FeS2FeSFeS3FeS2FeS2FeSFeHS2CHC6H5C6H5C6H5C5HC3SCH3NC6H8C2H5CSC3H2NHFeHSH3CSH2FeC2SCH2C3NC3H2C2NC2H3C2H2CHC2HCHCHNHC6SHCH10NCFeS2FeSHFeSFeS3FeS2FeSHFeSFeS3HS2FeHSCH2NC3HC2SC2HC6H4C2HCH2C6H4C6H4SC3HCH2FeC2NHC2H9CH4C2HCH2FeC3HC2H2C2H2CNHCHCHC2HNH2SC2H2CHCHC2SCHC6HCH3C3NHC2H5CHNCSH2CHNCH6C2H2C3HCHCFeS2FeS2FeSFeS3FeS2FeS2FeSFeS3FeS3HC2H2FeS2C2FeH5CSC4HCHC6H3SHC2HSC6H4C6H4C4H3CNH2C3H2CH3CH2CHCNH2FeH7C4HCHCHCHCHCHSNCHCHCHC3HCH2FeCHC3NC2H4CHCHCHCH2CHNCHFeS2FeS2FeSFeS3FeS2FeS2FeSFeS3FeCSHS2HC2HC6H4C6H4C6H4C3H3C3HC4SCH2C3H4NC6H6CHCSHCNHNH7SH2C2HCFeCH2C3NC6H5SHCNC2H5CHCHFeHCH2
_chemical_formula_sum              "Fe48 S96 C288 H288 N24"
_cell_length_a       42.6643
_cell_length_b       34.6203
_cell_length_c       32.3399
_cell_angle_alpha    89.2286
_cell_angle_beta     89.6619
_cell_angle_gamma    89.1199

_space_group_name_H-M_alt    "P 1"
_space_group_IT_number       1

loop_
  _space_group_symop_operation_xyz
  'x, y, z'

loop_
  _atom_site_type_symbol
  _atom_site_label
  _atom_site_symmetry_multiplicity
  _atom_site_fract_x
  _atom_site_fract_y
  _atom_site_fract_z
  _atom_site_occupancy
  Fe  Fe1       1.0  0.12068  0.47762  0.21550  1.0000
  S   S1        1.0  0.12160  0.46962  0.14656  1.0000
  S   S2        1.0  0.10481  0.43615  0.26577  1.0000
  C   C1        1.0  0.30344  0.46752  0.18475  1.0000
  H   H1        1.0  0.39824  0.38054  0.36790  1.0000
  H   H2        1.0  0.35997  0.27066  0.33795  1.0000
  S   S3        1.0  0.16784  0.50457  0.21813  1.0000
  N   N1        1.0  0.03856  0.44202  0.17274  1.0000
  H   H3        1.0  0.10061  0.10937  0.48525  1.0000
  Fe  Fe2       1.0  0.44900  0.46869  0.23765  1.0000
  S   S4        1.0  0.42694  0.44367  0.18173  1.0000
  S   S5        1.0  0.47030  0.43068  0.28824  1.0000
  H   H4        1.0  0.35068  0.36724  0.25370  1.0000
  H   H5        1.0  0.34090  0.29832  0.27118  1.0000
  H   H6        1.0  0.10282  0.04698  0.27905  1.0000
  C   C2        1.0  0.50827  0.48780  0.01856  1.0000
  Fe  Fe3       1.0  0.16726  0.50200  0.14918  1.0000
  C   C3        1.0  0.36976  0.05405  0.40684  1.0000
  Fe  Fe4       1.0  0.16996  0.21655  0.39967  1.0000
  S   S6        1.0  0.17892  0.19521  0.33577  1.0000
  S   S7        1.0  0.21025  0.24753  0.42841  1.0000
  Fe  Fe5       1.0  0.10273  0.18828  0.40032  1.0000
  S   S8        1.0  0.10696  0.16565  0.33554  1.0000
  S   S9        1.0  0.05878  0.16944  0.43380  1.0000
  Fe  Fe6       1.0  0.15347  0.14228  0.35670  1.0000
  S   S10       1.0  0.17329  0.08272  0.34460  1.0000
  Fe  Fe7       1.0  0.13177  0.22126  0.32141  1.0000
  S   S11       1.0  0.12929  0.25518  0.26103  1.0000
  S   S12       1.0  0.14814  0.16154  0.42214  1.0000
  S   S13       1.0  0.12392  0.24599  0.38462  1.0000
  Fe  Fe8       1.0  0.43204  0.21656  0.36538  1.0000
  S   S14       1.0  0.39955  0.23078  0.41837  1.0000
  S   S15       1.0  0.43334  0.25377  0.30688  1.0000
  Fe  Fe9       1.0  0.44948  0.13636  0.40156  1.0000
  S   S16       1.0  0.41822  0.14517  0.45638  1.0000
  S   S17       1.0  0.47807  0.08066  0.40514  1.0000
  Fe  Fe10      1.0  0.38310  0.16991  0.41181  1.0000
  S   S18       1.0  0.33437  0.14549  0.41086  1.0000
  Fe  Fe11      1.0  0.43803  0.20468  0.45803  1.0000
  H   H7        1.0  0.22408  0.46322  0.19712  1.0000
  S   S19       1.0  0.41303  0.15676  0.35642  1.0000
  S   S20       1.0  0.47181  0.19477  0.40553  1.0000
  C   C4        1.0  0.05559  0.38393  0.11809  1.0000
  H   H8        1.0  0.48934  0.12906  0.47540  1.0000
  C   C5        1.0  0.24512  0.21984  0.42349  1.0000
  C   C6        1.0  0.24375  0.18122  0.41164  1.0000
  C   C7        1.0  0.27134  0.15901  0.40780  1.0000
  C   C8        1.0  0.30062  0.17522  0.41535  1.0000
  C   C9        1.0  0.30217  0.21399  0.42691  1.0000
  C   C10       1.0  0.27440  0.23622  0.43120  1.0000
  H   H9        1.0  0.22137  0.16817  0.40590  1.0000
  H   H10       1.0  0.26988  0.12911  0.39888  1.0000
  H   H11       1.0  0.32465  0.22661  0.43317  1.0000
  H   H12       1.0  0.27559  0.26603  0.44055  1.0000
  H   H13       1.0  0.50562  0.23701  0.46897  1.0000
  C   C11       1.0  0.45933  0.38172  0.29385  1.0000
  C   C12       1.0  0.44354  0.36285  0.26241  1.0000
  C   C13       1.0  0.43611  0.32361  0.26687  1.0000
  C   C14       1.0  0.44371  0.30294  0.30318  1.0000
  C   C15       1.0  0.45914  0.32183  0.33499  1.0000
  C   C16       1.0  0.46718  0.36101  0.33012  1.0000
  H   H14       1.0  0.43751  0.37819  0.23428  1.0000
  H   H15       1.0  0.42417  0.30918  0.24216  1.0000
  H   H16       1.0  0.46525  0.30613  0.36304  1.0000
  H   H17       1.0  0.47954  0.37530  0.35457  1.0000
  H   H18       1.0  0.04491  0.47224  0.22909  1.0000
  C   C17       1.0  0.11166  0.38596  0.26340  1.0000
  C   C18       1.0  0.10417  0.36298  0.29799  1.0000
  C   C19       1.0  0.10945  0.32285  0.29754  1.0000
  C   C20       1.0  0.12182  0.30536  0.26222  1.0000
  C   C21       1.0  0.12864  0.32826  0.22720  1.0000
  C   C22       1.0  0.12388  0.36857  0.22789  1.0000
  H   H19       1.0  0.09430  0.37626  0.32534  1.0000
  H   H20       1.0  0.10344  0.30539  0.32426  1.0000
  H   H21       1.0  0.13812  0.31480  0.19973  1.0000
  H   H22       1.0  0.12963  0.38610  0.20103  1.0000
  H   H23       1.0  0.27335  0.45038  0.23527  1.0000
  C   C23       1.0  0.11860  0.04998  0.37280  1.0000
  C   C24       1.0  0.36344  0.30100  0.33045  1.0000
  C   C25       1.0  0.43993  0.03928  0.35381  1.0000
  C   C26       1.0  0.24720  0.48227  0.14139  1.0000
  C   C27       1.0  0.38503  0.36290  0.34694  1.0000
  H   H24       1.0  0.38858  0.42013  0.26548  1.0000
  C   C28       1.0  0.46178  0.03796  0.38585  1.0000
  C   C29       1.0  0.15033  0.04435  0.36295  1.0000
  C   C30       1.0  0.24631  0.46885  0.18234  1.0000
  S   S21       1.0  0.40668  0.50383  0.25493  1.0000
  C   C31       1.0  0.49494  0.35621  0.16244  1.0000
  H   H25       1.0  0.35970  0.43596  0.30272  1.0000
  H   H26       1.0  0.36170  0.07064  0.43423  1.0000
  H   H27       1.0  0.10838  0.07878  0.37178  1.0000
  N   N2        1.0  0.18105  0.33844  0.34170  1.0000
  C   C32       1.0  0.18134  0.36978  0.31545  1.0000
  C   C33       1.0  0.19124  0.30305  0.32842  1.0000
  C   C34       1.0  0.19280  0.36629  0.27501  1.0000
  C   C35       1.0  0.20239  0.29837  0.28803  1.0000
  C   C36       1.0  0.20322  0.33026  0.26123  1.0000
  C   C37       1.0  0.16762  0.34211  0.38332  1.0000
  H   H28       1.0  0.17187  0.39748  0.32524  1.0000
  H   H29       1.0  0.19033  0.27806  0.34889  1.0000
  H   H30       1.0  0.19234  0.39104  0.25402  1.0000
  H   H31       1.0  0.20936  0.26990  0.27734  1.0000
  H   H32       1.0  0.21104  0.32681  0.22950  1.0000
  H   H33       1.0  0.17887  0.32115  0.40528  1.0000
  H   H34       1.0  0.17124  0.37146  0.39571  1.0000
  H   H35       1.0  0.14209  0.33632  0.38238  1.0000
  C   C38       1.0  0.03310  0.44695  0.13136  1.0000
  C   C39       1.0  0.30447  0.48132  0.14391  1.0000
  H   H36       1.0  0.30938  0.07152  0.39688  1.0000
  H   H37       1.0  0.50335  0.32923  0.22222  1.0000
  H   H38       1.0  0.37547  0.07502  0.38166  1.0000
  H   H39       1.0  0.48625  0.36101  0.08232  1.0000
  H   H40       1.0  0.48451  0.33053  0.14993  1.0000
  C   C40       1.0  0.35875  0.35525  0.28306  1.0000
  S   S22       1.0  0.46570  0.48509  0.08278  1.0000
  C   C41       1.0  0.31510  0.04174  0.38940  1.0000
  C   C42       1.0  0.35294  0.31648  0.29285  1.0000
  C   C43       1.0  0.27430  0.46127  0.20379  1.0000
  H   H41       1.0  0.43281  0.06682  0.34040  1.0000
  H   H42       1.0  0.08072  0.48892  0.04984  1.0000
  N   N3        1.0  0.37506  0.37766  0.30973  1.0000
  H   H43       1.0  0.38822  0.31239  0.38672  1.0000
  Fe  Fe12      1.0  0.38536  0.48136  0.19719  1.0000
  H   H44       1.0  0.15986  0.04461  0.26421  1.0000
  S   S23       1.0  0.33778  0.45691  0.21309  1.0000
  H   H45       1.0  0.06306  0.24917  0.46280  1.0000
  H   H46       1.0  0.07050  0.35192  0.17247  1.0000
  H   H47       1.0  0.40059  0.43001  0.31691  1.0000
  C   C44       1.0  0.27637  0.48833  0.12219  1.0000
  S   S24       1.0  0.21231  0.49133  0.11349  1.0000
  H   H48       1.0  0.06265  0.36149  0.09669  1.0000
  H   H49       1.0  0.27723  0.49839  0.09038  1.0000
  Fe  Fe13      1.0  0.44629  0.49560  0.14775  1.0000
  C   C45       1.0  0.03679  0.19682  0.46945  1.0000
  C   C46       1.0  0.06006  0.37859  0.16051  1.0000
  S   S25       1.0  0.47171  0.51843  0.20308  1.0000
  C   C47       1.0  0.38121  0.41795  0.29843  1.0000
  H   H50       1.0  0.32684  0.48588  0.12884  1.0000
  H   H51       1.0  0.46060  0.40094  0.09645  1.0000
  C   C48       1.0  0.04178  0.41820  0.10336  1.0000
  C   C49       1.0  0.05111  0.40801  0.18758  1.0000
  C   C50       1.0  0.37936  0.32439  0.35785  1.0000
  N   N4        1.0  0.34522  0.02802  0.39312  1.0000
  C   C51       1.0  0.51346  0.23484  0.50063  1.0000
  C   C52       1.0  0.05818  0.49893  0.03844  1.0000
  C   C53       1.0  0.04413  0.23492  0.47899  1.0000
  H   H52       1.0  0.03788  0.42264  0.07046  1.0000
  H   H53       1.0  0.05445  0.40358  0.22054  1.0000
  C   C54       1.0  0.51307  0.13396  0.48569  1.0000
  C   C55       1.0  0.48527  0.39005  0.09647  1.0000
  N   N5        1.0  0.49729  0.38918  0.13886  1.0000
  C   C56       1.0  0.50198  0.49850  0.05966  1.0000
  C   C57       1.0  0.08048  0.10065  0.50515  1.0000
  H   H54       1.0  0.39160  0.03818  0.41570  1.0000
  H   H55       1.0  0.49931  0.40968  0.07635  1.0000
  H   H56       1.0  0.03153  0.50161  0.18664  1.0000
  C   C58       1.0  0.02938  0.47256  0.20153  1.0000
  C   C59       1.0  0.50564  0.35520  0.20327  1.0000
  H   H57       1.0  0.06008  0.09723  0.48432  1.0000
  H   H58       1.0  0.51011  0.44855  0.13716  1.0000
  C   C60       1.0  0.50913  0.42206  0.15540  1.0000
  H   H59       1.0  0.26735  0.02869  0.37328  1.0000
  C   C61       1.0  0.51968  0.42219  0.19627  1.0000
  C   C62       1.0  0.51815  0.38842  0.22015  1.0000
  H   H60       1.0  0.50464  0.37118  0.75341  1.0000
  C   C63       1.0  0.49174  0.22958  0.53259  1.0000
  H   H61       1.0  0.48542  0.22377  0.59855  1.0000
  C   C64       1.0  0.08710  0.16495  0.53511  1.0000
  H   H62       1.0  0.04825  0.20824  0.61451  1.0000
  N   N6        1.0  0.07291  0.12975  0.53636  1.0000
  H   H63       1.0  0.03257  0.28394  0.51721  1.0000
  C   C65       1.0  0.50221  0.22769  0.57370  1.0000
  C   C66       1.0  0.49419  0.13079  0.55719  1.0000
  C   C67       1.0  0.04605  0.48398  0.00156  1.0000
  C   C68       1.0  0.05051  0.12195  0.56567  1.0000
  C   C69       1.0  0.05576  0.18590  0.59325  1.0000
  C   C70       1.0  0.04171  0.14980  0.59459  1.0000
  S   S26       1.0  0.45161  0.22406  0.52197  1.0000
  H   H64       1.0  0.08653  0.07251  0.52012  1.0000
  C   C71       1.0  0.07874  0.19353  0.56350  1.0000
  H   H65       1.0  0.02359  0.14365  0.61731  1.0000
  H   H66       1.0  0.08914  0.22188  0.56135  1.0000
  H   H67       1.0  0.05952  0.46258  0.98469  1.0000
  H   H68       1.0  0.03883  0.09434  0.56640  1.0000
  H   H69       1.0  0.49981  0.14424  0.58720  1.0000
  H   H70       1.0  0.48997  0.09954  0.56215  1.0000
  H   H71       1.0  0.03052  0.51758  0.85993  1.0000
  H   H72       1.0  0.10397  0.17175  0.51093  1.0000
  H   H73       1.0  0.47217  0.14507  0.54608  1.0000
  H   H74       1.0  0.49084  0.47221  0.00159  1.0000
  N   N7        1.0  0.51953  0.13616  0.52694  1.0000
  C   C72       1.0  0.02690  0.25449  0.50982  1.0000
  Fe  Fe14      1.0  0.18097  0.84922  0.39555  1.0000
  S   S27       1.0  0.15035  0.86519  0.34146  1.0000
  S   S28       1.0  0.22901  0.87541  0.39594  1.0000
  Fe  Fe15      1.0  0.12690  0.81371  0.44403  1.0000
  S   S29       1.0  0.09264  0.82717  0.39361  1.0000
  H   H75       1.0  0.44153  0.79146  0.24859  1.0000
  Fe  Fe16      1.0  0.13033  0.80592  0.35062  1.0000
  S   S30       1.0  0.11105  0.77068  0.29837  1.0000
  Fe  Fe17      1.0  0.11593  0.88454  0.38971  1.0000
  S   S31       1.0  0.08834  0.94048  0.38965  1.0000
  S   S32       1.0  0.16356  0.78808  0.40152  1.0000
  S   S33       1.0  0.14759  0.87266  0.44309  1.0000
  Fe  Fe18      1.0  0.39471  0.79803  0.39730  1.0000
  S   S34       1.0  0.41490  0.81344  0.33537  1.0000
  S   S35       1.0  0.34913  0.76708  0.40519  1.0000
  Fe  Fe19      1.0  0.45170  0.82606  0.44378  1.0000
  S   S36       1.0  0.47719  0.84328  0.38552  1.0000
  H   H76       1.0  0.11733  0.72140  0.37678  1.0000
  Fe  Fe20      1.0  0.43047  0.86814  0.36576  1.0000
  S   S37       1.0  0.41989  0.92654  0.33618  1.0000
  Fe  Fe21      1.0  0.45924  0.78687  0.36062  1.0000
  S   S38       1.0  0.48781  0.74290  0.32455  1.0000
  S   S39       1.0  0.40621  0.85461  0.42557  1.0000
  S   S40       1.0  0.43796  0.76796  0.42094  1.0000
  H   H77       1.0  0.18709  0.98105  0.25682  1.0000
  S   S41       1.0  0.14472  0.56069  0.14056  1.0000
  S   S42       1.0  0.16712  0.60611  0.24939  1.0000
  Fe  Fe22      1.0  0.42644  0.55118  0.21563  1.0000
  H   H78       1.0  0.39435  0.75599  0.22650  1.0000
  S   S43       1.0  0.41311  0.61218  0.23475  1.0000
  C   C73       1.0  0.47665  0.71860  0.19536  1.0000
  H   H79       1.0  0.07500  0.02237  0.38836  1.0000
  H   H80       1.0  0.06529  0.83977  0.46813  1.0000
  N   N8        1.0  0.07439  0.72535  0.41058  1.0000
  C   C74       1.0  0.16193  0.98234  0.26179  1.0000
  C   C75       1.0  0.47373  0.75235  0.21847  1.0000
  C   C76       1.0  0.45456  0.66354  0.15970  1.0000
  H   H81       1.0  0.20960  0.55771  0.17445  1.0000
  C   C77       1.0  0.09973  0.01803  0.38208  1.0000
  C   C78       1.0  0.43705  0.96885  0.35518  1.0000
  S   S44       1.0  0.09549  0.53502  0.21312  1.0000
  C   C79       1.0  0.45870  0.96749  0.38751  1.0000
  C   C80       1.0  0.05572  0.82851  0.49654  1.0000
  H   H82       1.0  0.46588  0.93990  0.40069  1.0000
  C   C81       1.0  0.46724  0.70249  0.30642  1.0000
  C   C82       1.0  0.48365  0.67196  0.28734  1.0000
  C   C83       1.0  0.46738  0.64203  0.26801  1.0000
  C   C84       1.0  0.43458  0.64299  0.26696  1.0000
  C   C85       1.0  0.41828  0.67266  0.28751  1.0000
  C   C86       1.0  0.43449  0.70200  0.30757  1.0000
  H   H83       1.0  0.46921  0.64227  0.17731  1.0000
  H   H84       1.0  0.48021  0.61927  0.25240  1.0000
  H   H85       1.0  0.39292  0.67363  0.28693  1.0000
  H   H86       1.0  0.42156  0.72512  0.32242  1.0000
  C   C87       1.0  0.09508  0.91431  0.27659  1.0000
  C   C88       1.0  0.11264  0.98053  0.38204  1.0000
  H   H87       1.0  0.28748  0.57575  0.14411  1.0000
  C   C89       1.0  0.14462  0.97514  0.37397  1.0000
  H   H88       1.0  0.07622  0.72063  0.47642  1.0000
  H   H89       1.0  0.15489  0.94640  0.37434  1.0000
  C   C90       1.0  0.12667  0.72473  0.28555  1.0000
  C   C91       1.0  0.15486  0.71094  0.30239  1.0000
  C   C92       1.0  0.16679  0.67442  0.29115  1.0000
  C   C93       1.0  0.15057  0.65127  0.26332  1.0000
  C   C94       1.0  0.12216  0.66484  0.24690  1.0000
  C   C95       1.0  0.11034  0.70153  0.25789  1.0000
  H   H90       1.0  0.16778  0.72863  0.32346  1.0000
  H   H91       1.0  0.18885  0.66416  0.30386  1.0000
  H   H92       1.0  0.10954  0.64730  0.22533  1.0000
  H   H93       1.0  0.08854  0.71204  0.24464  1.0000
  C   C96       1.0  0.26192  0.84445  0.39662  1.0000
  C   C97       1.0  0.25894  0.80445  0.40092  1.0000
  C   C98       1.0  0.28589  0.78066  0.40259  1.0000
  C   C99       1.0  0.31575  0.79684  0.39960  1.0000
  C   C100      1.0  0.31867  0.83680  0.39485  1.0000
  C   C101      1.0  0.29178  0.86056  0.39370  1.0000
  H   H94       1.0  0.23595  0.79187  0.40321  1.0000
  H   H95       1.0  0.28359  0.74972  0.40631  1.0000
  H   H96       1.0  0.34162  0.84943  0.39243  1.0000
  H   H97       1.0  0.29407  0.89147  0.39053  1.0000
  S   S45       1.0  0.05441  0.54513  0.10818  1.0000
  C   C102      1.0  0.42130  0.71244  0.19396  1.0000
  C   C103      1.0  0.41753  0.74621  0.21693  1.0000
  C   C104      1.0  0.44397  0.76616  0.22930  1.0000
  H   H98       1.0  0.40070  0.69620  0.18600  1.0000
  C   C105      1.0  0.32941  0.96595  0.36884  1.0000
  H   H99       1.0  0.28022  0.96041  0.35530  1.0000
  H   H100      1.0  0.27400  0.54967  0.29366  1.0000
  Fe  Fe23      1.0  0.09899  0.52883  0.14372  1.0000
  C   C106      1.0  0.14664  0.01802  0.26574  1.0000
  C   C107      1.0  0.47130  0.00196  0.40245  1.0000
  N   N9        1.0  0.45062  0.69911  0.18345  1.0000
  H   H101      1.0  0.30120  0.88121  0.50145  1.0000
  C   C108      1.0  0.05670  0.73555  0.37689  1.0000
  C   C109      1.0  0.06239  0.72919  0.44966  1.0000
  H   H102      1.0  0.09722  0.92184  0.48435  1.0000
  H   H103      1.0  0.15687  0.92075  0.26308  1.0000
  H   H104      1.0  0.49989  0.70741  0.18815  1.0000
  H   H105      1.0  0.18792  0.00251  0.35687  1.0000
  H   H106      1.0  0.49704  0.90543  0.47271  1.0000
  H   H107      1.0  0.33560  0.93654  0.36028  1.0000
  H   H108      1.0  0.07272  0.91702  0.25931  1.0000
  H   H109      1.0  0.37642  0.97981  0.38522  1.0000
  H   H110      1.0  0.21718  0.60861  0.17764  1.0000
  C   C110      1.0  0.30714  0.55451  0.24332  1.0000
  H   H111      1.0  0.38484  0.74908  0.48427  1.0000
  H   H112      1.0  0.41125  0.00608  0.31312  1.0000
  H   H113      1.0  0.07330  0.98606  0.28573  1.0000
  H   H114      1.0  0.10820  0.88897  0.26409  1.0000
  C   C111      1.0  0.52279  0.90733  0.46767  1.0000
  C   C112      1.0  0.28444  0.57070  0.17704  1.0000
  H   H115      1.0  0.06588  0.73151  0.34585  1.0000
  C   C113      1.0  0.35257  0.99072  0.38279  1.0000
  H   H116      1.0  0.49439  0.76675  0.22966  1.0000
  H   H117      1.0  0.23298  0.57995  0.13551  1.0000
  Fe  Fe24      1.0  0.14303  0.56175  0.20997  1.0000
  C   C114      1.0  0.11454  0.01936  0.27403  1.0000
  C   C115      1.0  0.16338  0.00697  0.36428  1.0000
  C   C116      1.0  0.25128  0.56434  0.23592  1.0000
  H   H118      1.0  0.43179  0.64938  0.15400  1.0000
  C   C117      1.0  0.31086  0.56232  0.20119  1.0000
  C   C118      1.0  0.27719  0.55565  0.26093  1.0000
  H   H119      1.0  0.33403  0.56091  0.18719  1.0000
  H   H120      1.0  0.22799  0.56524  0.24969  1.0000
  C   C119      1.0  0.29849  0.97946  0.36574  1.0000
  C   C120      1.0  0.14469  0.94837  0.26555  1.0000
  H   H121      1.0  0.46588  0.66984  0.12941  1.0000
  H   H122      1.0  0.48833  0.00079  0.42707  1.0000
  C   C121      1.0  0.22751  0.58010  0.16916  1.0000
  N   N10       1.0  0.25513  0.57135  0.19449  1.0000
  H   H123      1.0  0.12124  0.71492  0.43136  1.0000
  C   C122      1.0  0.10586  0.70869  0.40465  1.0000
  H   H124      1.0  0.10446  0.67696  0.40068  1.0000
  C   C123      1.0  0.42785  0.00483  0.33830  1.0000
  H   H125      1.0  0.08964  0.90828  0.30964  1.0000
  C   C124      1.0  0.09805  0.98484  0.27785  1.0000
  C   C125      1.0  0.02676  0.75195  0.38195  1.0000
  H   H126      1.0  0.32747  0.54720  0.26207  1.0000
  N   N11       1.0  0.11305  0.94999  0.27276  1.0000
  H   H127      1.0  0.28650  0.81322  0.48948  1.0000
  H   H128      1.0  0.50901  0.67200  0.28663  1.0000
  S   S46       1.0  0.11067  0.78697  0.50446  1.0000
  C   C126      1.0  0.02579  0.84061  0.50914  1.0000
  C   C127      1.0  0.33321  0.79077  0.50101  1.0000
  H   H129      1.0  0.52031  0.52718  0.11275  1.0000
  H   H130      1.0  0.51848  0.79943  0.47083  1.0000
  C   C128      1.0  0.31029  0.82002  0.49829  1.0000
  H   H131      1.0  0.04858  0.95567  0.46302  1.0000
  C   C129      1.0  0.05008  0.94238  0.49359  1.0000
  H   H132      1.0  0.32682  0.76133  0.49410  1.0000
  C   C130      1.0  0.03245  0.74523  0.45586  1.0000
  C   C131      1.0  0.07757  0.92298  0.50580  1.0000
  S   S47       1.0  0.40213  0.53114  0.15824  1.0000
  C   C132      1.0  0.29125  0.01766  0.37594  1.0000
  H   H133      1.0  0.02336  0.74917  0.48700  1.0000
  C   C133      1.0  0.04108  0.52673  0.06046  1.0000
  C   C134      1.0  0.31863  0.85822  0.50481  1.0000
  C   C135      1.0  0.03368  0.54639  0.84487  1.0000
  C   C136      1.0  0.37182  0.83663  0.51767  1.0000
  C   C137      1.0  0.07319  0.80269  0.52097  1.0000
  C   C138      1.0  0.51151  0.83755  0.56684  1.0000
  H   H134      1.0  0.05859  0.54950  0.83556  1.0000
  C   C139      1.0  0.06060  0.78949  0.55872  1.0000
  H   H135      1.0  0.07402  0.76953  0.57792  1.0000
  H   H136      1.0  0.11954  0.87042  0.52862  1.0000
  H   H137      1.0  0.05567  0.89209  0.60052  1.0000
  C   C140      1.0  0.50291  0.82664  0.52701  1.0000
  C   C141      1.0  0.05454  0.90677  0.57069  1.0000
  C   C142      1.0  0.10821  0.88436  0.55576  1.0000
  N   N12       1.0  0.07931  0.90489  0.54365  1.0000
  H   H138      1.0  0.38438  0.75086  0.54025  1.0000
  C   C143      1.0  0.02978  0.57300  0.91454  1.0000
  C   C144      1.0  0.03074  0.80245  0.57199  1.0000
  H   H139      1.0  0.50042  0.94053  0.53603  1.0000
  H   H140      1.0  0.02493  0.59818  0.97501  1.0000
  H   H141      1.0  0.49463  0.85210  0.58655  1.0000
  H   H142      1.0  0.12485  0.90474  0.56966  1.0000
  H   H143      1.0  0.10328  0.86055  0.57821  1.0000
  C   C145      1.0  0.02674  0.92607  0.55955  1.0000
  H   H144      1.0  0.04050  0.54661  0.92661  1.0000
  N   N13       1.0  0.02451  0.57742  0.87306  1.0000
  C   C146      1.0  0.38726  0.76823  0.51144  1.0000
  S   S48       1.0  0.46489  0.83853  0.50967  1.0000
  H   H145      1.0  0.39592  0.84345  0.52495  1.0000
  H   H146      1.0  0.35635  0.89626  0.51991  1.0000
  C   C147      1.0  0.34953  0.86665  0.51492  1.0000
  H   H147      1.0  0.41152  0.77963  0.51040  1.0000
  N   N14       1.0  0.36363  0.79939  0.50978  1.0000
  C   C148      1.0  0.02446  0.94368  0.52060  1.0000
  H   H148      1.0  0.00478  0.46857  0.21182  1.0000
  H   H149      1.0  0.00634  0.14920  0.48314  1.0000
  H   H150      1.0  0.52554  0.38843  0.25224  1.0000
  H   H151      1.0  0.53139  0.13691  0.42343  1.0000
  H   H152      1.0  0.58592  0.14972  0.44647  1.0000
  H   H153      1.0  0.52831  0.44851  0.20972  1.0000
  C   C149      1.0  0.67074  0.49026  0.01455  1.0000
  C   C150      1.0  0.55945  0.51795  0.02028  1.0000
  H   H154      1.0  0.64678  0.48028  0.01658  1.0000
  H   H155      1.0  0.69319  0.40710  0.02432  1.0000
  C   C151      1.0  0.52475  0.51868  0.08117  1.0000
  C   C152      1.0  0.01221  0.17859  0.49054  1.0000
  C   C153      1.0  0.53684  0.13848  0.45613  1.0000
  H   H156      1.0  0.02212  0.47336  0.11978  1.0000
  C   C154      1.0  0.73163  0.51678  0.00924  1.0000
  H   H157      1.0  0.56212  0.24209  0.48466  1.0000
  C   C155      1.0  0.56738  0.14529  0.46906  1.0000
  Fe  Fe25      1.0  0.95530  0.22075  0.61502  1.0000
  S   S49       1.0  0.98318  0.19932  0.66924  1.0000
  S   S50       1.0  0.98244  0.25966  0.57167  1.0000
  Fe  Fe26      1.0  0.89582  0.18211  0.64657  1.0000
  S   S51       1.0  0.91952  0.15882  0.70351  1.0000
  S   S52       1.0  0.84752  0.15832  0.63817  1.0000
  Fe  Fe27      1.0  0.94107  0.21748  0.70657  1.0000
  S   S53       1.0  0.94831  0.24877  0.76660  1.0000
  Fe  Fe28      1.0  0.95880  0.14301  0.66027  1.0000
  S   S54       1.0  0.98393  0.08532  0.65384  1.0000
  S   S55       1.0  0.91425  0.24235  0.65286  1.0000
  S   S56       1.0  0.93402  0.16318  0.60302  1.0000
  Fe  Fe29      1.0  0.62019  0.22454  0.62087  1.0000
  S   S57       1.0  0.60234  0.19026  0.67544  1.0000
  S   S58       1.0  0.59668  0.23589  0.55937  1.0000
  Fe  Fe30      1.0  0.68365  0.23892  0.66064  1.0000
  S   S59       1.0  0.67106  0.20595  0.71818  1.0000
  S   S60       1.0  0.72975  0.26969  0.65566  1.0000
  Fe  Fe31      1.0  0.65040  0.16248  0.67549  1.0000
  S   S61       1.0  0.66575  0.09977  0.68202  1.0000
  Fe  Fe32      1.0  0.62466  0.23702  0.71314  1.0000
  S   S62       1.0  0.60235  0.26170  0.77098  1.0000
  S   S63       1.0  0.66672  0.19343  0.61806  1.0000
  S   S64       1.0  0.63868  0.27322  0.65838  1.0000
  Fe  Fe33      1.0  0.61371  0.47756  0.84981  1.0000
  S   S65       1.0  0.63145  0.46030  0.91285  1.0000
  S   S66       1.0  0.59044  0.44049  0.80200  1.0000
  S   S67       1.0  0.72357  0.46093  0.90104  1.0000
  H   H158      1.0  0.70269  0.41384  0.97004  1.0000
  C   C156      1.0  0.81179  0.49585  0.80150  1.0000
  C   C157      1.0  0.91002  0.04507  0.59031  1.0000
  H   H159      1.0  0.81141  0.30132  0.79130  1.0000
  H   H160      1.0  0.75021  0.24200  0.74125  1.0000
  Fe  Fe34      1.0  0.91709  0.46305  0.83405  1.0000
  S   S68       1.0  0.91204  0.46765  0.90322  1.0000
  S   S69       1.0  0.89615  0.41965  0.79044  1.0000
  C   C158      1.0  0.01678  0.49664  0.98621  1.0000
  C   C159      1.0  0.68120  0.03386  0.76325  1.0000
  Fe  Fe35      1.0  0.67593  0.48992  0.89356  1.0000
  H   H161      1.0  0.84658  0.17724  0.73150  1.0000
  H   H162      1.0  0.76495  0.28918  0.73024  1.0000
  H   H163      1.0  0.00743  0.29373  0.72022  1.0000
  H   H164      1.0  0.54052  0.39798  0.75790  1.0000
  H   H165      1.0  0.78812  0.43785  0.89686  1.0000
  C   C160      1.0  0.53056  0.36862  0.75493  1.0000
  S   S70       1.0  0.96603  0.48553  0.83281  1.0000
  C   C161      1.0  0.99191  0.35149  0.73512  1.0000
  C   C162      1.0  0.60802  0.06432  0.68613  1.0000
  C   C163      1.0  0.64020  0.06047  0.67835  1.0000
  C   C164      1.0  0.78725  0.46865  0.90215  1.0000
  H   H166      1.0  0.54113  0.48929  0.96721  1.0000
  C   C165      1.0  0.99366  0.31879  0.71040  1.0000
  H   H167      1.0  0.59775  0.09267  0.69108  1.0000
  C   C166      1.0  0.60578  0.31145  0.78168  1.0000
  C   C167      1.0  0.61421  0.33815  0.75086  1.0000
  C   C168      1.0  0.61179  0.37804  0.75835  1.0000
  C   C169      1.0  0.60191  0.39155  0.79709  1.0000
  C   C170      1.0  0.59518  0.36483  0.82863  1.0000
  C   C171      1.0  0.59684  0.32496  0.82081  1.0000
  H   H168      1.0  0.62103  0.32825  0.72059  1.0000
  H   H169      1.0  0.61656  0.39850  0.73361  1.0000
  H   H170      1.0  0.95003  0.32820  0.60127  1.0000
  S   S71       1.0  0.65934  0.50221  0.82946  1.0000
  H   H171      1.0  0.78271  0.44604  0.79455  1.0000
  C   C172      1.0  0.78319  0.47707  0.79852  1.0000
  C   C173      1.0  0.81534  0.48915  0.90484  1.0000
  H   H172      1.0  0.92788  0.07808  0.70415  1.0000
  S   S72       1.0  0.00321  0.47760  0.93891  1.0000
  C   C174      1.0  0.93317  0.29596  0.77345  1.0000
  C   C175      1.0  0.94305  0.31749  0.80734  1.0000
  C   C176      1.0  0.93199  0.35558  0.81301  1.0000
  C   C177      1.0  0.91038  0.37192  0.78530  1.0000
  C   C178      1.0  0.89993  0.35003  0.75199  1.0000
  C   C179      1.0  0.91160  0.31239  0.74573  1.0000
  H   H173      1.0  0.95962  0.30485  0.82904  1.0000
  H   H174      1.0  0.94002  0.37217  0.83892  1.0000
  H   H175      1.0  0.88308  0.36251  0.73058  1.0000
  H   H176      1.0  0.90354  0.29599  0.71983  1.0000
  C   C180      1.0  0.81512  0.19008  0.64006  1.0000
  C   C181      1.0  0.81891  0.23006  0.64222  1.0000
  C   C182      1.0  0.79247  0.25450  0.64600  1.0000
  C   C183      1.0  0.76230  0.23899  0.64786  1.0000
  C   C184      1.0  0.75858  0.19905  0.64554  1.0000
  C   C185      1.0  0.78494  0.17468  0.64138  1.0000
  H   H177      1.0  0.84212  0.24210  0.64110  1.0000
  H   H178      1.0  0.79538  0.28542  0.64773  1.0000
  H   H179      1.0  0.73539  0.18689  0.64712  1.0000
  H   H180      1.0  0.78190  0.14377  0.63970  1.0000
  C   C186      1.0  0.55605  0.23491  0.55050  1.0000
  C   C187      1.0  0.53680  0.49745  0.99894  1.0000
  C   C188      1.0  0.53439  0.22972  0.58264  1.0000
  C   C189      1.0  0.55422  0.29039  0.68178  1.0000
  H   H181      1.0  0.93969  0.40438  0.67870  1.0000
  H   H182      1.0  0.53727  0.35239  0.78352  1.0000
  H   H183      1.0  0.97017  0.40758  0.74317  1.0000
  C   C190      1.0  0.55219  0.37038  0.68440  1.0000
  N   N15       1.0  0.54278  0.34910  0.71810  1.0000
  H   H184      1.0  0.67967  0.06519  0.76360  1.0000
  H   H185      1.0  0.88459  0.21753  0.76941  1.0000
  C   C191      1.0  0.56295  0.35206  0.64855  1.0000
  C   C192      1.0  0.80769  0.21662  0.74220  1.0000
  C   C193      1.0  0.83893  0.20412  0.74559  1.0000
  H   H186      1.0  0.72854  0.03360  0.73936  1.0000
  H   H187      1.0  0.92925  0.05928  0.57449  1.0000
  C   C194      1.0  0.56383  0.31180  0.64725  1.0000
  H   H188      1.0  0.86661  0.27956  0.79989  1.0000
  H   H189      1.0  0.66326  0.42065  0.98722  1.0000
  H   H190      1.0  0.55481  0.14382  0.57262  1.0000
  C   C195      1.0  0.85017  0.26172  0.78354  1.0000
  H   H191      1.0  0.73302  0.48348  0.80130  1.0000
  H   H192      1.0  0.75553  0.27489  0.78293  1.0000
  C   C196      1.0  0.00271  0.23580  0.53150  1.0000
  H   H193      1.0  0.62612  0.03338  0.82143  1.0000
  C   C197      1.0  0.97274  0.38266  0.72328  1.0000
  N   N16       1.0  0.95768  0.34866  0.66236  1.0000
  H   H194      1.0  0.93403  0.37522  0.61104  1.0000
  H   H195      1.0  0.53678  0.29266  0.74406  1.0000
  Fe  Fe36      1.0  0.95991  0.49526  0.90138  1.0000
  H   H196      1.0  0.55560  0.25910  0.68167  1.0000
  H   H197      1.0  0.58680  0.37493  0.85829  1.0000
  H   H198      1.0  0.83764  0.47416  0.90160  1.0000
  H   H199      1.0  0.57082  0.36890  0.62203  1.0000
  H   H200      1.0  0.83371  0.47949  0.79970  1.0000
  H   H201      1.0  0.59018  0.30453  0.84479  1.0000
  H   H202      1.0  0.59740  0.15308  0.52172  1.0000
  C   C198      1.0  0.96257  0.04487  0.67106  1.0000
  C   C199      1.0  0.76567  0.26493  0.75315  1.0000
  C   C200      1.0  0.97627  0.31785  0.67390  1.0000
  C   C201      1.0  0.93545  0.04962  0.69500  1.0000
  H   H203      1.0  0.84553  0.06605  0.64788  1.0000
  C   C202      1.0  0.86025  0.22682  0.76653  1.0000
  H   H204      1.0  0.97735  0.29208  0.65520  1.0000
  C   C203      1.0  0.75817  0.48785  0.90542  1.0000
  H   H205      1.0  0.54241  0.22698  0.61418  1.0000
  C   C204      1.0  0.93829  0.34622  0.62523  1.0000
  H   H206      1.0  0.57242  0.29721  0.61975  1.0000
  C   C205      1.0  0.86297  0.04851  0.63192  1.0000
  H   H207      1.0  0.97668  0.18334  0.53771  1.0000
  C   C206      1.0  0.95546  0.38061  0.68676  1.0000
  H   H208      1.0  0.79135  0.19891  0.72562  1.0000
  S   S73       1.0  0.89612  0.52164  0.82110  1.0000
  N   N17       1.0  0.79807  0.25111  0.75856  1.0000
  C   C207      1.0  0.81890  0.27372  0.77881  1.0000
  H   H209      1.0  0.56477  0.03406  0.69719  1.0000
  C   C208      1.0  0.88684  0.06706  0.60992  1.0000
  H   H210      1.0  0.88766  0.09832  0.60883  1.0000
  C   C209      1.0  0.58945  0.03112  0.68979  1.0000
  H   H211      1.0  0.91544  0.33306  0.63333  1.0000
  C   C210      1.0  0.54352  0.30960  0.71705  1.0000
  C   C211      1.0  0.99541  0.19786  0.52163  1.0000
  C   C212      1.0  0.75520  0.49842  0.80222  1.0000
  H   H212      1.0  0.55182  0.40169  0.68537  1.0000
  C   C213      1.0  0.54958  0.14180  0.53995  1.0000
  H   H213      1.0  0.00445  0.35206  0.76420  1.0000
  H   H214      1.0  0.62414  0.06056  0.77326  1.0000
  Fe  Fe37      1.0  0.61451  0.51954  0.93185  1.0000
  C   C214      1.0  0.68810  0.42472  0.99617  1.0000
  H   H215      1.0  0.74374  0.45848  0.99303  1.0000
  C   C215      1.0  0.72483  0.47809  0.00181  1.0000
  C   C216      1.0  0.62656  0.03113  0.78724  1.0000
  C   C217      1.0  0.99976  0.52458  0.00812  1.0000
  N   N18       1.0  0.69461  0.46546  0.00382  1.0000
  C   C218      1.0  0.54544  0.23795  0.50962  1.0000
  C   C219      1.0  0.57389  0.14681  0.51123  1.0000
  H   H216      1.0  0.57255  0.78632  0.49648  1.0000
  H   H217      1.0  0.99168  0.77015  0.42629  1.0000
  H   H218      1.0  0.53018  0.87988  0.45275  1.0000
  H   H219      1.0  0.99836  0.56079  0.06200  1.0000
  C   C220      1.0  0.01186  0.53945  0.04506  1.0000
  H   H220      1.0  0.71214  0.57273  0.02428  1.0000
  C   C221      1.0  0.70732  0.54248  0.01923  1.0000
  H   H221      1.0  0.58147  0.88517  0.48533  1.0000
  C   C222      1.0  0.55329  0.52832  0.06155  1.0000
  H   H222      1.0  0.57062  0.54422  0.07835  1.0000
  C   C223      1.0  0.01470  0.75705  0.42177  1.0000
  H   H223      1.0  0.52756  0.93189  0.44621  1.0000
  H   H224      1.0  0.01250  0.86063  0.48984  1.0000
  C   C224      1.0  0.67670  0.52913  0.02223  1.0000
  H   H225      1.0  0.01319  0.76085  0.35512  1.0000
  N   N19       1.0  0.53934  0.91249  0.50681  1.0000
  C   C225      1.0  0.52495  0.80804  0.50165  1.0000
  H   H226      1.0  0.65747  0.54886  0.02960  1.0000
  Fe  Fe38      1.0  0.61507  0.81283  0.72820  1.0000
  S   S74       1.0  0.65011  0.79630  0.67913  1.0000
  S   S75       1.0  0.59624  0.77321  0.77856  1.0000
  Fe  Fe39      1.0  0.60622  0.89528  0.69196  1.0000
  S   S76       1.0  0.64043  0.88438  0.64060  1.0000
  S   S77       1.0  0.58038  0.95275  0.69546  1.0000
  Fe  Fe40      1.0  0.61675  0.82725  0.63547  1.0000
  S   S78       1.0  0.60310  0.80395  0.57308  1.0000
  Fe  Fe41      1.0  0.66994  0.85534  0.68952  1.0000
  S   S79       1.0  0.71927  0.87495  0.70173  1.0000
  S   S80       1.0  0.58053  0.83983  0.68394  1.0000
  S   S81       1.0  0.63685  0.86986  0.74162  1.0000
  Fe  Fe42      1.0  0.95042  0.83405  0.62130  1.0000
  S   S82       1.0  0.96335  0.85299  0.68532  1.0000
  S   S83       1.0  0.97692  0.84776  0.56230  1.0000
  Fe  Fe43      1.0  0.88391  0.81312  0.64662  1.0000
  S   S84       1.0  0.89129  0.83083  0.71185  1.0000
  S   S85       1.0  0.83788  0.78870  0.62639  1.0000
  Fe  Fe44      1.0  0.91605  0.88210  0.68526  1.0000
  S   S86       1.0  0.90317  0.94119  0.70905  1.0000
  Fe  Fe45      1.0  0.93753  0.79958  0.70659  1.0000
  S   S87       1.0  0.94739  0.76440  0.76491  1.0000
  S   S88       1.0  0.90457  0.86700  0.62026  1.0000
  S   S89       1.0  0.92858  0.77814  0.64234  1.0000
  Fe  Fe46      1.0  0.64120  0.55885  0.85357  1.0000
  C   C226      1.0  0.72617  0.55903  0.81261  1.0000
  S   S90       1.0  0.65805  0.60752  0.81145  1.0000
  H   H227      1.0  0.00893  0.61534  0.82458  1.0000
  S   S91       1.0  0.94147  0.55620  0.89309  1.0000
  S   S92       1.0  0.96342  0.58205  0.77294  1.0000
  H   H228      1.0  0.62824  0.68276  0.60381  1.0000
  C   C227      1.0  0.01217  0.61132  0.85761  1.0000
  C   C228      1.0  0.56988  0.90027  0.51046  1.0000
  H   H229      1.0  0.63748  0.95537  0.78122  1.0000
  C   C229      1.0  0.94923  0.71343  0.76550  1.0000
  C   C230      1.0  0.95827  0.69274  0.73048  1.0000
  C   C231      1.0  0.96185  0.65231  0.73295  1.0000
  C   C232      1.0  0.95557  0.63223  0.77002  1.0000
  C   C233      1.0  0.94524  0.65278  0.80458  1.0000
  C   C234      1.0  0.94256  0.69332  0.80247  1.0000
  H   H230      1.0  0.96366  0.70798  0.70195  1.0000
  H   H231      1.0  0.96996  0.63657  0.70614  1.0000
  H   H232      1.0  0.94020  0.63755  0.83323  1.0000
  H   H233      1.0  0.93552  0.70921  0.82966  1.0000
  C   C235      1.0  0.61457  0.72808  0.78933  1.0000
  C   C236      1.0  0.60080  0.70269  0.81822  1.0000
  C   C237      1.0  0.61384  0.66562  0.82564  1.0000
  C   C238      1.0  0.64085  0.65383  0.80428  1.0000
  C   C239      1.0  0.65469  0.67932  0.77562  1.0000
  C   C240      1.0  0.64163  0.71627  0.76814  1.0000
  H   H234      1.0  0.57985  0.71165  0.83474  1.0000
  H   H235      1.0  0.60303  0.64623  0.84783  1.0000
  H   H236      1.0  0.67563  0.67042  0.75907  1.0000
  H   H237      1.0  0.65246  0.73553  0.74594  1.0000
  C   C241      1.0  0.75160  0.85150  0.67859  1.0000
  C   C242      1.0  0.78171  0.86537  0.68610  1.0000
  C   C243      1.0  0.80820  0.84686  0.66917  1.0000
  C   C244      1.0  0.80474  0.81417  0.64482  1.0000
  C   C245      1.0  0.77461  0.80038  0.63703  1.0000
  C   C246      1.0  0.74802  0.81905  0.65385  1.0000
  H   H238      1.0  0.78459  0.89045  0.70522  1.0000
  H   H239      1.0  0.83129  0.85779  0.67520  1.0000
  H   H240      1.0  0.77184  0.77509  0.61817  1.0000
  H   H241      1.0  0.72485  0.80827  0.64787  1.0000
  C   C247      1.0  0.63486  0.99053  0.67609  1.0000
  C   C248      1.0  0.60302  0.99411  0.68574  1.0000
  C   C249      1.0  0.00760  0.63639  0.92668  1.0000
  H   H242      1.0  0.64564  0.96229  0.67296  1.0000
  H   H243      1.0  0.63411  0.73314  0.61500  1.0000
  H   H244      1.0  0.01884  0.54700  0.81665  1.0000
  C   C250      1.0  0.92745  0.98018  0.69586  1.0000
  C   C251      1.0  0.95469  0.97515  0.67204  1.0000
  C   C252      1.0  0.58638  0.90602  0.54710  1.0000
  H   H245      1.0  0.96201  0.94645  0.66286  1.0000
  C   C253      1.0  0.56424  0.81201  0.55601  1.0000
  C   C254      1.0  0.54204  0.83047  0.58117  1.0000
  C   C255      1.0  0.57501  0.73520  0.65727  1.0000
  C   C256      1.0  0.54047  0.93721  0.57595  1.0000
  S   S93       1.0  0.66094  0.54779  0.91704  1.0000
  C   C257      1.0  0.97234  0.00748  0.65989  1.0000
  H   H246      1.0  0.83394  0.55039  0.81244  1.0000
  H   H247      1.0  0.54926  0.70240  0.75078  1.0000
  C   C258      1.0  0.71092  0.97589  0.74780  1.0000
  C   C259      1.0  0.01334  0.82814  0.54707  1.0000
  C   C260      1.0  0.70900  0.01612  0.74954  1.0000
  H   H248      1.0  0.62103  0.65651  0.67143  1.0000
  H   H249      1.0  0.86629  0.72061  0.67709  1.0000
  H   H250      1.0  0.02127  0.79275  0.60140  1.0000
  H   H251      1.0  0.87277  0.69025  0.72263  1.0000
  N   N20       1.0  0.85050  0.74427  0.73445  1.0000
  C   C261      1.0  0.85980  0.75932  0.77123  1.0000
  C   C262      1.0  0.82061  0.75061  0.72055  1.0000
  C   C263      1.0  0.83954  0.78324  0.79390  1.0000
  C   C264      1.0  0.79968  0.77425  0.74251  1.0000
  C   C265      1.0  0.80937  0.79099  0.77917  1.0000
  C   C266      1.0  0.87249  0.72040  0.71049  1.0000
  H   H252      1.0  0.88332  0.75373  0.78264  1.0000
  H   H253      1.0  0.81311  0.73848  0.69153  1.0000
  H   H254      1.0  0.84745  0.79615  0.82231  1.0000
  H   H255      1.0  0.77639  0.78040  0.73050  1.0000
  H   H256      1.0  0.79356  0.81010  0.79592  1.0000
  H   H257      1.0  0.89658  0.73197  0.71232  1.0000
  C   C267      1.0  0.00328  0.64117  0.88416  1.0000
  H   H258      1.0  0.70936  0.55088  0.78821  1.0000
  C   C268      1.0  0.58494  0.67505  0.71336  1.0000
  S   S94       1.0  0.84936  0.55557  0.91452  1.0000
  H   H259      1.0  0.52878  0.95132  0.60169  1.0000
  C   C269      1.0  0.78365  0.55599  0.81189  1.0000
  N   N21       1.0  0.86203  0.00901  0.63390  1.0000
  H   H260      1.0  0.68675  0.92278  0.75910  1.0000
  N   N22       1.0  0.65575  0.01213  0.77377  1.0000
  H   H261      1.0  0.84582  0.98908  0.69216  1.0000
  H   H262      1.0  0.73202  0.96148  0.73650  1.0000
  H   H263      1.0  0.60122  0.71874  0.58450  1.0000
  H   H264      1.0  0.99299  0.66772  0.87171  1.0000
  H   H265      1.0  0.83429  0.95989  0.64948  1.0000
  H   H266      1.0  0.73500  0.54262  0.91563  1.0000
  H   H267      1.0  0.54835  0.83998  0.61143  1.0000
  S   S95       1.0  0.59583  0.53111  0.99719  1.0000
  H   H268      1.0  0.81524  0.00584  0.65714  1.0000
  H   H269      1.0  0.58393  0.92917  0.60868  1.0000
  C   C270      1.0  0.55719  0.73360  0.69368  1.0000
  C   C271      1.0  0.57153  0.92469  0.57996  1.0000
  H   H270      1.0  0.71549  0.55289  0.84333  1.0000
  C   C272      1.0  0.52465  0.93100  0.53885  1.0000
  Fe  Fe47      1.0  0.94446  0.54466  0.82500  1.0000
  C   C273      1.0  0.65765  0.97266  0.77297  1.0000
  H   H271      1.0  0.60584  0.01466  0.77702  1.0000
  H   H272      1.0  0.78416  0.58659  0.81850  1.0000
  C   C274      1.0  0.83806  0.99011  0.65939  1.0000
  C   C275      1.0  0.68529  0.95402  0.76017  1.0000
  C   C276      1.0  0.02117  0.60221  0.94203  1.0000
  N   N23       1.0  0.59721  0.70735  0.64916  1.0000
  C   C277      1.0  0.60267  0.67785  0.67694  1.0000
  C   C278      1.0  0.61620  0.71046  0.61135  1.0000
  C   C279      1.0  0.91810  0.01742  0.70756  1.0000
  C   C280      1.0  0.56211  0.70318  0.72171  1.0000
  C   C281      1.0  0.78541  0.54800  0.91613  1.0000
  C   C282      1.0  0.88460  0.98718  0.61456  1.0000
  H   H273      1.0  0.88467  0.95591  0.61764  1.0000
  H   H274      1.0  0.58975  0.65213  0.73583  1.0000
  H   H275      1.0  0.78466  0.57875  0.92170  1.0000
  H   H276      1.0  0.99337  0.00357  0.64151  1.0000
  H   H277      1.0  0.61028  0.89520  0.55031  1.0000
  S   S96       1.0  0.59360  0.53531  0.86956  1.0000
  H   H278      1.0  0.57125  0.75914  0.63579  1.0000
  C   C283      1.0  0.75728  0.52762  0.91251  1.0000
  N   N24       1.0  0.75575  0.53746  0.80820  1.0000
  C   C284      1.0  0.81453  0.52892  0.91183  1.0000
  C   C285      1.0  0.55554  0.80063  0.51623  1.0000
  H   H279      1.0  0.72930  0.59077  0.80969  1.0000
  H   H280      1.0  0.89715  0.02147  0.72611  1.0000
  H   H281      1.0  0.97723  0.53460  0.99671  1.0000
  H   H282      1.0  0.54039  0.75643  0.70079  1.0000
  H   H283      1.0  0.00060  0.65916  0.94769  1.0000
  C   C286      1.0  0.90885  0.00484  0.59239  1.0000
  H   H284      1.0  0.92721  0.98737  0.57832  1.0000
  C   C287      1.0  0.65330  0.02358  0.67220  1.0000
  H   H285      1.0  0.67814  0.02044  0.66586  1.0000
  Fe  Fe48      1.0  0.89403  0.52795  0.88969  1.0000
  H   H286      1.0  0.00668  0.92592  0.58041  1.0000
  C   C288      1.0  0.81202  0.53557  0.80839  1.0000
  H   H287      1.0  0.75554  0.52686  0.00629  1.0000
  H   H288      1.0  0.00270  0.95769  0.51115  1.0000
