data_image0
_chemical_formula_structural       FeHCFeHSFeCFeC2SFeCSH2CSC2H2CHCHCHSHCSC2HCHCH3C2SH3C3HSC2HCHC3H4CHCSCHCNC6H9SNHNFeCHSHCFeHC2HSHCH2CHC2SHCNFeS2FeSHFeHFeS3HSCFeSHFeSFeHSCHS2CH4C2NCH2C6H4CH2CH4FeHSHCH3SH2CHC3NCNC6HCHC3HSH3C5H2CHCH3C3SH2CFeSHFeSCFeSFeSFeS2FeCHFeSFeCS2H3SCHCHC7H4C3HC2HCHC2HC2SNSH2CH4CHC2H3C2HCH2CNCHNC6H8C4H5CHC2S2CHCH3NSHNHC2SCHC3HCFeC2FeCNHFeCSHS2HFeH3CSC5HCHCSC2H2CH2NHCHSH2SC2SHCH2C3H2CHC3HCH3FeH3CSH2NCSHCH2SFeHCHC2HNCH2C2HSCSHCHC4H2SH3CSFeS3C2SHFeCSCFeSHC2FeSCH2CH2FeCS2HC2HCHCFeC2FeHC2FeC4SHC2H2CH2SHCSCH3C5NCHCH5CSFeH2FeH2CH4SCSHNHCNCHSHSHNSCFeC4HSC2H2C2FeHC4H2C2SHC3HC2HSH2CSFeH2FeS2FeSFeHS2FeS2FeSFeHFeHS2C2HNC2HC2SHCHC3HCHC6H5CSCHCSC3HSH3CH2CH4SCSC2H2C2HC2HC2NH3CH4C2HNC3H3C4NH6SC2H3CHC2H2FeSCFeSCFeHFeS2FeHCFeS2FeHFeCS2CH2NCHCHCHC4H4CNC6H4CH2CH2SH2NHC3HC2HC2H2NH2C2HC2HSH4CSC3SCH3C3H6NSHC5HC2HC2H5CFeSFe2C2H5CHCSFeHS2FeSCFeHFeHC3H3FeS2FeCHCSCHCHFeC2HCHCFeH2CNSCHCHSH3NC2SC3H3SCH2CHC2HCH2SCHCH3C2HCNC2HCH3C2HFeC4NC2HSHS2CSH2C5SH2C3SCSCHFeHSCFeH3S2HSFeSCSFeH2SH2NH2SCHC2NC2HC2HCHC2H2C2HCH3CHC3H4FeCH2SHC2HCH2CSH2CHCH2SCSC3HSH2SHC2H2C3HCH2CHC3HC3HSHC2HCFeCSFeS2FeHFeCS2FeS2FeSCFeHFeS2C10H4CHC2H5CH2CH3C2H2CH2C3HCSCHCNHSHCSH2CH2CNH2NSH3C2NCHC4HC2HC2H2C2SCSH2C2NHCSCH2SHFeSCFeSFeS3FeS2FeS2FeSFeHSC7H4C4H3NFeH2C2HCH2NCH2CHSCH5CHCHC3HC2H2CNC6HCH3CH4CHC2HNCHCHC2H3NC2H2SNSCSCFeSCFeSCH2SH3FeSFeHSCH3SHCHCH3C4SCHCH2C3H2SCH4SHSC7HSH2CH2NC3HC2H3CHCH3FeH2NCHC4SC2HC2HFeCH2
_chemical_formula_sum              "Fe96 H576 C576 S192 N48"
_cell_length_a       66.6093
_cell_length_b       35.355
_cell_length_c       38.7283
_cell_angle_alpha    89.8044
_cell_angle_beta     88.829
_cell_angle_gamma    90.4523

_space_group_name_H-M_alt    "P 1"
_space_group_IT_number       1

loop_
  _space_group_symop_operation_xyz
  'x, y, z'

loop_
  _atom_site_type_symbol
  _atom_site_label
  _atom_site_symmetry_multiplicity
  _atom_site_fract_x
  _atom_site_fract_y
  _atom_site_fract_z
  _atom_site_occupancy
  Fe  Fe1       1.0  0.33361  0.06134  0.35272  1.0000
  H   H1        1.0  0.25217  0.43355  0.36657  1.0000
  C   C1        1.0  0.17369  0.05724  0.50160  1.0000
  Fe  Fe2       1.0  0.33077  0.45983  0.31068  1.0000
  H   H2        1.0  0.06944  0.02474  0.11635  1.0000
  S   S1        1.0  0.18627  0.50996  0.39880  1.0000
  Fe  Fe3       1.0  0.01676  0.40583  0.13454  1.0000
  C   C2        1.0  0.18080  0.48578  0.46522  1.0000
  Fe  Fe4       1.0  0.03293  0.04854  0.16671  1.0000
  C   C3        1.0  0.17667  0.02614  0.44570  1.0000
  C   C4        1.0  0.28050  0.04273  0.31863  1.0000
  S   S2        1.0  0.04096  0.09845  0.13278  1.0000
  Fe  Fe5       1.0  0.03671  0.46747  0.17888  1.0000
  C   C5        1.0  0.09127  0.04329  0.26270  1.0000
  S   S3        1.0  0.01718  0.18761  0.18587  1.0000
  H   H3        1.0  0.19466  0.47056  0.46100  1.0000
  H   H4        1.0  0.03432  0.47501  0.03331  1.0000
  C   C6        1.0  0.28348  0.49582  0.28664  1.0000
  S   S4        1.0  0.04027  0.45076  0.12283  1.0000
  C   C7        1.0  0.30818  0.28572  0.28861  1.0000
  C   C8        1.0  0.07637  0.04149  0.23734  1.0000
  H   H5        1.0  0.25714  0.46074  0.28087  1.0000
  H   H6        1.0  0.12627  0.02800  0.47890  1.0000
  C   C9        1.0  0.25369  0.46400  0.36867  1.0000
  H   H7        1.0  0.12897  0.06920  0.35678  1.0000
  C   C10       1.0  0.01770  0.30356  0.13100  1.0000
  H   H8        1.0  0.31517  0.08987  0.47958  1.0000
  C   C11       1.0  0.01682  0.23171  0.16383  1.0000
  H   H9        1.0  0.07709  0.05501  0.05992  1.0000
  S   S5        1.0  0.05870  0.47354  0.22317  1.0000
  H   H10       1.0  0.31301  0.26304  0.37146  1.0000
  C   C12       1.0  0.12835  0.06052  0.38374  1.0000
  S   S6        1.0  0.30607  0.02888  0.37279  1.0000
  C   C13       1.0  0.30533  0.25790  0.34665  1.0000
  C   C14       1.0  0.09152  0.49859  0.25882  1.0000
  H   H11       1.0  0.33939  0.08570  0.45819  1.0000
  C   C15       1.0  0.26200  0.03929  0.30191  1.0000
  H   H12       1.0  0.23316  0.51420  0.28308  1.0000
  C   C16       1.0  0.30984  0.35335  0.27996  1.0000
  H   H13       1.0  0.13605  0.11559  0.40335  1.0000
  H   H14       1.0  0.06585  0.06441  0.23460  1.0000
  H   H15       1.0  0.18274  0.08532  0.45423  1.0000
  C   C17       1.0  0.30774  0.32643  0.33728  1.0000
  C   C18       1.0  0.12379  0.02296  0.39247  1.0000
  S   S7        1.0  0.32916  0.44554  0.36700  1.0000
  H   H16       1.0  0.31242  0.23241  0.33499  1.0000
  H   H17       1.0  0.21829  0.10957  0.50248  1.0000
  H   H18       1.0  0.31090  0.37794  0.26306  1.0000
  C   C19       1.0  0.32450  0.07178  0.46237  1.0000
  C   C20       1.0  0.17277  0.50711  0.43831  1.0000
  C   C21       1.0  0.08166  0.49918  0.22700  1.0000
  H   H19       1.0  0.09208  0.06778  0.27928  1.0000
  S   S8        1.0  0.34430  0.08264  0.30066  1.0000
  C   C22       1.0  0.17811  0.05879  0.46606  1.0000
  C   C23       1.0  0.30891  0.35817  0.31565  1.0000
  H   H20       1.0  0.31043  0.31287  0.23852  1.0000
  C   C24       1.0  0.26274  0.48934  0.28375  1.0000
  H   H21       1.0  0.24319  0.09271  0.49118  1.0000
  C   C25       1.0  0.02983  0.49642  0.01505  1.0000
  C   C26       1.0  0.17109  0.48412  0.49770  1.0000
  C   C27       1.0  0.01961  0.23441  0.12802  1.0000
  H   H22       1.0  0.28920  0.25178  0.35202  1.0000
  H   H23       1.0  0.30758  0.33052  0.36505  1.0000
  H   H24       1.0  0.26030  0.05168  0.27655  1.0000
  H   H25       1.0  0.02148  0.51327  0.24827  1.0000
  C   C28       1.0  0.30953  0.31690  0.26625  1.0000
  H   H26       1.0  0.30929  0.38638  0.32644  1.0000
  C   C29       1.0  0.15317  0.50359  0.50350  1.0000
  S   S9        1.0  0.34136  0.11590  0.37908  1.0000
  C   C30       1.0  0.28292  0.02650  0.35123  1.0000
  H   H27       1.0  0.31686  0.06997  0.43713  1.0000
  C   C31       1.0  0.23668  0.48674  0.36861  1.0000
  N   N1        1.0  0.06709  0.36045  0.20214  1.0000
  C   C32       1.0  0.07012  0.38276  0.17354  1.0000
  C   C33       1.0  0.06345  0.32248  0.19872  1.0000
  C   C34       1.0  0.06993  0.36701  0.14045  1.0000
  C   C35       1.0  0.06338  0.30575  0.16604  1.0000
  C   C36       1.0  0.06656  0.32825  0.13677  1.0000
  C   C37       1.0  0.06657  0.37788  0.23642  1.0000
  H   H28       1.0  0.07243  0.41306  0.17622  1.0000
  H   H29       1.0  0.06027  0.30492  0.22122  1.0000
  H   H30       1.0  0.07179  0.38484  0.11775  1.0000
  H   H31       1.0  0.06000  0.27580  0.16330  1.0000
  H   H32       1.0  0.06554  0.31595  0.11121  1.0000
  H   H33       1.0  0.07822  0.40052  0.23816  1.0000
  H   H34       1.0  0.05164  0.39092  0.24126  1.0000
  H   H35       1.0  0.06949  0.35698  0.25715  1.0000
  H   H36       1.0  0.30812  0.25742  0.27782  1.0000
  S   S10       1.0  0.29999  0.45677  0.28670  1.0000
  N   N2        1.0  0.30745  0.29077  0.32364  1.0000
  H   H37       1.0  0.22180  0.47420  0.36663  1.0000
  N   N3        1.0  0.32723  0.03394  0.47703  1.0000
  Fe  Fe6       1.0  0.01612  0.12890  0.16128  1.0000
  C   C38       1.0  0.13130  0.07479  0.44429  1.0000
  H   H38       1.0  0.28587  0.46310  0.36990  1.0000
  S   S11       1.0  0.02001  0.34789  0.10953  1.0000
  H   H39       1.0  0.08495  0.48292  0.28033  1.0000
  C   C39       1.0  0.27271  0.48090  0.37060  1.0000
  Fe  Fe7       1.0  0.01676  0.07703  0.09752  1.0000
  H   H40       1.0  0.29291  0.05773  0.30621  1.0000
  C   C40       1.0  0.22689  0.08624  0.49001  1.0000
  C   C41       1.0  0.13225  0.08649  0.40984  1.0000
  H   H41       1.0  0.13454  0.09462  0.46486  1.0000
  S   S12       1.0  0.02361  0.07972  0.03933  1.0000
  H   H42       1.0  0.02264  0.27196  0.08410  1.0000
  C   C42       1.0  0.02016  0.27017  0.11176  1.0000
  H   H43       1.0  0.22233  0.08560  0.46256  1.0000
  H   H44       1.0  0.18029  0.02758  0.41843  1.0000
  C   C43       1.0  0.24577  0.01975  0.31762  1.0000
  H   H45       1.0  0.02168  0.20900  0.11289  1.0000
  C   C44       1.0  0.12667  0.03699  0.45209  1.0000
  C   C45       1.0  0.06793  0.02953  0.06085  1.0000
  S   S13       1.0  0.12318  0.01729  0.29986  1.0000
  H   H46       1.0  0.22249  0.01828  0.46069  1.0000
  C   C46       1.0  0.22102  0.01756  0.48864  1.0000
  N   N4        1.0  0.22245  0.05016  0.50745  1.0000
  Fe  Fe8       1.0  0.19103  0.07628  0.65228  1.0000
  S   S14       1.0  0.19225  0.12839  0.61866  1.0000
  S   S15       1.0  0.21580  0.04514  0.67992  1.0000
  Fe  Fe9       1.0  0.14567  0.06557  0.64492  1.0000
  S   S16       1.0  0.14315  0.11600  0.60985  1.0000
  H   H47       1.0  0.17738  0.46740  0.51808  1.0000
  Fe  Fe10      1.0  0.17155  0.09547  0.58431  1.0000
  H   H48       1.0  0.02859  0.02138  0.65748  1.0000
  Fe  Fe11      1.0  0.16375  0.14557  0.64661  1.0000
  S   S17       1.0  0.15393  0.20379  0.66528  1.0000
  S   S18       1.0  0.17245  0.04237  0.61583  1.0000
  S   S19       1.0  0.16423  0.09608  0.68368  1.0000
  H   H49       1.0  0.01746  0.04278  0.74821  1.0000
  S   S20       1.0  0.18998  0.46094  0.58727  1.0000
  C   C47       1.0  0.32480  0.02801  0.51184  1.0000
  Fe  Fe12      1.0  0.15769  0.48037  0.66943  1.0000
  S   S21       1.0  0.14818  0.43830  0.62921  1.0000
  H   H50       1.0  0.12053  0.07194  0.71833  1.0000
  Fe  Fe13      1.0  0.18048  0.41994  0.62897  1.0000
  S   S22       1.0  0.19456  0.36157  0.62671  1.0000
  Fe  Fe14      1.0  0.15864  0.48295  0.59090  1.0000
  H   H51       1.0  0.02025  0.04008  0.91797  1.0000
  S   S23       1.0  0.18971  0.45926  0.67149  1.0000
  C   C48       1.0  0.27831  0.02240  0.63149  1.0000
  H   H52       1.0  0.16402  0.41611  0.72904  1.0000
  S   S24       1.0  0.03412  0.51213  0.91091  1.0000
  S   S25       1.0  0.17671  0.09833  0.52643  1.0000
  C   C49       1.0  0.16759  0.02295  0.51666  1.0000
  H   H53       1.0  0.14107  0.39436  0.74328  1.0000
  H   H54       1.0  0.20815  0.31610  0.70456  1.0000
  H   H55       1.0  0.15267  0.26279  0.73649  1.0000
  H   H56       1.0  0.32050  0.05093  0.52895  1.0000
  C   C50       1.0  0.26446  0.04514  0.61416  1.0000
  C   C51       1.0  0.23988  0.03714  0.66098  1.0000
  N   N5        1.0  0.03718  0.04815  0.70431  1.0000
  C   C52       1.0  0.29360  0.48126  0.57354  1.0000
  H   H57       1.0  0.23512  0.07101  0.61582  1.0000
  H   H58       1.0  0.18864  0.25784  0.71971  1.0000
  C   C53       1.0  0.16429  0.24648  0.64841  1.0000
  C   C54       1.0  0.15291  0.27980  0.65025  1.0000
  C   C55       1.0  0.16164  0.31521  0.64190  1.0000
  C   C56       1.0  0.18193  0.31756  0.63198  1.0000
  C   C57       1.0  0.19309  0.28411  0.62898  1.0000
  C   C58       1.0  0.18431  0.24870  0.63696  1.0000
  H   H59       1.0  0.13740  0.27831  0.65903  1.0000
  H   H60       1.0  0.15287  0.34073  0.64414  1.0000
  H   H61       1.0  0.20878  0.28567  0.62129  1.0000
  H   H62       1.0  0.19325  0.22332  0.63560  1.0000
  C   C59       1.0  0.03959  0.08626  0.75533  1.0000
  H   H63       1.0  0.06398  0.12661  0.75560  1.0000
  H   H64       1.0  0.25180  0.46329  0.62171  1.0000
  C   C60       1.0  0.10881  0.05078  0.72161  1.0000
  H   H65       1.0  0.26860  0.05732  0.58935  1.0000
  H   H66       1.0  0.32349  0.49703  0.55502  1.0000
  H   H67       1.0  0.04348  0.46856  0.97102  1.0000
  H   H68       1.0  0.13653  0.32573  0.73857  1.0000
  Fe  Fe15      1.0  0.19695  0.50175  0.62958  1.0000
  H   H69       1.0  0.28726  0.48231  0.54801  1.0000
  S   S26       1.0  0.12000  0.02433  0.65678  1.0000
  H   H70       1.0  0.03438  0.09278  0.78135  1.0000
  C   C61       1.0  0.31019  0.47881  0.63856  1.0000
  H   H71       1.0  0.22132  0.07512  0.55749  1.0000
  H   H72       1.0  0.05774  0.01915  0.97623  1.0000
  H   H73       1.0  0.19154  0.37821  0.70639  1.0000
  S   S27       1.0  0.14148  0.50436  0.54482  1.0000
  H   H74       1.0  0.02915  0.08354  0.96574  1.0000
  H   H75       1.0  0.25343  0.48331  0.57953  1.0000
  C   C62       1.0  0.26055  0.46246  0.59693  1.0000
  H   H76       1.0  0.10037  0.06881  0.77307  1.0000
  C   C63       1.0  0.31404  0.48958  0.57726  1.0000
  C   C64       1.0  0.09740  0.04889  0.75261  1.0000
  C   C65       1.0  0.03019  0.05767  0.73656  1.0000
  N   N6        1.0  0.28179  0.47201  0.60171  1.0000
  C   C66       1.0  0.11592  0.50715  0.72537  1.0000
  N   N7        1.0  0.16335  0.35581  0.72436  1.0000
  C   C67       1.0  0.15244  0.32389  0.73238  1.0000
  C   C68       1.0  0.18316  0.35324  0.71469  1.0000
  C   C69       1.0  0.16149  0.28827  0.73158  1.0000
  C   C70       1.0  0.19269  0.31812  0.71371  1.0000
  C   C71       1.0  0.18174  0.28546  0.72213  1.0000
  C   C72       1.0  0.15337  0.39260  0.72354  1.0000
  H   H77       1.0  0.14696  0.39752  0.69768  1.0000
  C   C73       1.0  0.24542  0.05272  0.62893  1.0000
  H   H78       1.0  0.07658  0.10890  0.69694  1.0000
  C   C74       1.0  0.22040  0.04920  0.54266  1.0000
  C   C75       1.0  0.05622  0.10513  0.74090  1.0000
  C   C76       1.0  0.28986  0.47041  0.63390  1.0000
  H   H79       1.0  0.28052  0.46349  0.65634  1.0000
  S   S28       1.0  0.14033  0.48742  0.72054  1.0000
  H   H80       1.0  0.05973  0.05762  0.66517  1.0000
  H   H81       1.0  0.25907  0.43367  0.58584  1.0000
  H   H82       1.0  0.31643  0.47875  0.66426  1.0000
  C   C77       1.0  0.06327  0.09522  0.70800  1.0000
  C   C78       1.0  0.02063  0.05802  0.97142  1.0000
  C   C79       1.0  0.32231  0.48826  0.61000  1.0000
  C   C80       1.0  0.05364  0.06619  0.69011  1.0000
  C   C81       1.0  0.03500  0.49283  0.97971  1.0000
  H   H83       1.0  0.33812  0.49459  0.61319  1.0000
  H   H84       1.0  0.18253  0.02749  0.72863  1.0000
  C   C82       1.0  0.10697  0.50940  0.75856  1.0000
  H   H85       1.0  0.16728  0.04834  0.78400  1.0000
  C   C83       1.0  0.08221  0.02140  0.75733  1.0000
  H   H86       1.0  0.11504  0.49905  0.78059  1.0000
  H   H87       1.0  0.16404  0.02153  0.54397  1.0000
  H   H88       1.0  0.06161  0.06277  0.99860  1.0000
  C   C84       1.0  0.10526  0.02479  0.69526  1.0000
  C   C85       1.0  0.15995  0.02656  0.76902  1.0000
  C   C86       1.0  0.06583  0.03238  0.99801  1.0000
  S   S29       1.0  0.06865  0.01963  0.79701  1.0000
  H   H89       1.0  0.08221  0.02999  0.99282  1.0000
  H   H90       1.0  0.13487  0.01967  0.80479  1.0000
  C   C87       1.0  0.02784  0.01667  0.68585  1.0000
  Fe  Fe16      1.0  0.14971  0.97945  0.31276  1.0000
  S   S30       1.0  0.14781  0.92654  0.34549  1.0000
  H   H91       1.0  0.34192  0.94648  0.45257  1.0000
  Fe  Fe17      1.0  0.19604  0.98220  0.31608  1.0000
  S   S31       1.0  0.19755  0.93000  0.34885  1.0000
  C   C88       1.0  0.16139  0.61684  0.48131  1.0000
  Fe  Fe18      1.0  0.17427  0.90598  0.31375  1.0000
  S   S32       1.0  0.18052  0.84858  0.28946  1.0000
  Fe  Fe19      1.0  0.17125  0.95468  0.37795  1.0000
  S   S33       1.0  0.17445  0.95697  0.27843  1.0000
  Fe  Fe20      1.0  0.17134  0.63406  0.33655  1.0000
  S   S34       1.0  0.18107  0.62427  0.28171  1.0000
  S   S35       1.0  0.15989  0.68924  0.35906  1.0000
  Fe  Fe21      1.0  0.17889  0.55157  0.35657  1.0000
  C   C89       1.0  0.24813  0.00373  0.35035  1.0000
  H   H92       1.0  0.13085  0.53901  0.48051  1.0000
  Fe  Fe22      1.0  0.20615  0.58928  0.30317  1.0000
  S   S36       1.0  0.23958  0.59567  0.29112  1.0000
  Fe  Fe23      1.0  0.16205  0.57109  0.28587  1.0000
  C   C90       1.0  0.26433  0.90599  0.32481  1.0000
  S   S37       1.0  0.19783  0.60407  0.35778  1.0000
  S   S38       1.0  0.15119  0.58256  0.34031  1.0000
  H   H93       1.0  0.21492  0.95747  0.48988  1.0000
  H   H94       1.0  0.10182  0.96818  0.43641  1.0000
  H   H95       1.0  0.21036  0.55990  0.48691  1.0000
  S   S39       1.0  0.18824  0.53542  0.30241  1.0000
  C   C91       1.0  0.06356  0.01267  0.09284  1.0000
  H   H96       1.0  0.21674  0.94923  0.24452  1.0000
  C   C92       1.0  0.07498  0.00985  0.21591  1.0000
  H   H97       1.0  0.22168  0.86529  0.29559  1.0000
  C   C93       1.0  0.04335  0.96594  0.06416  1.0000
  C   C94       1.0  0.17609  0.80501  0.31112  1.0000
  C   C95       1.0  0.16374  0.80247  0.34069  1.0000
  C   C96       1.0  0.15929  0.76687  0.35558  1.0000
  C   C97       1.0  0.16727  0.73359  0.34129  1.0000
  C   C98       1.0  0.18005  0.73623  0.31224  1.0000
  C   C99       1.0  0.18433  0.77178  0.29714  1.0000
  H   H98       1.0  0.15726  0.82782  0.35164  1.0000
  H   H99       1.0  0.14940  0.76510  0.37806  1.0000
  H   H100      1.0  0.18630  0.71086  0.30098  1.0000
  H   H101      1.0  0.19389  0.77345  0.27425  1.0000
  C   C100      1.0  0.11836  0.97206  0.43476  1.0000
  C   C101      1.0  0.04824  0.98322  0.03250  1.0000
  C   C102      1.0  0.19207  0.59440  0.45470  1.0000
  H   H102      1.0  0.29517  0.56590  0.36472  1.0000
  C   C103      1.0  0.25810  0.54191  0.37226  1.0000
  C   C104      1.0  0.10507  0.01372  0.26679  1.0000
  H   H103      1.0  0.24644  0.85791  0.34162  1.0000
  C   C105      1.0  0.17068  0.99179  0.46079  1.0000
  H   H104      1.0  0.26844  0.99432  0.39220  1.0000
  C   C106      1.0  0.10878  0.53886  0.20373  1.0000
  C   C107      1.0  0.29481  0.53641  0.37478  1.0000
  H   H105      1.0  0.11426  0.95922  0.24799  1.0000
  C   C108      1.0  0.27693  0.56329  0.29051  1.0000
  C   C109      1.0  0.25614  0.55675  0.28845  1.0000
  S   S40       1.0  0.14190  0.56303  0.23923  1.0000
  N   N8        1.0  0.23598  0.91431  0.27368  1.0000
  S   S41       1.0  0.34725  0.53755  0.41140  1.0000
  H   H106      1.0  0.28252  0.59198  0.29278  1.0000
  H   H107      1.0  0.22751  0.90952  0.22139  1.0000
  C   C110      1.0  0.26633  0.93507  0.30054  1.0000
  H   H108      1.0  0.14735  0.63200  0.47972  1.0000
  H   H109      1.0  0.22574  0.54368  0.36957  1.0000
  H   H110      1.0  0.12078  0.00294  0.37200  1.0000
  H   H111      1.0  0.03330  0.94166  0.06525  1.0000
  C   C111      1.0  0.17430  0.61484  0.45254  1.0000
  H   H112      1.0  0.20195  0.59170  0.43229  1.0000
  C   C112      1.0  0.22115  0.91901  0.24657  1.0000
  C   C113      1.0  0.05124  0.98062  0.09446  1.0000
  H   H113      1.0  0.04182  0.97194  0.00911  1.0000
  H   H114      1.0  0.12510  0.96342  0.45958  1.0000
  H   H115      1.0  0.33552  0.01003  0.42834  1.0000
  C   C114      1.0  0.25193  0.93882  0.27498  1.0000
  C   C115      1.0  0.33674  0.96904  0.46933  1.0000
  H   H116      1.0  0.17039  0.62854  0.42844  1.0000
  C   C116      1.0  0.11868  0.53820  0.23552  1.0000
  H   H117      1.0  0.27860  0.95538  0.30212  1.0000
  H   H118      1.0  0.08302  0.52028  0.17482  1.0000
  C   C117      1.0  0.23418  0.88507  0.29681  1.0000
  N   N9        1.0  0.27473  0.51941  0.37209  1.0000
  C   C118      1.0  0.08881  0.98029  0.21996  1.0000
  H   H119      1.0  0.27517  0.90337  0.34519  1.0000
  N   N10       1.0  0.13129  0.67969  0.27425  1.0000
  C   C119      1.0  0.13017  0.71584  0.28659  1.0000
  C   C120      1.0  0.14097  0.67247  0.24348  1.0000
  C   C121      1.0  0.13904  0.74591  0.26816  1.0000
  C   C122      1.0  0.15032  0.70179  0.22468  1.0000
  C   C123      1.0  0.14935  0.73873  0.23720  1.0000
  C   C124      1.0  0.12140  0.64897  0.29376  1.0000
  H   H120      1.0  0.12285  0.72144  0.31132  1.0000
  H   H121      1.0  0.14178  0.64383  0.23352  1.0000
  H   H122      1.0  0.13855  0.77443  0.27847  1.0000
  H   H123      1.0  0.15838  0.69575  0.20074  1.0000
  H   H124      1.0  0.15680  0.76174  0.22328  1.0000
  H   H125      1.0  0.12513  0.65092  0.32157  1.0000
  H   H126      1.0  0.10489  0.65055  0.29091  1.0000
  H   H127      1.0  0.12637  0.62072  0.28456  1.0000
  C   C125      1.0  0.26666  0.00704  0.36702  1.0000
  C   C126      1.0  0.19671  0.57629  0.48566  1.0000
  C   C127      1.0  0.29054  0.53298  0.28989  1.0000
  C   C128      1.0  0.24822  0.88065  0.32289  1.0000
  H   H128      1.0  0.30649  0.53841  0.29152  1.0000
  H   H129      1.0  0.25961  0.57249  0.37257  1.0000
  H   H130      1.0  0.08786  0.95565  0.20359  1.0000
  H   H131      1.0  0.25319  0.96232  0.25693  1.0000
  H   H132      1.0  0.12469  0.95266  0.41482  1.0000
  C   C129      1.0  0.33321  0.00509  0.45583  1.0000
  H   H133      1.0  0.23578  0.98841  0.36257  1.0000
  C   C130      1.0  0.23888  0.52590  0.37046  1.0000
  C   C131      1.0  0.16613  0.99029  0.49629  1.0000
  S   S42       1.0  0.17148  0.00886  0.34785  1.0000
  S   S43       1.0  0.16860  0.95036  0.43614  1.0000
  C   C132      1.0  0.10382  0.98222  0.24514  1.0000
  H   H134      1.0  0.29962  0.53642  0.40208  1.0000
  C   C133      1.0  0.33421  0.96271  0.50475  1.0000
  H   H135      1.0  0.14828  0.54242  0.42306  1.0000
  H   H136      1.0  0.04749  0.96774  0.11930  1.0000
  H   H137      1.0  0.30602  0.52043  0.35910  1.0000
  N   N11       1.0  0.06045  0.01456  0.03119  1.0000
  S   S44       1.0  0.05619  0.00546  0.18409  1.0000
  H   H138      1.0  0.20719  0.90246  0.25226  1.0000
  N   N12       1.0  0.12335  0.01150  0.42625  1.0000
  H   H139      1.0  0.11545  0.55431  0.18217  1.0000
  C   C134      1.0  0.14482  0.52415  0.47628  1.0000
  C   C135      1.0  0.15467  0.52618  0.44379  1.0000
  S   S45       1.0  0.22334  0.01385  0.29447  1.0000
  C   C136      1.0  0.01851  0.52726  0.02649  1.0000
  H   H140      1.0  0.34368  0.58630  0.47022  1.0000
  C   C137      1.0  0.24910  0.51959  0.28503  1.0000
  C   C138      1.0  0.09037  0.51953  0.19946  1.0000
  C   C139      1.0  0.10989  0.51804  0.26313  1.0000
  H   H141      1.0  0.11731  0.51717  0.28770  1.0000
  C   C140      1.0  0.21684  0.98298  0.50504  1.0000
  Fe  Fe24      1.0  0.32940  0.98369  0.63259  1.0000
  C   C141      1.0  0.10529  0.52061  0.69713  1.0000
  C   C142      1.0  0.07155  0.67628  0.83718  1.0000
  Fe  Fe25      1.0  0.33552  0.57849  0.66660  1.0000
  C   C143      1.0  0.08762  0.52477  0.76350  1.0000
  N   N13       1.0  0.06875  0.65522  0.77852  1.0000
  H   H142      1.0  0.21472  0.01446  0.58789  1.0000
  Fe  Fe26      1.0  0.03972  0.98574  0.80579  1.0000
  C   C144      1.0  0.14127  0.97201  0.72938  1.0000
  S   S46       1.0  0.03579  0.93757  0.84380  1.0000
  H   H143      1.0  0.21121  0.95523  0.55397  1.0000
  S   S47       1.0  0.04363  0.59302  0.83934  1.0000
  S   S48       1.0  0.01740  0.68849  0.85424  1.0000
  H   H144      1.0  0.30839  0.67600  0.61123  1.0000
  Fe  Fe27      1.0  0.03422  0.56647  0.78956  1.0000
  H   H145      1.0  0.31284  0.74485  0.62077  1.0000
  H   H146      1.0  0.11194  0.51910  0.67145  1.0000
  H   H147      1.0  0.17209  0.94526  0.68681  1.0000
  C   C145      1.0  0.28171  0.56538  0.63653  1.0000
  S   S49       1.0  0.33938  0.92935  0.60751  1.0000
  C   C146      1.0  0.07850  0.99574  0.73079  1.0000
  C   C147      1.0  0.30210  0.65108  0.72776  1.0000
  C   C148      1.0  0.08597  0.53606  0.70207  1.0000
  C   C149      1.0  0.06280  0.67867  0.80475  1.0000
  C   C150      1.0  0.30749  0.71513  0.70405  1.0000
  H   H148      1.0  0.31615  0.63481  0.73119  1.0000
  C   C151      1.0  0.30748  0.68734  0.63721  1.0000
  H   H149      1.0  0.28338  0.98966  0.67738  1.0000
  C   C152      1.0  0.09252  0.62580  0.81578  1.0000
  S   S50       1.0  0.05284  0.55894  0.73992  1.0000
  C   C153      1.0  0.09003  0.99739  0.69994  1.0000
  C   C154      1.0  0.26694  0.53713  0.68810  1.0000
  H   H150      1.0  0.13353  0.95156  0.71349  1.0000
  H   H151      1.0  0.24962  0.00245  0.70328  1.0000
  C   C155      1.0  0.24673  0.54378  0.63690  1.0000
  H   H152      1.0  0.26199  0.56995  0.59327  1.0000
  H   H153      1.0  0.19804  0.53366  0.54136  1.0000
  N   N14       1.0  0.30455  0.67727  0.69850  1.0000
  H   H154      1.0  0.33755  0.93526  0.51581  1.0000
  C   C156      1.0  0.14186  0.01038  0.78074  1.0000
  H   H155      1.0  0.29439  0.57791  0.62281  1.0000
  S   S51       1.0  0.30633  0.55968  0.69312  1.0000
  H   H156      1.0  0.31284  0.77004  0.68052  1.0000
  H   H157      1.0  0.09309  0.64691  0.86798  1.0000
  S   S52       1.0  0.01625  0.85069  0.78088  1.0000
  C   C157      1.0  0.27287  0.00717  0.66376  1.0000
  C   C158      1.0  0.07699  0.53813  0.73521  1.0000
  S   S53       1.0  0.33805  0.59689  0.61130  1.0000
  H   H158      1.0  0.08774  0.60961  0.76321  1.0000
  C   C159      1.0  0.31006  0.74013  0.67618  1.0000
  H   H159      1.0  0.26824  0.52813  0.71470  1.0000
  H   H160      1.0  0.32642  0.98784  0.55376  1.0000
  C   C160      1.0  0.28355  0.55392  0.67091  1.0000
  C   C161      1.0  0.13251  0.98272  0.76096  1.0000
  C   C162      1.0  0.26333  0.56067  0.61977  1.0000
  H   H161      1.0  0.17570  0.55116  0.56117  1.0000
  H   H162      1.0  0.29843  0.66602  0.75223  1.0000
  C   C163      1.0  0.05848  0.65702  0.74545  1.0000
  H   H163      1.0  0.06699  0.97422  0.73430  1.0000
  C   C164      1.0  0.32813  0.99230  0.52614  1.0000
  C   C165      1.0  0.30472  0.66323  0.66564  1.0000
  C   C166      1.0  0.08335  0.62888  0.78371  1.0000
  H   H164      1.0  0.16146  0.96376  0.50808  1.0000
  C   C167      1.0  0.08653  0.64967  0.84268  1.0000
  H   H165      1.0  0.08727  0.97706  0.67972  1.0000
  H   H166      1.0  0.30810  0.72621  0.73008  1.0000
  H   H167      1.0  0.07795  0.54639  0.67998  1.0000
  Fe  Fe28      1.0  0.01621  0.91022  0.80400  1.0000
  H   H168      1.0  0.06703  0.64212  0.72467  1.0000
  H   H169      1.0  0.28973  0.63052  0.72300  1.0000
  H   H170      1.0  0.30305  0.63314  0.66131  1.0000
  C   C168      1.0  0.31000  0.72604  0.64259  1.0000
  S   S54       1.0  0.16584  0.52630  0.63124  1.0000
  H   H171      1.0  0.10381  0.60437  0.81991  1.0000
  H   H172      1.0  0.05086  0.69882  0.80098  1.0000
  N   N15       1.0  0.18391  0.57819  0.51366  1.0000
  C   C169      1.0  0.25371  0.01445  0.67837  1.0000
  S   S55       1.0  0.22419  0.53791  0.61408  1.0000
  H   H173      1.0  0.05648  0.68686  0.73720  1.0000
  C   C170      1.0  0.01623  0.73322  0.83326  1.0000
  H   H174      1.0  0.04352  0.64308  0.74812  1.0000
  H   H175      1.0  0.06617  0.69414  0.85815  1.0000
  S   S56       1.0  0.34124  0.96748  0.68480  1.0000
  Fe  Fe29      1.0  0.02411  0.54934  0.86628  1.0000
  H   H176      1.0  0.11818  0.97067  0.76945  1.0000
  C   C171      1.0  0.01817  0.55142  0.96709  1.0000
  H   H177      1.0  0.15698  0.97937  0.66417  1.0000
  C   C172      1.0  0.16845  0.01474  0.73756  1.0000
  C   C173      1.0  0.01630  0.80593  0.80192  1.0000
  H   H178      1.0  0.03563  0.98993  0.69213  1.0000
  N   N16       1.0  0.15902  0.98792  0.71813  1.0000
  C   C174      1.0  0.16792  0.97553  0.68520  1.0000
  H   H179      1.0  0.15615  0.59910  0.53392  1.0000
  H   H180      1.0  0.19838  0.57942  0.56206  1.0000
  C   C175      1.0  0.24865  0.53169  0.67107  1.0000
  C   C176      1.0  0.21459  0.98179  0.54093  1.0000
  H   H181      1.0  0.18170  0.99203  0.67812  1.0000
  S   S57       1.0  0.02255  0.95620  0.76479  1.0000
  C   C177      1.0  0.18932  0.55987  0.54613  1.0000
  S   S58       1.0  0.01705  0.51985  0.81648  1.0000
  H   H182      1.0  0.08094  0.52615  0.78917  1.0000
  C   C178      1.0  0.16648  0.59829  0.51190  1.0000
  H   H183      1.0  0.23596  0.51869  0.68453  1.0000
  C   C179      1.0  0.21648  0.01503  0.55995  1.0000
  C   C180      1.0  0.02896  0.52000  0.95547  1.0000
  C   C181      1.0  0.01817  0.80238  0.83767  1.0000
  C   C182      1.0  0.01823  0.76622  0.85317  1.0000
  H   H184      1.0  0.01979  0.82744  0.85337  1.0000
  H   H185      1.0  0.01991  0.76380  0.88082  1.0000
  S   S59       1.0  0.30196  0.01358  0.61125  1.0000
  H   H186      1.0  0.35639  0.33014  0.30805  1.0000
  H   H187      1.0  0.45350  0.14721  0.26945  1.0000
  H   H188      1.0  0.62114  0.40259  0.17940  1.0000
  C   C183      1.0  0.35564  0.27086  0.37736  1.0000
  S   S60       1.0  0.35284  0.50788  0.31655  1.0000
  Fe  Fe30      1.0  0.64897  0.07729  0.32863  1.0000
  S   S61       1.0  0.61721  0.05740  0.31666  1.0000
  S   S62       1.0  0.65268  0.12950  0.36149  1.0000
  S   S63       1.0  0.36306  0.03341  0.36380  1.0000
  C   C184      1.0  0.61988  0.42731  0.19689  1.0000
  C   C185      1.0  0.66954  0.06162  0.47753  1.0000
  S   S64       1.0  0.35349  0.34813  0.38164  1.0000
  H   H189      1.0  0.64158  0.20884  0.45937  1.0000
  Fe  Fe31      1.0  0.66148  0.47702  0.29976  1.0000
  C   C186      1.0  0.35532  0.23587  0.36009  1.0000
  S   S65       1.0  0.64453  0.45960  0.34789  1.0000
  C   C187      1.0  0.53093  0.10945  0.05186  1.0000
  Fe  Fe32      1.0  0.37463  0.05923  0.31386  1.0000
  S   S66       1.0  0.38550  0.11279  0.33862  1.0000
  H   H190      1.0  0.53002  0.10762  0.02326  1.0000
  C   C188      1.0  0.52052  0.51539  0.03070  1.0000
  C   C189      1.0  0.43805  0.14334  0.26168  1.0000
  Fe  Fe33      1.0  0.37127  0.08904  0.38740  1.0000
  S   S67       1.0  0.38284  0.09615  0.44125  1.0000
  C   C190      1.0  0.45140  0.03531  0.28228  1.0000
  H   H191      1.0  0.37530  0.13667  0.20634  1.0000
  H   H192      1.0  0.48931  0.06914  0.01697  1.0000
  C   C191      1.0  0.56725  0.02929  0.05810  1.0000
  H   H193      1.0  0.55131  0.05602  0.01717  1.0000
  H   H194      1.0  0.52362  0.45572  0.02074  1.0000
  Fe  Fe34      1.0  0.37695  0.46373  0.30995  1.0000
  C   C192      1.0  0.43054  0.03785  0.28850  1.0000
  S   S68       1.0  0.37792  0.45007  0.36689  1.0000
  S   S69       1.0  0.65295  0.35186  0.36228  1.0000
  H   H195      1.0  0.61411  0.50616  0.30240  1.0000
  C   C193      1.0  0.61812  0.03799  0.24692  1.0000
  C   C194      1.0  0.35493  0.23489  0.32403  1.0000
  H   H196      1.0  0.42483  0.04882  0.31281  1.0000
  C   C195      1.0  0.65995  0.02952  0.46457  1.0000
  H   H197      1.0  0.36436  0.47394  0.44828  1.0000
  C   C196      1.0  0.55437  0.05643  0.04458  1.0000
  Fe  Fe35      1.0  0.35471  0.13507  0.32831  1.0000
  C   C197      1.0  0.37755  0.12560  0.23281  1.0000
  C   C198      1.0  0.38129  0.05628  0.46837  1.0000
  Fe  Fe36      1.0  0.67330  0.09392  0.39301  1.0000
  H   H198      1.0  0.59072  0.44091  0.24411  1.0000
  C   C199      1.0  0.63391  0.38131  0.27991  1.0000
  C   C200      1.0  0.65342  0.27525  0.35175  1.0000
  Fe  Fe37      1.0  0.66857  0.49115  0.37617  1.0000
  C   C201      1.0  0.36184  0.49679  0.46634  1.0000
  C   C202      1.0  0.60659  0.04242  0.27724  1.0000
  C   C203      1.0  0.40301  0.15999  0.26581  1.0000
  C   C204      1.0  0.66311  0.30992  0.34461  1.0000
  S   S70       1.0  0.50239  0.02413  0.07380  1.0000
  H   H199      1.0  0.63318  0.44616  0.19274  1.0000
  C   C205      1.0  0.42286  0.16588  0.27577  1.0000
  C   C206      1.0  0.41322  0.11022  0.22855  1.0000
  H   H200      1.0  0.63952  0.27484  0.36670  1.0000
  H   H201      1.0  0.56479  0.05615  0.14218  1.0000
  C   C207      1.0  0.56199  0.05617  0.11465  1.0000
  H   H202      1.0  0.68118  0.30941  0.41817  1.0000
  H   H203      1.0  0.64624  0.36494  0.28989  1.0000
  S   S71       1.0  0.68133  0.42537  0.29904  1.0000
  H   H204      1.0  0.43354  0.48296  0.34824  1.0000
  C   C208      1.0  0.60199  0.41196  0.28839  1.0000
  S   S72       1.0  0.35477  0.41678  0.29871  1.0000
  C   C209      1.0  0.66181  0.24097  0.34034  1.0000
  H   H205      1.0  0.65434  0.21445  0.34640  1.0000
  H   H206      1.0  0.47959  0.48044  0.05888  1.0000
  H   H207      1.0  0.61730  0.38132  0.32821  1.0000
  C   C210      1.0  0.35619  0.30403  0.32266  1.0000
  C   C211      1.0  0.41716  0.02610  0.26328  1.0000
  C   C212      1.0  0.60825  0.51298  0.27730  1.0000
  C   C213      1.0  0.45908  0.02114  0.25083  1.0000
  C   C214      1.0  0.57106  0.02922  0.09340  1.0000
  N   N17       1.0  0.61891  0.41469  0.23300  1.0000
  C   C215      1.0  0.40929  0.51490  0.42051  1.0000
  H   H208      1.0  0.64989  0.17016  0.43307  1.0000
  C   C216      1.0  0.60280  0.42370  0.25384  1.0000
  H   H209      1.0  0.64742  0.38779  0.22946  1.0000
  H   H210      1.0  0.35477  0.20975  0.37474  1.0000
  H   H211      1.0  0.40744  0.50912  0.44796  1.0000
  H   H212      1.0  0.65591  0.26882  0.44801  1.0000
  H   H213      1.0  0.67297  0.46599  0.45426  1.0000
  C   C217      1.0  0.58610  0.03250  0.27708  1.0000
  S   S73       1.0  0.67469  0.10137  0.45091  1.0000
  Fe  Fe38      1.0  0.66573  0.41015  0.34907  1.0000
  H   H214      1.0  0.57705  0.03588  0.30037  1.0000
  H   H215      1.0  0.53544  0.13875  0.05860  1.0000
  Fe  Fe39      1.0  0.35243  0.49073  0.37263  1.0000
  H   H216      1.0  0.36674  0.13978  0.25066  1.0000
  H   H217      1.0  0.35551  0.26855  0.27747  1.0000
  C   C218      1.0  0.50851  0.02221  0.02882  1.0000
  H   H218      1.0  0.44493  0.09764  0.22675  1.0000
  H   H219      1.0  0.42637  0.18759  0.29450  1.0000
  H   H220      1.0  0.40953  0.08791  0.21052  1.0000
  H   H221      1.0  0.39131  0.17761  0.27695  1.0000
  S   S74       1.0  0.40825  0.46505  0.28440  1.0000
  C   C219      1.0  0.63442  0.39407  0.24569  1.0000
  S   S75       1.0  0.66779  0.04084  0.36301  1.0000
  H   H222      1.0  0.37383  0.09486  0.23355  1.0000
  N   N18       1.0  0.39838  0.13193  0.24296  1.0000
  H   H223      1.0  0.60636  0.44358  0.18972  1.0000
  C   C220      1.0  0.35571  0.26905  0.30539  1.0000
  N   N19       1.0  0.54516  0.08219  0.06580  1.0000
  C   C221      1.0  0.61761  0.39043  0.30138  1.0000
  H   H224      1.0  0.63388  0.04556  0.24665  1.0000
  S   S76       1.0  0.39081  0.02880  0.26962  1.0000
  H   H225      1.0  0.54115  0.10207  0.11738  1.0000
  S   S77       1.0  0.52312  0.02452  0.16518  1.0000
  H   H226      1.0  0.58946  0.41996  0.30507  1.0000
  N   N20       1.0  0.67003  0.21709  0.43320  1.0000
  S   S78       1.0  0.64604  0.49544  0.25025  1.0000
  C   C222      1.0  0.43326  0.11557  0.23766  1.0000
  Fe  Fe40      1.0  0.35453  0.40582  0.35564  1.0000
  C   C223      1.0  0.42400  0.50034  0.36472  1.0000
  C   C224      1.0  0.67991  0.24112  0.32136  1.0000
  C   C225      1.0  0.67188  0.48884  0.47265  1.0000
  C   C226      1.0  0.65504  0.19283  0.45075  1.0000
  H   H227      1.0  0.66179  0.17902  0.47355  1.0000
  S   S79       1.0  0.67471  0.09238  0.29255  1.0000
  C   C227      1.0  0.47259  0.50803  0.06058  1.0000
  C   C228      1.0  0.54877  0.08223  0.10044  1.0000
  H   H228      1.0  0.51563  0.10342  0.06270  1.0000
  H   H229      1.0  0.44897  0.46539  0.25933  1.0000
  C   C229      1.0  0.68101  0.31018  0.32508  1.0000
  C   C230      1.0  0.35573  0.30507  0.35877  1.0000
  Fe  Fe41      1.0  0.67983  0.14185  0.32803  1.0000
  H   H230      1.0  0.43003  0.46928  0.41130  1.0000
  C   C231      1.0  0.42197  0.49267  0.40000  1.0000
  C   C232      1.0  0.52112  0.48322  0.00935  1.0000
  C   C233      1.0  0.42190  0.49840  0.25843  1.0000
  C   C234      1.0  0.66848  0.25567  0.43464  1.0000
  H   H231      1.0  0.46167  0.04430  0.30201  1.0000
  H   H232      1.0  0.35540  0.27142  0.40531  1.0000
  C   C235      1.0  0.44217  0.49111  0.25011  1.0000
  C   C236      1.0  0.60925  0.02302  0.21705  1.0000
  S   S80       1.0  0.48540  0.01761  0.24484  1.0000
  H   H233      1.0  0.61833  0.01920  0.19387  1.0000
  C   C237      1.0  0.38547  0.02007  0.45587  1.0000
  C   C238      1.0  0.62080  0.51103  0.24798  1.0000
  C   C239      1.0  0.36716  0.49258  0.50110  1.0000
  H   H234      1.0  0.65578  0.02857  0.43778  1.0000
  C   C240      1.0  0.57723  0.01768  0.24723  1.0000
  C   C241      1.0  0.37667  0.06120  0.50350  1.0000
  H   H235      1.0  0.48421  0.48589  0.12287  1.0000
  S   S81       1.0  0.35147  0.19197  0.30151  1.0000
  H   H236      1.0  0.46933  0.51070  0.22377  1.0000
  H   H237      1.0  0.45733  0.47706  0.12448  1.0000
  C   C242      1.0  0.46915  0.49934  0.12311  1.0000
  S   S82       1.0  0.52260  0.50938  0.07619  1.0000
  Fe  Fe42      1.0  0.53540  0.09046  0.79850  1.0000
  H   H238      1.0  0.64049  0.46255  0.70877  1.0000
  H   H239      1.0  0.57122  0.38942  0.77556  1.0000
  Fe  Fe43      1.0  0.50294  0.13742  0.83432  1.0000
  S   S83       1.0  0.48639  0.08535  0.85510  1.0000
  S   S84       1.0  0.49064  0.19643  0.84614  1.0000
  Fe  Fe44      1.0  0.51710  0.06395  0.86842  1.0000
  S   S85       1.0  0.52846  0.02854  0.91381  1.0000
  Fe  Fe45      1.0  0.49187  0.06121  0.80182  1.0000
  H   H240      1.0  0.57719  0.43919  0.71547  1.0000
  S   S86       1.0  0.53317  0.11730  0.85111  1.0000
  S   S87       1.0  0.50622  0.11445  0.78023  1.0000
  Fe  Fe46      1.0  0.52305  0.41347  0.83006  1.0000
  S   S88       1.0  0.49450  0.43501  0.85513  1.0000
  S   S89       1.0  0.53648  0.35452  0.82532  1.0000
  Fe  Fe47      1.0  0.53285  0.48962  0.79430  1.0000
  S   S90       1.0  0.52153  0.03600  0.81660  1.0000
  Fe  Fe48      1.0  0.51292  0.48759  0.86659  1.0000
  H   H241      1.0  0.50190  0.26865  0.75842  1.0000
  Fe  Fe49      1.0  0.48874  0.46302  0.80382  1.0000
  H   H242      1.0  0.47049  0.24447  0.78643  1.0000
  S   S91       1.0  0.54203  0.46412  0.84478  1.0000
  S   S92       1.0  0.51596  0.43779  0.77839  1.0000
  C   C243      1.0  0.51839  0.48622  0.97337  1.0000
  C   C244      1.0  0.61176  0.43182  0.77704  1.0000
  H   H243      1.0  0.64336  0.44551  0.77064  1.0000
  N   N21       1.0  0.59344  0.43059  0.76168  1.0000
  C   C245      1.0  0.57544  0.41911  0.78162  1.0000
  C   C246      1.0  0.59178  0.43945  0.72744  1.0000
  H   H244      1.0  0.56198  0.05266  0.86771  1.0000
  C   C247      1.0  0.44954  0.02725  0.74934  1.0000
  C   C248      1.0  0.62738  0.45246  0.72334  1.0000
  S   S93       1.0  0.46037  0.45434  0.77272  1.0000
  H   H245      1.0  0.43819  0.35151  0.83047  1.0000
  C   C249      1.0  0.44872  0.36534  0.81165  1.0000
  H   H246      1.0  0.37282  0.03434  0.55305  1.0000
  C   C250      1.0  0.67295  0.51103  0.53228  1.0000
  C   C251      1.0  0.61986  0.03392  0.57127  1.0000
  C   C252      1.0  0.62897  0.44304  0.75818  1.0000
  H   H247      1.0  0.50832  0.33807  0.75526  1.0000
  C   C253      1.0  0.51982  0.02592  0.95763  1.0000
  H   H248      1.0  0.40843  0.12085  0.62309  1.0000
  C   C254      1.0  0.50450  0.23955  0.84306  1.0000
  C   C255      1.0  0.49575  0.27305  0.85565  1.0000
  C   C256      1.0  0.50539  0.30843  0.85081  1.0000
  C   C257      1.0  0.52406  0.31061  0.83367  1.0000
  C   C258      1.0  0.53307  0.27701  0.82195  1.0000
  C   C259      1.0  0.52333  0.24169  0.82646  1.0000
  H   H249      1.0  0.48126  0.27166  0.86873  1.0000
  H   H250      1.0  0.49837  0.33396  0.86029  1.0000
  H   H251      1.0  0.54756  0.27832  0.80884  1.0000
  H   H252      1.0  0.53026  0.21620  0.81666  1.0000
  H   H253      1.0  0.44592  0.28950  0.81113  1.0000
  C   C260      1.0  0.57828  0.05820  0.75015  1.0000
  S   S94       1.0  0.67619  0.50074  0.57647  1.0000
  C   C261      1.0  0.60870  0.45049  0.70776  1.0000
  H   H254      1.0  0.60301  0.09481  0.86038  1.0000
  C   C262      1.0  0.49072  0.28834  0.76812  1.0000
  S   S95       1.0  0.47216  0.01976  0.77173  1.0000
  C   C263      1.0  0.42985  0.48432  0.73457  1.0000
  C   C264      1.0  0.57207  0.03396  0.85371  1.0000
  C   C265      1.0  0.67464  0.06261  0.51254  1.0000
  H   H255      1.0  0.43999  0.37866  0.79073  1.0000
  S   S96       1.0  0.38723  0.03747  0.70071  1.0000
  H   H256      1.0  0.57771  0.42112  0.80992  1.0000
  H   H257      1.0  0.41012  0.08759  0.74297  1.0000
  H   H258      1.0  0.56267  0.43788  0.77554  1.0000
  C   C266      1.0  0.59655  0.03511  0.62116  1.0000
  H   H259      1.0  0.61310  0.42497  0.80421  1.0000
  H   H260      1.0  0.51880  0.46119  0.95738  1.0000
  C   C267      1.0  0.59333  0.08859  0.83810  1.0000
  H   H261      1.0  0.62371  0.03995  0.71074  1.0000
  H   H262      1.0  0.60725  0.45878  0.68093  1.0000
  H   H263      1.0  0.38954  0.08681  0.63703  1.0000
  H   H264      1.0  0.59747  0.06574  0.62116  1.0000
  S   S97       1.0  0.37088  0.51540  0.56818  1.0000
  C   C268      1.0  0.42167  0.05035  0.54565  1.0000
  S   S98       1.0  0.56468  0.09676  0.76745  1.0000
  C   C269      1.0  0.41161  0.03325  0.71793  1.0000
  C   C270      1.0  0.41419  0.02677  0.61308  1.0000
  H   H265      1.0  0.41416  0.08642  0.65544  1.0000
  H   H266      1.0  0.42788  0.45587  0.72497  1.0000
  C   C271      1.0  0.41910  0.06262  0.73855  1.0000
  C   C272      1.0  0.43797  0.05970  0.75417  1.0000
  H   H267      1.0  0.44336  0.08216  0.77058  1.0000
  C   C273      1.0  0.50011  0.04922  0.00667  1.0000
  C   C274      1.0  0.48042  0.51226  0.70100  1.0000
  H   H268      1.0  0.60313  0.09343  0.73296  1.0000
  C   C275      1.0  0.59731  0.06481  0.73480  1.0000
  C   C276      1.0  0.60901  0.03459  0.72222  1.0000
  N   N22       1.0  0.58874  0.04801  0.83673  1.0000
  H   H269      1.0  0.57933  0.10545  0.84039  1.0000
  H   H270      1.0  0.45668  0.38828  0.82563  1.0000
  H   H271      1.0  0.49923  0.07232  0.95480  1.0000
  C   C277      1.0  0.41763  0.51358  0.72206  1.0000
  H   H272      1.0  0.37375  0.46638  0.50967  1.0000
  H   H273      1.0  0.48309  0.38226  0.77941  1.0000
  H   H274      1.0  0.61447  0.06291  0.56574  1.0000
  H   H275      1.0  0.50759  0.50179  0.72870  1.0000
  C   C278      1.0  0.47305  0.27477  0.78385  1.0000
  C   C279      1.0  0.44471  0.49174  0.75902  1.0000
  H   H276      1.0  0.41386  0.10548  0.56419  1.0000
  N   N23       1.0  0.46316  0.33852  0.79681  1.0000
  C   C280      1.0  0.48021  0.35207  0.78069  1.0000
  C   C281      1.0  0.45935  0.30041  0.79820  1.0000
  C   C282      1.0  0.49434  0.32724  0.76641  1.0000
  H   H277      1.0  0.57640  0.03323  0.66569  1.0000
  H   H278      1.0  0.61477  0.03530  0.80597  1.0000
  H   H279      1.0  0.60095  0.09828  0.81377  1.0000
  C   C283      1.0  0.50571  0.05113  0.97134  1.0000
  C   C284      1.0  0.41587  0.07608  0.57129  1.0000
  C   C285      1.0  0.40583  0.09102  0.63118  1.0000
  C   C286      1.0  0.37618  0.03007  0.52607  1.0000
  N   N24       1.0  0.41243  0.06416  0.60459  1.0000
  H   H280      1.0  0.40642  0.50757  0.70297  1.0000
  H   H281      1.0  0.68210  0.08732  0.52274  1.0000
  H   H282      1.0  0.37351  0.08921  0.51328  1.0000
  H   H283      1.0  0.67813  0.45344  0.51659  1.0000
  H   H284      1.0  0.47769  0.48266  0.69534  1.0000
  H   H285      1.0  0.58220  0.51407  0.80094  1.0000
  S   S99       1.0  0.55059  0.51625  0.74934  1.0000
  C   C287      1.0  0.57087  0.02117  0.75230  1.0000
  C   C288      1.0  0.60162  0.02418  0.81968  1.0000
  H   H286      1.0  0.63551  0.03571  0.58054  1.0000
  H   H287      1.0  0.62007  0.01819  0.54643  1.0000
  H   H288      1.0  0.42385  0.05963  0.51906  1.0000
  C   C289      1.0  0.67029  0.03158  0.53441  1.0000
  H   H289      1.0  0.67440  0.03250  0.56129  1.0000
  C   C290      1.0  0.67475  0.48177  0.50798  1.0000
  C   C291      1.0  0.58456  0.01694  0.64634  1.0000
  H   H290      1.0  0.41100  0.01723  0.63927  1.0000
  H   H291      1.0  0.48368  0.91096  0.30745  1.0000
  Fe  Fe50      1.0  0.54529  0.97801  0.17327  1.0000
  S   S100      1.0  0.52503  0.94643  0.21058  1.0000
  C   C292      1.0  0.48141  0.93448  0.28894  1.0000
  Fe  Fe51      1.0  0.51190  0.98949  0.12088  1.0000
  S   S101      1.0  0.48898  0.95882  0.15477  1.0000
  C   C293      1.0  0.60691  0.94355  0.27822  1.0000
  Fe  Fe52      1.0  0.50192  0.99064  0.19909  1.0000
  H   H292      1.0  0.47711  0.96054  0.30321  1.0000
  Fe  Fe53      1.0  0.51339  0.91599  0.16394  1.0000
  S   S102      1.0  0.50205  0.85526  0.17243  1.0000
  S   S103      1.0  0.53542  0.94445  0.12671  1.0000
  Fe  Fe54      1.0  0.53631  0.56549  0.19343  1.0000
  H   H293      1.0  0.39773  0.53776  0.25239  1.0000
  C   C294      1.0  0.66706  0.52524  0.46144  1.0000
  Fe  Fe55      1.0  0.52593  0.63387  0.14844  1.0000
  S   S104      1.0  0.50061  0.60317  0.12245  1.0000
  S   S105      1.0  0.53829  0.69284  0.13518  1.0000
  Fe  Fe56      1.0  0.49223  0.58134  0.17579  1.0000
  H   H294      1.0  0.57844  0.52492  0.29707  1.0000
  Fe  Fe57      1.0  0.52139  0.55348  0.11937  1.0000
  C   C295      1.0  0.61348  0.95695  0.30993  1.0000
  S   S106      1.0  0.51611  0.61582  0.20184  1.0000
  S   S107      1.0  0.54768  0.58539  0.14146  1.0000
  C   C296      1.0  0.63371  0.96668  0.31366  1.0000
  H   H295      1.0  0.55134  0.67648  0.20246  1.0000
  H   H296      1.0  0.48710  0.89859  0.22913  1.0000
  N   N25       1.0  0.40026  0.55086  0.37046  1.0000
  C   C297      1.0  0.42490  0.55738  0.22601  1.0000
  H   H297      1.0  0.44195  0.94651  0.29458  1.0000
  C   C298      1.0  0.61287  0.52015  0.21560  1.0000
  H   H298      1.0  0.60281  0.96162  0.33100  1.0000
  C   C299      1.0  0.39865  0.54431  0.40526  1.0000
  H   H299      1.0  0.65116  0.94821  0.23355  1.0000
  C   C300      1.0  0.66548  0.55457  0.48569  1.0000
  C   C301      1.0  0.57986  0.65808  0.18244  1.0000
  C   C302      1.0  0.58882  0.01246  0.21715  1.0000
  C   C303      1.0  0.66803  0.97486  0.29062  1.0000
  H   H300      1.0  0.52883  0.97536  0.03157  1.0000
  H   H301      1.0  0.61541  0.93104  0.22559  1.0000
  H   H302      1.0  0.64771  0.97420  0.47638  1.0000
  H   H303      1.0  0.54007  0.66888  0.26001  1.0000
  C   C304      1.0  0.38885  0.58156  0.35485  1.0000
  N   N26       1.0  0.46682  0.52241  0.09195  1.0000
  C   C305      1.0  0.51267  0.81051  0.16207  1.0000
  C   C306      1.0  0.53099  0.80700  0.14410  1.0000
  C   C307      1.0  0.53858  0.77080  0.13614  1.0000
  C   C308      1.0  0.52803  0.73771  0.14609  1.0000
  C   C309      1.0  0.50981  0.74122  0.16436  1.0000
  C   C310      1.0  0.50218  0.77741  0.17221  1.0000
  H   H304      1.0  0.53921  0.83212  0.13603  1.0000
  H   H305      1.0  0.55266  0.76844  0.12193  1.0000
  H   H306      1.0  0.50148  0.71611  0.17212  1.0000
  H   H307      1.0  0.48798  0.77973  0.18605  1.0000
  C   C311      1.0  0.51726  0.55074  0.01556  1.0000
  H   H308      1.0  0.38879  0.56143  0.42135  1.0000
  H   H309      1.0  0.56150  0.00979  0.24768  1.0000
  C   C312      1.0  0.38559  0.98909  0.47870  1.0000
  H   H310      1.0  0.57766  0.67055  0.15713  1.0000
  H   H311      1.0  0.51672  0.57575  0.03156  1.0000
  S   S108      1.0  0.51152  0.52984  0.17138  1.0000
  H   H312      1.0  0.41581  0.92824  0.25331  1.0000
  H   H313      1.0  0.42558  0.89508  0.19886  1.0000
  N   N27       1.0  0.56738  0.64499  0.23995  1.0000
  H   H314      1.0  0.46153  0.88019  0.18703  1.0000
  C   C313      1.0  0.43140  0.92116  0.24798  1.0000
  C   C314      1.0  0.55130  0.64693  0.26630  1.0000
  C   C315      1.0  0.44628  0.93147  0.27125  1.0000
  H   H315      1.0  0.38936  0.96127  0.46910  1.0000
  C   C316      1.0  0.43688  0.90280  0.21740  1.0000
  C   C317      1.0  0.58000  0.53220  0.24177  1.0000
  H   H316      1.0  0.55755  0.65382  0.29190  1.0000
  C   C318      1.0  0.45703  0.89458  0.21067  1.0000
  C   C319      1.0  0.47148  0.90522  0.23454  1.0000
  H   H317      1.0  0.45366  0.56890  0.11899  1.0000
  H   H318      1.0  0.49591  0.94129  0.27546  1.0000
  N   N28       1.0  0.46605  0.92398  0.26408  1.0000
  H   H319      1.0  0.37417  0.58536  0.36859  1.0000
  H   H320      1.0  0.67838  0.95926  0.27298  1.0000
  C   C320      1.0  0.35014  0.55999  0.47880  1.0000
  C   C321      1.0  0.45841  0.55754  0.09414  1.0000
  H   H321      1.0  0.58605  0.61123  0.27160  1.0000
  C   C322      1.0  0.59732  0.63811  0.18930  1.0000
  C   C323      1.0  0.62060  0.93998  0.25071  1.0000
  H   H322      1.0  0.63846  0.97868  0.33795  1.0000
  S   S109      1.0  0.66287  0.53515  0.41744  1.0000
  H   H323      1.0  0.58665  0.53728  0.18735  1.0000
  H   H324      1.0  0.41808  0.58298  0.21654  1.0000
  H   H325      1.0  0.67323  0.96958  0.31732  1.0000
  H   H326      1.0  0.66951  0.00560  0.28502  1.0000
  C   C324      1.0  0.58445  0.62534  0.24688  1.0000
  S   S110      1.0  0.57869  0.99109  0.17984  1.0000
  C   C325      1.0  0.42483  0.01216  0.23174  1.0000
  C   C326      1.0  0.45636  0.57985  0.06452  1.0000
  C   C327      1.0  0.56495  0.66126  0.20821  1.0000
  S   S111      1.0  0.45893  0.58285  0.19128  1.0000
  C   C328      1.0  0.65535  0.99877  0.48651  1.0000
  H   H327      1.0  0.54338  0.61915  0.26809  1.0000
  H   H328      1.0  0.41458  0.00315  0.21201  1.0000
  H   H329      1.0  0.60882  0.63488  0.16931  1.0000
  C   C329      1.0  0.59256  0.53043  0.21243  1.0000
  C   C330      1.0  0.59973  0.62182  0.22179  1.0000
  C   C331      1.0  0.64075  0.94997  0.25536  1.0000
  H   H330      1.0  0.61306  0.60553  0.22726  1.0000
  H   H331      1.0  0.62246  0.51898  0.19275  1.0000
  H   H332      1.0  0.39759  0.60838  0.35590  1.0000
  H   H333      1.0  0.38542  0.57515  0.32747  1.0000
  H   H334      1.0  0.45030  0.60816  0.06656  1.0000
  H   H335      1.0  0.59111  0.93743  0.27452  1.0000
  N   N29       1.0  0.64710  0.96273  0.28667  1.0000
  S   S112      1.0  0.55454  0.54642  0.23980  1.0000
  H   H336      1.0  0.66175  0.58279  0.47719  1.0000
  C   C332      1.0  0.44517  0.55003  0.21765  1.0000
  C   C333      1.0  0.58799  0.52349  0.27417  1.0000
  C   C334      1.0  0.44570  0.00979  0.22545  1.0000
  C   C335      1.0  0.35335  0.53058  0.45509  1.0000
  C   C336      1.0  0.41332  0.53181  0.24639  1.0000
  H   H337      1.0  0.41466  0.53549  0.32289  1.0000
  C   C337      1.0  0.47045  0.52929  0.03037  1.0000
  C   C338      1.0  0.41308  0.52991  0.35037  1.0000
  H   H338      1.0  0.45142  0.99890  0.20112  1.0000
  C   C339      1.0  0.46253  0.56562  0.03247  1.0000
  C   C340      1.0  0.52231  0.99644  0.01498  1.0000
  H   H339      1.0  0.46143  0.58280  0.00931  1.0000
  H   H340      1.0  0.58080  0.00807  0.10447  1.0000
  H   H341      1.0  0.57394  0.00808  0.04140  1.0000
  H   H342      1.0  0.46800  0.51668  0.14698  1.0000
  H   H343      1.0  0.38930  0.01615  0.42884  1.0000
  C   C341      1.0  0.45377  0.51676  0.22991  1.0000
  Fe  Fe58      1.0  0.64481  0.95937  0.67791  1.0000
  S   S113      1.0  0.64693  0.91392  0.63740  1.0000
  Fe  Fe59      1.0  0.36818  0.96045  0.59562  1.0000
  Fe  Fe60      1.0  0.66233  0.95838  0.60432  1.0000
  C   C342      1.0  0.60962  0.53014  0.77343  1.0000
  C   C343      1.0  0.35893  0.74636  0.66564  1.0000
  H   H344      1.0  0.35301  0.57864  0.53163  1.0000
  H   H345      1.0  0.67072  0.68420  0.77401  1.0000
  H   H346      1.0  0.45376  0.53122  0.67627  1.0000
  H   H347      1.0  0.57675  0.96237  0.74182  1.0000
  H   H348      1.0  0.59535  0.92612  0.62503  1.0000
  C   C344      1.0  0.35724  0.74470  0.62971  1.0000
  H   H349      1.0  0.57687  0.94089  0.83374  1.0000
  C   C345      1.0  0.36402  0.52203  0.52481  1.0000
  S   S114      1.0  0.38195  0.95489  0.54211  1.0000
  Fe  Fe61      1.0  0.66268  0.56605  0.69036  1.0000
  H   H350      1.0  0.61573  0.69588  0.65881  1.0000
  S   S115      1.0  0.64919  0.57890  0.63911  1.0000
  S   S116      1.0  0.65781  0.00486  0.64313  1.0000
  Fe  Fe62      1.0  0.37056  0.99464  0.66774  1.0000
  S   S117      1.0  0.38343  0.94206  0.64415  1.0000
  C   C346      1.0  0.58255  0.99099  0.73974  1.0000
  Fe  Fe63      1.0  0.36534  0.56021  0.60897  1.0000
  H   H351      1.0  0.61292  0.55393  0.68835  1.0000
  Fe  Fe64      1.0  0.35355  0.91537  0.65811  1.0000
  H   H352      1.0  0.65793  0.82497  0.62722  1.0000
  C   C347      1.0  0.59763  0.98529  0.81849  1.0000
  C   C348      1.0  0.58038  0.97086  0.83502  1.0000
  C   C349      1.0  0.66051  0.99964  0.52145  1.0000
  H   H353      1.0  0.57523  0.96302  0.66757  1.0000
  H   H354      1.0  0.35235  0.83943  0.61334  1.0000
  H   H355      1.0  0.65029  0.62517  0.76925  1.0000
  Fe  Fe65      1.0  0.38088  0.58774  0.67853  1.0000
  S   S118      1.0  0.40603  0.58902  0.71790  1.0000
  S   S119      1.0  0.38672  0.60679  0.62359  1.0000
  Fe  Fe66      1.0  0.67752  0.90198  0.65750  1.0000
  C   C350      1.0  0.43470  0.55778  0.75905  1.0000
  H   H356      1.0  0.44318  0.96082  0.80041  1.0000
  C   C351      1.0  0.66529  0.79934  0.63529  1.0000
  S   S120      1.0  0.35438  0.62662  0.68648  1.0000
  C   C352      1.0  0.38093  0.99400  0.51387  1.0000
  H   H357      1.0  0.60105  0.66483  0.68680  1.0000
  C   C353      1.0  0.66748  0.73027  0.63456  1.0000
  H   H358      1.0  0.55623  0.01572  0.76396  1.0000
  Fe  Fe67      1.0  0.35900  0.64232  0.63070  1.0000
  C   C354      1.0  0.39566  0.97794  0.78202  1.0000
  C   C355      1.0  0.42003  0.55053  0.73421  1.0000
  H   H359      1.0  0.46324  0.62734  0.67123  1.0000
  C   C356      1.0  0.60630  0.54563  0.71299  1.0000
  H   H360      1.0  0.42053  0.97039  0.59452  1.0000
  C   C357      1.0  0.38027  0.96515  0.76081  1.0000
  Fe  Fe68      1.0  0.67558  0.54775  0.61602  1.0000
  H   H361      1.0  0.57620  0.54181  0.69362  1.0000
  H   H362      1.0  0.44289  0.59358  0.67342  1.0000
  C   C358      1.0  0.35556  0.81535  0.66400  1.0000
  N   N30       1.0  0.60711  0.01453  0.59717  1.0000
  S   S121      1.0  0.35623  0.70113  0.60717  1.0000
  C   C359      1.0  0.41389  0.92141  0.77204  1.0000
  H   H363      1.0  0.61892  0.52679  0.79580  1.0000
  C   C360      1.0  0.65926  0.68196  0.75461  1.0000
  H   H364      1.0  0.42858  0.00101  0.81138  1.0000
  S   S122      1.0  0.36155  0.53848  0.66351  1.0000
  H   H365      1.0  0.51166  0.58113  0.96826  1.0000
  H   H366      1.0  0.42701  0.90415  0.77623  1.0000
  H   H367      1.0  0.45836  0.53477  0.79014  1.0000
  N   N31       1.0  0.46982  0.57705  0.69894  1.0000
  C   C361      1.0  0.42336  0.00113  0.71246  1.0000
  C   C362      1.0  0.38184  0.92980  0.74516  1.0000
  S   S123      1.0  0.51006  0.52695  0.91342  1.0000
  C   C363      1.0  0.45558  0.60594  0.68800  1.0000
  C   C364      1.0  0.61850  0.54115  0.74166  1.0000
  C   C365      1.0  0.57666  0.52684  0.74762  1.0000
  H   H368      1.0  0.36066  0.72054  0.68030  1.0000
  H   H369      1.0  0.55406  0.98450  0.86594  1.0000
  H   H370      1.0  0.42713  0.99161  0.53424  1.0000
  S   S124      1.0  0.64493  0.54756  0.73874  1.0000
  C   C366      1.0  0.66848  0.54755  0.52100  1.0000
  H   H371      1.0  0.36741  0.98295  0.75595  1.0000
  H   H372      1.0  0.43658  0.58618  0.76883  1.0000
  C   C367      1.0  0.35421  0.81368  0.62806  1.0000
  H   H373      1.0  0.41777  0.97819  0.69685  1.0000
  C   C368      1.0  0.65615  0.71177  0.73167  1.0000
  C   C369      1.0  0.65807  0.76385  0.62442  1.0000
  H   H374      1.0  0.40000  0.88022  0.73848  1.0000
  C   C370      1.0  0.49990  0.56078  0.72872  1.0000
  H   H375      1.0  0.45100  0.97288  0.72442  1.0000
  H   H376      1.0  0.66704  0.57028  0.53950  1.0000
  S   S125      1.0  0.61579  0.95828  0.71029  1.0000
  C   C371      1.0  0.51435  0.55368  0.97962  1.0000
  H   H377      1.0  0.35365  0.77754  0.58328  1.0000
  C   C372      1.0  0.41976  0.00023  0.58803  1.0000
  H   H378      1.0  0.64508  0.76243  0.60811  1.0000
  H   H379      1.0  0.61558  0.95944  0.58010  1.0000
  H   H380      1.0  0.42551  0.95809  0.83654  1.0000
  C   C373      1.0  0.49704  0.52289  0.72015  1.0000
  C   C374      1.0  0.64780  0.64890  0.75201  1.0000
  H   H381      1.0  0.62089  0.64650  0.65888  1.0000
  C   C375      1.0  0.60172  0.99750  0.72494  1.0000
  N   N32       1.0  0.63081  0.67511  0.70340  1.0000
  C   C376      1.0  0.63361  0.64592  0.72600  1.0000
  C   C377      1.0  0.64164  0.70796  0.70628  1.0000
  H   H382      1.0  0.39446  0.00578  0.79354  1.0000
  C   C378      1.0  0.61630  0.67045  0.67575  1.0000
  H   H383      1.0  0.62512  0.61983  0.72358  1.0000
  H   H384      1.0  0.63950  0.73112  0.68833  1.0000
  H   H385      1.0  0.44880  0.62015  0.71096  1.0000
  C   C379      1.0  0.39873  0.90772  0.75073  1.0000
  C   C380      1.0  0.58384  0.97751  0.64736  1.0000
  H   H386      1.0  0.51275  0.56904  0.74391  1.0000
  Fe  Fe69      1.0  0.66992  0.62986  0.63858  1.0000
  C   C381      1.0  0.48601  0.58766  0.71796  1.0000
  C   C382      1.0  0.35800  0.78154  0.68269  1.0000
  C   C383      1.0  0.58548  0.53863  0.71604  1.0000
  C   C384      1.0  0.44219  0.99816  0.72818  1.0000
  N   N33       1.0  0.41228  0.95625  0.78713  1.0000
  C   C385      1.0  0.46690  0.53989  0.69043  1.0000
  C   C386      1.0  0.35542  0.55573  0.51360  1.0000
  H   H387      1.0  0.37003  0.91950  0.72862  1.0000
  S   S126      1.0  0.65688  0.68629  0.62246  1.0000
  H   H388      1.0  0.66518  0.73742  0.73294  1.0000
  S   S127      1.0  0.50502  0.51671  0.81639  1.0000
  S   S128      1.0  0.65323  0.96133  0.54840  1.0000
  C   C387      1.0  0.52800  0.99848  0.97966  1.0000
  S   S129      1.0  0.35350  0.85885  0.68651  1.0000
  H   H389      1.0  0.35911  0.78255  0.71050  1.0000
  H   H390      1.0  0.48817  0.61702  0.72510  1.0000
  C   C388      1.0  0.59514  0.95676  0.62350  1.0000
  C   C389      1.0  0.56756  0.99527  0.85293  1.0000
  C   C390      1.0  0.51488  0.52150  0.95827  1.0000
  C   C391      1.0  0.58881  0.52283  0.77641  1.0000
  C   C392      1.0  0.60673  0.97584  0.59838  1.0000
  S   S130      1.0  0.67457  0.94446  0.70037  1.0000
  H   H391      1.0  0.60752  0.96672  0.80385  1.0000
  H   H392      1.0  0.53884  0.97867  0.96933  1.0000
  C   C393      1.0  0.44707  0.52865  0.77122  1.0000
  C   C394      1.0  0.42807  0.96958  0.81010  1.0000
  C   C395      1.0  0.35498  0.77854  0.61107  1.0000
  S   S131      1.0  0.35779  0.01520  0.61795  1.0000
  C   C396      1.0  0.68202  0.80152  0.65643  1.0000
  S   S132      1.0  0.68202  0.61877  0.69121  1.0000
  C   C397      1.0  0.42356  0.01218  0.55415  1.0000
  H   H393      1.0  0.47563  0.51816  0.00566  1.0000
  Fe  Fe70      1.0  0.69396  0.06006  0.32951  1.0000
  H   H394      1.0  0.68864  0.33670  0.31949  1.0000
  S   S133      1.0  0.70088  0.11040  0.36208  1.0000
  C   C398      1.0  0.68581  0.20071  0.41595  1.0000
  Fe  Fe71      1.0  0.70254  0.45944  0.33168  1.0000
  H   H395      1.0  0.97041  0.03582  0.23829  1.0000
  H   H396      1.0  0.93240  0.46464  0.26699  1.0000
  H   H397      1.0  0.73970  0.07410  0.34860  1.0000
  S   S134      1.0  0.96482  0.45989  0.21766  1.0000
  S   S135      1.0  0.99256  0.11135  0.12378  1.0000
  H   H398      1.0  0.70330  0.27627  0.29869  1.0000
  S   S136      1.0  0.68431  0.51238  0.32783  1.0000
  Fe  Fe72      1.0  0.98763  0.06076  0.15873  1.0000
  S   S137      1.0  0.71713  0.01842  0.30916  1.0000
  C   C399      1.0  0.72994  0.12528  0.27850  1.0000
  S   S138      1.0  0.99044  0.44271  0.12216  1.0000
  Fe  Fe73      1.0  0.99065  0.46018  0.17802  1.0000
  H   H399      1.0  0.70961  0.28000  0.38591  1.0000
  H   H400      1.0  0.83069  0.46095  0.25864  1.0000
  S   S139      1.0  0.00970  0.08020  0.19813  1.0000
  H   H401      1.0  0.01262  0.32626  0.18187  1.0000
  H   H402      1.0  0.88125  0.08324  0.47589  1.0000
  N   N34       1.0  0.94852  0.13970  0.18533  1.0000
  H   H403      1.0  0.97626  0.16928  0.17686  1.0000
  H   H404      1.0  0.76564  0.15262  0.29754  1.0000
  S   S140      1.0  0.81033  0.03901  0.33558  1.0000
  C   C400      1.0  0.78704  0.07562  0.26057  1.0000
  H   H405      1.0  0.77617  0.08134  0.35841  1.0000
  C   C401      1.0  0.78425  0.02895  0.33371  1.0000
  C   C402      1.0  0.96642  0.15491  0.19539  1.0000
  N   N35       1.0  0.74973  0.10855  0.27203  1.0000
  C   C403      1.0  0.75107  0.07522  0.25430  1.0000
  C   C404      1.0  0.74989  0.05237  0.33993  1.0000
  H   H406      1.0  0.77877  0.45720  0.34332  1.0000
  C   C405      1.0  0.69882  0.26235  0.39999  1.0000
  C   C406      1.0  0.76972  0.05819  0.24841  1.0000
  H   H407      1.0  0.89334  0.48820  0.46891  1.0000
  C   C407      1.0  0.77061  0.05636  0.34556  1.0000
  H   H408      1.0  0.92256  0.10754  0.20040  1.0000
  C   C408      1.0  0.96011  0.13276  0.25363  1.0000
  C   C409      1.0  0.75426  0.48975  0.32354  1.0000
  H   H409      1.0  0.91464  0.02039  0.18629  1.0000
  H   H410      1.0  0.73015  0.14619  0.29989  1.0000
  C   C410      1.0  0.93152  0.48919  0.25034  1.0000
  C   C411      1.0  0.97756  0.51592  0.29302  1.0000
  H   H411      1.0  0.97869  0.49013  0.30808  1.0000
  C   C412      1.0  0.94180  0.11765  0.24323  1.0000
  H   H412      1.0  0.80747  0.03680  0.42690  1.0000
  H   H413      1.0  0.71890  0.10296  0.28625  1.0000
  H   H414      1.0  0.00406  0.47400  0.24841  1.0000
  C   C413      1.0  0.85439  0.49125  0.23131  1.0000
  H   H415      1.0  0.68705  0.17015  0.41498  1.0000
  C   C414      1.0  0.74258  0.02117  0.32181  1.0000
  C   C415      1.0  0.77440  0.48400  0.33231  1.0000
  C   C416      1.0  0.87825  0.49880  0.47259  1.0000
  H   H416      1.0  0.79894  0.12295  0.28852  1.0000
  H   H417      1.0  0.92663  0.14848  0.14687  1.0000
  H   H418      1.0  0.99155  0.45835  0.04130  1.0000
  H   H419      1.0  0.94553  0.11364  0.13657  1.0000
  Fe  Fe74      1.0  0.01375  0.48847  0.11363  1.0000
  C   C417      1.0  0.94278  0.14150  0.14901  1.0000
  H   H420      1.0  0.82286  0.06837  0.49746  1.0000
  H   H421      1.0  0.74240  0.48477  0.44475  1.0000
  S   S141      1.0  0.73654  0.45300  0.33135  1.0000
  H   H422      1.0  0.93227  0.10202  0.26146  1.0000
  C   C418      1.0  0.97250  0.15162  0.22962  1.0000
  C   C419      1.0  0.68932  0.27589  0.31341  1.0000
  H   H423      1.0  0.83240  0.05267  0.43867  1.0000
  C   C420      1.0  0.94552  0.49375  0.22291  1.0000
  H   H424      1.0  0.73758  0.06074  0.24600  1.0000
  H   H425      1.0  0.95159  0.16334  0.13442  1.0000
  C   C421      1.0  0.78558  0.10996  0.27804  1.0000
  S   S142      1.0  0.01017  0.02527  0.12956  1.0000
  H   H426      1.0  0.96483  0.12928  0.28009  1.0000
  H   H427      1.0  0.80437  0.50803  0.33410  1.0000
  C   C422      1.0  0.93631  0.12107  0.20869  1.0000
  H   H428      1.0  0.71235  0.20986  0.38400  1.0000
  C   C423      1.0  0.70035  0.22303  0.39887  1.0000
  H   H429      1.0  0.98692  0.16309  0.23720  1.0000
  H   H430      1.0  0.77063  0.03084  0.23590  1.0000
  S   S143      1.0  0.01194  0.50882  0.16904  1.0000
  C   C424      1.0  0.82174  0.02834  0.43902  1.0000
  S   S144      1.0  0.68811  0.44039  0.38190  1.0000
  C   C425      1.0  0.92309  0.02050  0.20986  1.0000
  C   C426      1.0  0.83522  0.48729  0.24618  1.0000
  C   C427      1.0  0.87577  0.05688  0.48693  1.0000
  H   H431      1.0  0.86497  0.46810  0.23221  1.0000
  S   S145      1.0  0.69169  0.19852  0.30866  1.0000
  H   H432      1.0  0.72463  0.13973  0.25490  1.0000
  H   H433      1.0  0.80149  0.06180  0.25777  1.0000
  S   S146      1.0  0.95507  0.04197  0.16815  1.0000
  H   H434      1.0  0.72896  0.46436  0.40901  1.0000
  C   C428      1.0  0.00895  0.49932  0.26301  1.0000
  C   C429      1.0  0.76669  0.12628  0.28339  1.0000
  H   H435      1.0  0.90618  0.51292  0.27839  1.0000
  H   H436      1.0  0.96862  0.50781  0.02529  1.0000
  C   C430      1.0  0.74096  0.48471  0.41625  1.0000
  C   C431      1.0  0.86852  0.49503  0.50501  1.0000
  C   C432      1.0  0.87204  0.02583  0.46525  1.0000
  H   H437      1.0  0.87472  0.02841  0.43775  1.0000
  C   C433      1.0  0.95452  0.02921  0.23902  1.0000
  H   H438      1.0  0.75505  0.47404  0.40399  1.0000
  H   H439      1.0  0.97668  0.42242  0.02037  1.0000
  C   C434      1.0  0.94376  0.02912  0.20841  1.0000
  H   H440      1.0  0.95305  0.02184  0.29437  1.0000
  C   C435      1.0  0.98884  0.44373  0.01639  1.0000
  C   C436      1.0  0.81866  0.03900  0.50157  1.0000
  C   C437      1.0  0.94461  0.02136  0.27078  1.0000
  H   H441      1.0  0.01205  0.26329  0.21078  1.0000
  C   C438      1.0  0.01453  0.30083  0.16675  1.0000
  C   C439      1.0  0.01424  0.26509  0.18307  1.0000
  C   C440      1.0  0.78894  0.51274  0.32712  1.0000
  H   H442      1.0  0.00304  0.42905  0.00938  1.0000
  S   S147      1.0  0.01524  0.41943  0.19080  1.0000
  H   H443      1.0  0.01508  0.48999  0.28806  1.0000
  C   C441      1.0  0.68286  0.27886  0.41812  1.0000
  C   C442      1.0  0.00371  0.01681  0.01271  1.0000
  H   H444      1.0  0.80721  0.51523  0.25758  1.0000
  C   C443      1.0  0.87250  0.05387  0.52275  1.0000
  Fe  Fe75      1.0  0.86432  0.08945  0.60379  1.0000
  C   C444      1.0  0.97234  0.50212  0.99839  1.0000
  S   S148      1.0  0.87693  0.09341  0.54936  1.0000
  Fe  Fe76      1.0  0.84310  0.14016  0.65553  1.0000
  S   S149      1.0  0.83611  0.09149  0.69164  1.0000
  S   S150      1.0  0.83105  0.19889  0.66636  1.0000
  Fe  Fe77      1.0  0.86820  0.07391  0.68082  1.0000
  H   H445      1.0  0.87319  0.18343  0.53872  1.0000
  Fe  Fe78      1.0  0.82819  0.05862  0.64414  1.0000
  C   C445      1.0  0.86563  0.01952  0.53676  1.0000
  S   S151      1.0  0.87552  0.12509  0.64781  1.0000
  S   S152      1.0  0.83251  0.10868  0.60909  1.0000
  Fe  Fe79      1.0  0.83344  0.46256  0.66900  1.0000
  S   S153      1.0  0.83490  0.42907  0.61987  1.0000
  S   S154      1.0  0.80261  0.46037  0.69533  1.0000
  Fe  Fe80      1.0  0.87738  0.48974  0.66098  1.0000
  S   S155      1.0  0.88121  0.45914  0.61028  1.0000
  C   C446      1.0  0.86537  0.25415  0.55392  1.0000
  Fe  Fe81      1.0  0.85053  0.48031  0.59754  1.0000
  H   H446      1.0  0.90544  0.12447  0.75598  1.0000
  Fe  Fe82      1.0  0.86517  0.41053  0.63734  1.0000
  S   S156      1.0  0.87795  0.35136  0.62966  1.0000
  S   S157      1.0  0.86286  0.43997  0.68878  1.0000
  C   C447      1.0  0.88974  0.20772  0.72901  1.0000
  C   C448      1.0  0.85253  0.17703  0.74691  1.0000
  C   C449      1.0  0.83447  0.22917  0.57599  1.0000
  C   C450      1.0  0.92428  0.04484  0.70319  1.0000
  C   C451      1.0  0.84496  0.24099  0.65875  1.0000
  C   C452      1.0  0.86469  0.24036  0.64574  1.0000
  C   C453      1.0  0.87489  0.27453  0.63826  1.0000
  C   C454      1.0  0.86544  0.30953  0.64354  1.0000
  C   C455      1.0  0.84596  0.31015  0.65763  1.0000
  C   C456      1.0  0.83579  0.27597  0.66528  1.0000
  H   H447      1.0  0.87199  0.21363  0.64100  1.0000
  H   H448      1.0  0.89000  0.27390  0.62748  1.0000
  H   H449      1.0  0.83857  0.33695  0.66193  1.0000
  H   H450      1.0  0.82057  0.27670  0.67558  1.0000
  C   C457      1.0  0.77755  0.02345  0.64336  1.0000
  H   H451      1.0  0.91993  0.16196  0.73643  1.0000
  C   C458      1.0  0.87291  0.23114  0.73062  1.0000
  C   C459      1.0  0.98300  0.48960  0.92981  1.0000
  H   H452      1.0  0.84913  0.16505  0.55139  1.0000
  H   H453      1.0  0.73438  0.51254  0.69300  1.0000
  H   H454      1.0  0.92793  0.47875  0.78599  1.0000
  H   H455      1.0  0.78238  0.06806  0.68001  1.0000
  H   H456      1.0  0.95471  0.03649  0.68472  1.0000
  C   C460      1.0  0.79061  0.49583  0.60059  1.0000
  H   H457      1.0  0.90833  0.03069  0.78611  1.0000
  H   H458      1.0  0.88061  0.24997  0.54439  1.0000
  C   C461      1.0  0.76451  0.49007  0.69483  1.0000
  H   H459      1.0  0.83400  0.32538  0.57733  1.0000
  H   H460      1.0  0.71878  0.48872  0.60290  1.0000
  H   H461      1.0  0.75958  0.46229  0.70338  1.0000
  C   C462      1.0  0.86969  0.15450  0.74537  1.0000
  C   C463      1.0  0.75664  0.47366  0.61042  1.0000
  H   H462      1.0  0.87417  0.26090  0.72374  1.0000
  H   H463      1.0  0.86731  0.17579  0.58384  1.0000
  C   C464      1.0  0.90570  0.14561  0.73460  1.0000
  H   H464      1.0  0.81567  0.04539  0.55707  1.0000
  H   H465      1.0  0.98861  0.42934  0.74407  1.0000
  C   C465      1.0  0.01493  0.04969  0.00585  1.0000
  C   C466      1.0  0.98176  0.45619  0.75296  1.0000
  C   C467      1.0  0.75102  0.05166  0.67854  1.0000
  H   H466      1.0  0.86829  0.31521  0.55341  1.0000
  C   C468      1.0  0.78513  0.49728  0.68936  1.0000
  S   S158      1.0  0.88536  0.05568  0.72858  1.0000
  C   C469      1.0  0.83917  0.29685  0.57218  1.0000
  H   H467      1.0  0.74641  0.07158  0.69826  1.0000
  C   C470      1.0  0.77140  0.04979  0.66819  1.0000
  N   N36       1.0  0.85331  0.22379  0.56224  1.0000
  H   H468      1.0  0.98927  0.46595  0.77675  1.0000
  S   S159      1.0  0.80319  0.01656  0.63259  1.0000
  H   H469      1.0  0.98787  0.48510  0.90322  1.0000
  C   C471      1.0  0.72783  0.51524  0.60125  1.0000
  S   S160      1.0  0.84766  0.51465  0.64591  1.0000
  H   H470      1.0  0.90521  0.47885  0.73581  1.0000
  H   H471      1.0  0.86819  0.12443  0.75064  1.0000
  C   C472      1.0  0.91659  0.50066  0.73815  1.0000
  H   H472      1.0  0.83791  0.16448  0.75263  1.0000
  H   H473      1.0  0.99753  0.43999  0.94874  1.0000
  C   C473      1.0  0.85422  0.21562  0.73977  1.0000
  N   N37       1.0  0.98329  0.47090  0.98956  1.0000
  H   H474      1.0  0.90411  0.21988  0.72112  1.0000
  H   H475      1.0  0.84091  0.23316  0.73982  1.0000
  N   N38       1.0  0.98345  0.48489  0.72563  1.0000
  S   S161      1.0  0.85969  0.03710  0.63604  1.0000
  H   H476      1.0  0.90575  0.12995  0.70975  1.0000
  H   H477      1.0  0.91884  0.05339  0.67823  1.0000
  H   H478      1.0  0.82533  0.20517  0.58446  1.0000
  C   C474      1.0  0.85846  0.29111  0.55866  1.0000
  C   C475      1.0  0.95200  0.02388  0.73916  1.0000
  N   N39       1.0  0.88803  0.17003  0.73692  1.0000
  C   C476      1.0  0.82705  0.26573  0.58089  1.0000
  H   H479      1.0  0.78310  0.44045  0.62029  1.0000
  C   C477      1.0  0.77732  0.46704  0.61072  1.0000
  C   C478      1.0  0.91105  0.04314  0.73165  1.0000
  C   C479      1.0  0.92953  0.50066  0.76655  1.0000
  C   C480      1.0  0.96856  0.48808  0.70198  1.0000
  H   H480      1.0  0.95514  0.47054  0.70405  1.0000
  C   C481      1.0  0.01565  0.03338  0.94425  1.0000
  C   C482      1.0  0.86112  0.18529  0.55889  1.0000
  H   H481      1.0  0.96577  0.45108  0.76059  1.0000
  C   C483      1.0  0.00030  0.50722  0.72302  1.0000
  C   C484      1.0  0.84908  0.50888  0.50989  1.0000
  H   H482      1.0  0.81238  0.26987  0.59290  1.0000
  H   H483      1.0  0.74644  0.45160  0.61951  1.0000
  C   C485      1.0  0.93879  0.02227  0.76766  1.0000
  C   C486      1.0  0.94464  0.03528  0.70698  1.0000
  S   S162      1.0  0.83693  0.50810  0.55065  1.0000
  C   C487      1.0  0.81467  0.02624  0.53530  1.0000
  S   S163      1.0  0.71164  0.02786  0.68048  1.0000
  H   H484      1.0  0.87612  0.48182  0.52628  1.0000
  H   H485      1.0  0.01237  0.50419  0.74120  1.0000
  C   C488      1.0  0.91843  0.03191  0.76388  1.0000
  C   C489      1.0  0.98849  0.46426  0.95575  1.0000
  N   N40       1.0  0.74946  0.50798  0.60014  1.0000
  H   H486      1.0  0.80667  0.49151  0.60186  1.0000
  C   C490      1.0  0.73667  0.02733  0.66414  1.0000
  S   S164      1.0  0.01288  0.01824  0.82545  1.0000
  C   C491      1.0  0.96997  0.51516  0.67560  1.0000
  H   H487      1.0  0.86315  0.01671  0.56426  1.0000
  H   H488      1.0  0.81811  0.57578  0.23116  1.0000
  S   S165      1.0  0.83091  0.94085  0.36804  1.0000
  H   H489      1.0  0.75928  0.60122  0.37116  1.0000
  Fe  Fe83      1.0  0.88073  0.98301  0.32787  1.0000
  S   S166      1.0  0.87966  0.92865  0.35845  1.0000
  C   C492      1.0  0.76340  0.55284  0.30333  1.0000
  Fe  Fe84      1.0  0.85204  0.91529  0.32870  1.0000
  S   S167      1.0  0.84734  0.85866  0.30232  1.0000
  Fe  Fe85      1.0  0.85890  0.95906  0.39506  1.0000
  S   S168      1.0  0.85936  0.95234  0.45310  1.0000
  S   S169      1.0  0.85411  0.96813  0.29555  1.0000
  S   S170      1.0  0.85751  0.54042  0.31357  1.0000
  Fe  Fe86      1.0  0.87726  0.58686  0.29159  1.0000
  S   S171      1.0  0.88961  0.60414  0.34251  1.0000
  S   S172      1.0  0.89728  0.58394  0.24323  1.0000
  Fe  Fe87      1.0  0.83392  0.58538  0.32028  1.0000
  S   S173      1.0  0.84325  0.60225  0.37365  1.0000
  S   S174      1.0  0.00953  0.53094  0.06985  1.0000
  Fe  Fe88      1.0  0.86375  0.64438  0.34689  1.0000
  S   S175      1.0  0.86907  0.70122  0.37256  1.0000
  Fe  Fe89      1.0  0.86825  0.56090  0.36514  1.0000
  H   H490      1.0  0.95481  0.52924  0.18017  1.0000
  S   S176      1.0  0.85284  0.63068  0.29402  1.0000
  C   C493      1.0  0.95889  0.57160  0.27794  1.0000
  C   C494      1.0  0.85248  0.81513  0.32307  1.0000
  C   C495      1.0  0.86086  0.81380  0.35588  1.0000
  C   C496      1.0  0.86582  0.77872  0.37073  1.0000
  C   C497      1.0  0.86243  0.74468  0.35299  1.0000
  C   C498      1.0  0.85409  0.74606  0.32016  1.0000
  C   C499      1.0  0.84919  0.78114  0.30528  1.0000
  H   H491      1.0  0.86355  0.83977  0.36981  1.0000
  H   H492      1.0  0.87224  0.77795  0.39615  1.0000
  H   H493      1.0  0.85140  0.72012  0.30622  1.0000
  H   H494      1.0  0.84281  0.78191  0.27982  1.0000
  C   C500      1.0  0.88217  0.59777  0.48904  1.0000
  C   C501      1.0  0.83935  0.52607  0.48219  1.0000
  C   C502      1.0  0.77688  0.99681  0.31704  1.0000
  C   C503      1.0  0.92391  0.01316  0.27229  1.0000
  H   H495      1.0  0.84156  0.54362  0.42885  1.0000
  H   H496      1.0  0.72385  0.62345  0.37194  1.0000
  H   H497      1.0  0.99915  0.01004  0.03899  1.0000
  N   N41       1.0  0.73632  0.52283  0.40393  1.0000
  Fe  Fe90      1.0  0.83493  0.99462  0.33775  1.0000
  H   H498      1.0  0.82883  0.00600  0.42287  1.0000
  H   H499      1.0  0.69661  0.58069  0.39412  1.0000
  C   C504      1.0  0.78349  0.54725  0.31243  1.0000
  C   C505      1.0  0.71212  0.57138  0.39358  1.0000
  H   H500      1.0  0.88863  0.82476  0.28891  1.0000
  C   C506      1.0  0.91548  0.54848  0.23568  1.0000
  H   H501      1.0  0.88916  0.64389  0.41302  1.0000
  H   H502      1.0  0.86654  0.58841  0.18238  1.0000
  N   N42       1.0  0.87847  0.62040  0.46120  1.0000
  C   C507      1.0  0.86519  0.99148  0.47934  1.0000
  H   H503      1.0  0.00074  0.56224  0.22746  1.0000
  H   H504      1.0  0.97144  0.60414  0.23550  1.0000
  C   C508      1.0  0.74878  0.52439  0.30918  1.0000
  H   H505      1.0  0.84082  0.60352  0.18409  1.0000
  S   S177      1.0  0.80127  0.58372  0.30390  1.0000
  C   C509      1.0  0.85309  0.59152  0.19962  1.0000
  H   H506      1.0  0.78722  0.97559  0.30760  1.0000
  H   H507      1.0  0.75066  0.96882  0.29691  1.0000
  H   H508      1.0  0.90797  0.63585  0.44464  1.0000
  H   H509      1.0  0.00441  0.57916  0.01105  1.0000
  H   H510      1.0  0.87975  0.85641  0.23825  1.0000
  C   C510      1.0  0.89388  0.62436  0.43386  1.0000
  H   H511      1.0  0.92827  0.57714  0.19106  1.0000
  C   C511      1.0  0.84914  0.53016  0.44994  1.0000
  H   H512      1.0  0.85709  0.61188  0.22019  1.0000
  C   C512      1.0  0.92914  0.55259  0.20772  1.0000
  C   C513      1.0  0.86062  0.63912  0.45893  1.0000
  C   C514      1.0  0.97332  0.57990  0.25235  1.0000
  H   H513      1.0  0.70491  0.51659  0.41456  1.0000
  C   C515      1.0  0.74725  0.58302  0.38105  1.0000
  C   C516      1.0  0.82826  0.55189  0.23039  1.0000
  H   H514      1.0  0.75908  0.57938  0.29173  1.0000
  H   H515      1.0  0.89692  0.59636  0.42199  1.0000
  C   C517      1.0  0.91319  0.01251  0.24162  1.0000
  N   N43       1.0  0.89962  0.87986  0.27555  1.0000
  C   C518      1.0  0.91200  0.90919  0.28425  1.0000
  C   C519      1.0  0.89864  0.84785  0.29550  1.0000
  C   C520      1.0  0.92384  0.90697  0.31359  1.0000
  C   C521      1.0  0.91007  0.84480  0.32527  1.0000
  C   C522      1.0  0.92275  0.87463  0.33433  1.0000
  C   C523      1.0  0.88660  0.88391  0.24573  1.0000
  H   H516      1.0  0.91249  0.93486  0.26885  1.0000
  C   C524      1.0  0.98979  0.55595  0.24782  1.0000
  H   H517      1.0  0.93326  0.93081  0.32074  1.0000
  H   H518      1.0  0.90870  0.81979  0.34152  1.0000
  H   H519      1.0  0.93139  0.87305  0.35772  1.0000
  C   C525      1.0  0.84591  0.63532  0.48507  1.0000
  H   H520      1.0  0.87409  0.90337  0.25238  1.0000
  H   H521      1.0  0.89520  0.89534  0.22308  1.0000
  H   H522      1.0  0.85762  0.65696  0.43674  1.0000
  H   H523      1.0  0.94570  0.58928  0.28101  1.0000
  C   C526      1.0  0.75614  0.99312  0.31089  1.0000
  H   H524      1.0  0.82431  0.53684  0.48587  1.0000
  C   C527      1.0  0.96100  0.53943  0.29846  1.0000
  C   C528      1.0  0.86001  0.52564  0.21580  1.0000
  H   H525      1.0  0.81254  0.95778  0.45808  1.0000
  N   N44       1.0  0.84693  0.55530  0.21523  1.0000
  C   C529      1.0  0.75148  0.54654  0.39282  1.0000
  H   H526      1.0  0.73335  0.52910  0.30220  1.0000
  C   C530      1.0  0.81285  0.97731  0.47964  1.0000
  H   H527      1.0  0.89605  0.58203  0.49031  1.0000
  C   C531      1.0  0.72740  0.59538  0.38129  1.0000
  C   C532      1.0  0.94419  0.52548  0.20145  1.0000
  H   H528      1.0  0.87504  0.52860  0.20468  1.0000
  H   H529      1.0  0.83169  0.64980  0.48297  1.0000
  H   H530      1.0  0.94944  0.53196  0.31749  1.0000
  N   N45       1.0  0.99187  0.52471  0.26838  1.0000
  C   C533      1.0  0.71689  0.53504  0.40502  1.0000
  C   C534      1.0  0.82204  0.51772  0.24564  1.0000
  H   H531      1.0  0.76692  0.53699  0.39209  1.0000
  H   H532      1.0  0.89725  0.00634  0.24241  1.0000
  S   S178      1.0  0.91225  0.00444  0.31315  1.0000
  N   N46       1.0  0.81787  0.01451  0.47430  1.0000
  S   S179      1.0  0.88164  0.52282  0.40539  1.0000
  C   C535      1.0  0.86866  0.51668  0.44509  1.0000
  S   S180      1.0  0.86189  0.01427  0.36718  1.0000
  C   C536      1.0  0.91665  0.51653  0.25688  1.0000
  Fe  Fe91      1.0  0.00772  0.96826  0.86093  1.0000
  S   S181      1.0  0.90332  0.52927  0.67560  1.0000
  C   C537      1.0  0.01304  0.55505  0.00243  1.0000
  Fe  Fe92      1.0  0.70565  0.58418  0.66359  1.0000
  S   S182      1.0  0.73930  0.59135  0.67009  1.0000
  C   C538      1.0  0.76313  0.99985  0.62829  1.0000
  H   H533      1.0  0.69155  0.70677  0.66380  1.0000
  H   H534      1.0  0.70441  0.76933  0.68289  1.0000
  S   S183      1.0  0.98776  0.93773  0.82305  1.0000
  H   H535      1.0  0.75672  0.56444  0.58463  1.0000
  H   H536      1.0  0.73190  0.98308  0.62715  1.0000
  H   H537      1.0  0.92652  0.94036  0.78813  1.0000
  Fe  Fe93      1.0  0.99521  0.98547  0.78636  1.0000
  S   S184      1.0  0.99792  0.96814  0.91791  1.0000
  Fe  Fe94      1.0  0.99031  0.55806  0.81409  1.0000
  H   H538      1.0  0.73635  0.84774  0.66477  1.0000
  S   S185      1.0  0.99640  0.58477  0.86572  1.0000
  C   C539      1.0  0.97196  0.52162  0.93859  1.0000
  H   H539      1.0  0.80718  0.53948  0.67480  1.0000
  H   H540      1.0  0.01234  0.71170  0.78191  1.0000
  H   H541      1.0  0.76774  0.97948  0.60900  1.0000
  S   S186      1.0  0.96114  0.52568  0.80506  1.0000
  H   H542      1.0  0.97936  0.85267  0.74779  1.0000
  C   C540      1.0  0.96617  0.83736  0.81195  1.0000
  H   H543      1.0  0.98798  0.56022  0.65330  1.0000
  C   C541      1.0  0.01404  0.73678  0.79754  1.0000
  H   H544      1.0  0.75739  0.98764  0.73431  1.0000
  H   H545      1.0  0.80706  0.97797  0.56711  1.0000
  H   H546      1.0  0.72311  0.53052  0.57767  1.0000
  C   C542      1.0  0.93321  0.55720  0.71652  1.0000
  C   C543      1.0  0.69144  0.76792  0.66658  1.0000
  C   C544      1.0  0.86793  0.59385  0.51588  1.0000
  C   C545      1.0  0.01417  0.77295  0.78199  1.0000
  S   S187      1.0  0.00691  0.60341  0.78374  1.0000
  C   C546      1.0  0.80892  0.96356  0.51303  1.0000
  H   H547      1.0  0.72412  0.53279  0.62412  1.0000
  C   C547      1.0  0.94646  0.92525  0.74605  1.0000
  H   H548      1.0  0.96861  0.90463  0.70964  1.0000
  H   H549      1.0  0.75320  0.86677  0.63183  1.0000
  C   C548      1.0  0.75650  0.55458  0.67821  1.0000
  C   C549      1.0  0.79136  0.53339  0.67868  1.0000
  C   C550      1.0  0.77713  0.56195  0.67347  1.0000
  H   H550      1.0  0.87072  0.57529  0.53767  1.0000
  H   H551      1.0  0.78214  0.58989  0.66551  1.0000
  S   S188      1.0  0.69494  0.59959  0.61071  1.0000
  C   C551      1.0  0.94456  0.52855  0.76982  1.0000
  H   H552      1.0  0.95399  0.82653  0.82942  1.0000
  H   H553      1.0  0.01351  0.57264  0.94879  1.0000
  H   H554      1.0  0.97852  0.84892  0.82778  1.0000
  H   H555      1.0  0.72747  0.88141  0.63380  1.0000
  S   S189      1.0  0.69329  0.94270  0.62108  1.0000
  H   H556      1.0  0.72262  0.96196  0.73146  1.0000
  S   S190      1.0  0.68757  0.53057  0.66763  1.0000
  C   C552      1.0  0.73468  0.94913  0.71641  1.0000
  C   C553      1.0  0.00221  0.53462  0.69701  1.0000
  C   C554      1.0  0.86216  0.98839  0.51518  1.0000
  C   C555      1.0  0.94631  0.55694  0.74469  1.0000
  C   C556      1.0  0.93788  0.92075  0.77898  1.0000
  C   C557      1.0  0.98686  0.53873  0.67330  1.0000
  C   C558      1.0  0.96753  0.87143  0.75662  1.0000
  H   H557      1.0  0.95772  0.57868  0.74695  1.0000
  S   S191      1.0  0.97763  0.01080  0.74186  1.0000
  H   H558      1.0  0.01552  0.55257  0.69548  1.0000
  H   H559      1.0  0.93806  0.88863  0.82614  1.0000
  C   C559      1.0  0.96148  0.90068  0.73484  1.0000
  H   H560      1.0  0.97216  0.81282  0.79719  1.0000
  H   H561      1.0  0.93465  0.57929  0.69721  1.0000
  N   N47       1.0  0.74545  0.90452  0.67333  1.0000
  C   C560      1.0  0.76470  0.91820  0.67498  1.0000
  C   C561      1.0  0.73058  0.91932  0.69392  1.0000
  C   C562      1.0  0.76937  0.94786  0.69736  1.0000
  H   H562      1.0  0.79356  0.55360  0.58374  1.0000
  C   C563      1.0  0.75419  0.96350  0.71803  1.0000
  C   C564      1.0  0.74053  0.87360  0.64975  1.0000
  H   H563      1.0  0.77650  0.90691  0.65843  1.0000
  H   H564      1.0  0.71535  0.90847  0.69258  1.0000
  H   H565      1.0  0.98984  0.96702  0.99104  1.0000
  C   C565      1.0  0.94440  0.89136  0.80022  1.0000
  H   H566      1.0  0.94170  0.94812  0.72942  1.0000
  C   C566      1.0  0.68421  0.73243  0.65572  1.0000
  H   H567      1.0  0.80552  0.93384  0.51718  1.0000
  H   H568      1.0  0.85693  0.96188  0.52629  1.0000
  H   H569      1.0  0.01261  0.77539  0.75433  1.0000
  Fe  Fe95      1.0  0.68803  0.98615  0.66229  1.0000
  H   H570      1.0  0.78446  0.95974  0.69755  1.0000
  H   H571      1.0  0.83827  0.60858  0.53393  1.0000
  N   N48       1.0  0.95888  0.86688  0.78875  1.0000
  C   C567      1.0  0.74278  0.00178  0.63859  1.0000
  H   H572      1.0  0.96795  0.54180  0.91873  1.0000
  C   C568      1.0  0.78319  0.53084  0.59053  1.0000
  C   C569      1.0  0.99854  0.99237  0.98546  1.0000
  C   C570      1.0  0.91841  0.52890  0.71289  1.0000
  C   C571      1.0  0.84964  0.61252  0.51371  1.0000
  S   S192      1.0  0.69155  0.84547  0.67099  1.0000
  C   C572      1.0  0.00457  0.00034  0.95111  1.0000
  C   C573      1.0  0.76243  0.53662  0.59085  1.0000
  H   H573      1.0  0.94424  0.01370  0.79260  1.0000
  C   C574      1.0  0.80984  0.98825  0.54099  1.0000
  C   C575      1.0  0.75021  0.51845  0.68887  1.0000
  H   H574      1.0  0.95839  0.55327  0.98029  1.0000
  Fe  Fe96      1.0  0.01534  0.62730  0.83544  1.0000
  C   C576      1.0  0.96656  0.52799  0.97308  1.0000
  H   H575      1.0  0.01168  0.01351  0.69331  1.0000
  H   H576      1.0  0.95771  0.51845  0.65777  1.0000
