data_image0
_chemical_formula_structural       S2NCH2C6H4CHC6SH3C2SH3NC2H6CH4CH5CHCH4CFeS2FeSFeSFeS4FeSH2SFeSFeSHSHS2CFeSC3HCHCHC2HC2NH4C6H5CHC3H2C2HCH3C6H4CSFeC4SH2NC6H10CFeCNCFeCH2CH3CH2CNC5HC2HSH2C3HCSCNC3H5CH2CH3SNC2H2C3HCNH2C3HCHCHSCHCSCH5NHCH2SHFeS2FeHSFeSHS2FeS2FeS2FeSHS2H2SHSFeSH2CFeCSFeC2FeS3C2HC2H2CHC2HCNCSHC7H4C6H4C4H4NCHC2HFeCH3SC3FeC3SCHN2C2H3NC6H8SHC4HCH3CHSHC2H3CHC3H2CH2CHCHFeC2H2C2HCH3Fe2HSH2CHSFeS2FeS2FeSFeS3FeS2FeS2FeSFeS3HCSHCSH4CH4SC6H4C6H4C6H4FeC3H2C7H4C6H3C2H2NCHC2HC3HCH2NC2HCHCHCH3CSH5CHCHCHCNC2NCSH3NFeCH2C2H2CHCHCHCHC2H2CH3SHCHSNSFeSFeS3FeCSFeCSCHSCHCFeCSHCHFeCSHCFeSHSCHFeHSC6H5FeH2CHC8H2SCSC3HFeCHSHCFeCN2H4SH2C2HCHSHCHCHFeSHCH2CH6C3HFeS2FeHSC2S2FeHSFe2SC2S3FeSFeCSHC2HC6HSH2C6H2CH2C2SCH3C2HCH3CHCH3C2HCHCSHSFeCNCH3C2FeC3H3SHNH2CHC2FeNHCSFeS2FeS2FeSFeS3FeS2FeS2FeSFeS3HFeHSC2S2FeHSHCHCSH2CH4CSHC7HCH2C6H4CHC7H4C6H4C6H5CH2NC2SC2HNCHCHCNC2H5CHCFeH6C2HC4HNCHC2H2C2HCNCH4SH2NC3H2NHCH2CHCH3C2HC2H2CFeS2FeSNFeSFeS3FeS2CSFeSFeS2HFeS2C2SH3C4HS2NC3H2C6H4C6H4CHC4H3C3H2NC4HCH3CSHSH5CH2FeH4C3H2C2H4FeCHCH2CHC4NC6H2CHCHSHC2HCHCH2C2H4NSNH3C2FeH2SC2FeC2Fe2SCFeSFeSFeS4CSFeS2FeSFeSHSH4CSCH2FeS2FeNSH2CHS2CSHNHCHCH3C3HFeC10H4C5HCH3CHC3SH2C6H4CHC4HCH2NC6H10FeCHCH8SHSH3C3SHCSC2HC2SHFeC2H3C3NH3CHCHCNCH2C4HNHC2FeCHC2H2C2FeHCSCSC6H4C6H6CSH3CH3C2HC2H2CHCNH2CHCHNCHNH2SH
_chemical_formula_sum              "S192 N48 C576 H576 Fe96"
_cell_length_a       58.9501
_cell_length_b       58.9891
_cell_length_c       35.1156
_cell_angle_alpha    90.4486
_cell_angle_beta     90.1078
_cell_angle_gamma    89.7626

_space_group_name_H-M_alt    "P 1"
_space_group_IT_number       1

loop_
  _space_group_symop_operation_xyz
  'x, y, z'

loop_
  _atom_site_type_symbol
  _atom_site_label
  _atom_site_symmetry_multiplicity
  _atom_site_fract_x
  _atom_site_fract_y
  _atom_site_fract_z
  _atom_site_occupancy
  S   S1        1.0  0.07947  0.00251  0.20168  1.0000
  S   S2        1.0  0.08854  0.46337  0.19772  1.0000
  N   N1        1.0  0.99236  0.05676  0.07076  1.0000
  C   C1        1.0  0.11391  0.43959  0.12001  1.0000
  H   H1        1.0  0.00337  0.24151  0.17997  1.0000
  H   H2        1.0  0.08317  0.03118  0.13325  1.0000
  C   C2        1.0  0.06340  0.44759  0.18645  1.0000
  C   C3        1.0  0.06048  0.42597  0.20260  1.0000
  C   C4        1.0  0.04105  0.41272  0.19455  1.0000
  C   C5        1.0  0.02407  0.42091  0.17026  1.0000
  C   C6        1.0  0.02702  0.44249  0.15402  1.0000
  C   C7        1.0  0.04653  0.45569  0.16187  1.0000
  H   H3        1.0  0.07335  0.41942  0.22159  1.0000
  H   H4        1.0  0.03923  0.39617  0.20721  1.0000
  H   H5        1.0  0.01410  0.44911  0.13517  1.0000
  H   H6        1.0  0.04839  0.47222  0.14913  1.0000
  C   C8        1.0  0.13160  0.44178  0.14640  1.0000
  H   H7        1.0  0.12844  0.43751  0.17593  1.0000
  C   C9        1.0  0.06275  0.02534  0.18285  1.0000
  C   C10       1.0  0.06845  0.03663  0.14928  1.0000
  C   C11       1.0  0.05568  0.05567  0.13726  1.0000
  C   C12       1.0  0.03660  0.06342  0.15787  1.0000
  C   C13       1.0  0.03053  0.05177  0.19090  1.0000
  C   C14       1.0  0.04367  0.03310  0.20348  1.0000
  S   S3        1.0  0.02086  0.08730  0.14040  1.0000
  H   H8        1.0  0.06073  0.06455  0.11183  1.0000
  H   H9        1.0  0.01599  0.05742  0.20720  1.0000
  H   H10       1.0  0.03910  0.02472  0.22963  1.0000
  C   C15       1.0  0.13849  0.45442  0.07148  1.0000
  C   C16       1.0  0.15583  0.45629  0.09859  1.0000
  S   S4        1.0  0.99876  0.40520  0.15964  1.0000
  H   H11       1.0  0.00351  0.28723  0.04849  1.0000
  H   H12       1.0  0.17199  0.46337  0.09011  1.0000
  H   H13       1.0  0.16698  0.46879  0.18053  1.0000
  N   N2        1.0  0.15227  0.44988  0.13548  1.0000
  C   C17       1.0  0.11739  0.44603  0.08236  1.0000
  C   C18       1.0  0.17016  0.45291  0.16412  1.0000
  H   H14       1.0  0.09738  0.43368  0.12915  1.0000
  H   H15       1.0  0.99094  0.20216  0.16482  1.0000
  H   H16       1.0  0.10358  0.44501  0.06195  1.0000
  H   H17       1.0  0.17069  0.43840  0.18405  1.0000
  H   H18       1.0  0.18718  0.45440  0.15076  1.0000
  H   H19       1.0  0.24990  0.00398  0.15315  1.0000
  C   C19       1.0  0.00833  0.04220  0.08496  1.0000
  H   H20       1.0  0.02585  0.04331  0.07582  1.0000
  H   H21       1.0  0.00122  0.27166  0.09273  1.0000
  H   H22       1.0  0.14125  0.46003  0.04252  1.0000
  H   H23       1.0  0.01559  0.01567  0.12528  1.0000
  C   C20       1.0  0.99910  0.07432  0.04375  1.0000
  H   H24       1.0  0.00538  0.08938  0.05981  1.0000
  H   H25       1.0  0.22845  0.48482  0.10753  1.0000
  H   H26       1.0  0.99854  0.40409  0.24452  1.0000
  H   H27       1.0  0.99398  0.30086  0.09200  1.0000
  H   H28       1.0  0.28139  0.99789  0.08462  1.0000
  C   C21       1.0  0.00262  0.02653  0.11303  1.0000
  H   H29       1.0  0.01280  0.06810  0.02463  1.0000
  C   C22       1.0  0.99334  0.28500  0.07473  1.0000
  H   H30       1.0  0.99228  0.38195  0.30368  1.0000
  H   H31       1.0  0.31059  0.99076  0.08118  1.0000
  H   H32       1.0  0.21007  0.99045  0.15758  1.0000
  H   H33       1.0  0.29328  0.99077  0.03834  1.0000
  C   C23       1.0  0.30771  0.90617  0.40917  1.0000
  Fe  Fe1       1.0  0.15277  0.95318  0.16881  1.0000
  S   S5        1.0  0.13691  0.92007  0.15023  1.0000
  S   S6        1.0  0.19093  0.94640  0.18130  1.0000
  Fe  Fe2       1.0  0.10431  0.97540  0.17792  1.0000
  S   S7        1.0  0.08691  0.94277  0.16168  1.0000
  Fe  Fe3       1.0  0.11286  0.92563  0.19915  1.0000
  S   S8        1.0  0.10534  0.89681  0.24050  1.0000
  Fe  Fe4       1.0  0.11263  0.94030  0.11457  1.0000
  S   S9        1.0  0.10389  0.93481  0.05129  1.0000
  S   S10       1.0  0.12877  0.95800  0.21854  1.0000
  S   S11       1.0  0.12975  0.97359  0.12959  1.0000
  S   S12       1.0  0.28734  0.53030  0.17466  1.0000
  Fe  Fe5       1.0  0.14980  0.51641  0.14818  1.0000
  S   S13       1.0  0.13696  0.55241  0.15037  1.0000
  H   H34       1.0  0.25318  0.96900  0.08588  1.0000
  H   H35       1.0  0.13705  0.56198  0.44512  1.0000
  S   S14       1.0  0.08910  0.53257  0.18469  1.0000
  Fe  Fe6       1.0  0.10402  0.53904  0.12619  1.0000
  S   S15       1.0  0.07947  0.55689  0.08456  1.0000
  Fe  Fe7       1.0  0.12307  0.54333  0.20834  1.0000
  S   S16       1.0  0.13374  0.56805  0.25607  1.0000
  H   H36       1.0  0.09821  0.63371  0.37576  1.0000
  S   S17       1.0  0.13716  0.50779  0.20658  1.0000
  H   H37       1.0  0.07501  0.70488  0.43998  1.0000
  S   S18       1.0  0.09955  0.59359  0.42390  1.0000
  S   S19       1.0  0.15180  0.63109  0.44933  1.0000
  C   C24       1.0  0.06927  0.95492  0.26300  1.0000
  Fe  Fe8       1.0  0.12869  0.86517  0.46262  1.0000
  S   S20       1.0  0.13207  0.89263  0.41680  1.0000
  C   C25       1.0  0.08142  0.96359  0.32704  1.0000
  C   C26       1.0  0.05771  0.56926  0.01832  1.0000
  C   C27       1.0  0.12752  0.66762  0.36507  1.0000
  H   H38       1.0  0.04257  0.61324  0.05434  1.0000
  C   C28       1.0  0.06385  0.93297  0.27455  1.0000
  H   H39       1.0  0.30719  0.93522  0.46665  1.0000
  C   C29       1.0  0.27800  0.88884  0.44377  1.0000
  H   H40       1.0  0.15748  0.74072  0.43379  1.0000
  C   C30       1.0  0.05870  0.62274  0.05125  1.0000
  C   C31       1.0  0.13063  0.76098  0.45832  1.0000
  H   H41       1.0  0.19357  0.58099  0.41655  1.0000
  C   C32       1.0  0.30499  0.94678  0.07081  1.0000
  C   C33       1.0  0.07843  0.56222  0.03459  1.0000
  N   N3        1.0  0.32216  0.57120  0.05935  1.0000
  H   H42       1.0  0.24414  0.92878  0.09680  1.0000
  H   H43       1.0  0.06315  0.89122  0.29992  1.0000
  H   H44       1.0  0.11375  0.55595  0.02336  1.0000
  H   H45       1.0  0.16307  0.54915  0.46270  1.0000
  C   C34       1.0  0.12299  0.57542  0.30183  1.0000
  C   C35       1.0  0.13468  0.59180  0.32354  1.0000
  C   C36       1.0  0.12791  0.59728  0.36098  1.0000
  C   C37       1.0  0.10902  0.58676  0.37704  1.0000
  C   C38       1.0  0.09709  0.57062  0.35518  1.0000
  C   C39       1.0  0.10412  0.56484  0.31788  1.0000
  H   H46       1.0  0.14937  0.59999  0.31148  1.0000
  H   H47       1.0  0.13733  0.60967  0.37725  1.0000
  H   H48       1.0  0.08237  0.56244  0.36718  1.0000
  H   H49       1.0  0.09495  0.55220  0.30157  1.0000
  H   H50       1.0  0.12841  0.65263  0.34568  1.0000
  C   C40       1.0  0.28772  0.54039  0.07364  1.0000
  H   H51       1.0  0.14191  0.66668  0.38553  1.0000
  C   C41       1.0  0.25902  0.52190  0.16225  1.0000
  C   C42       1.0  0.24056  0.53433  0.17728  1.0000
  C   C43       1.0  0.21788  0.52899  0.16745  1.0000
  H   H52       1.0  0.24381  0.54829  0.19667  1.0000
  H   H53       1.0  0.20401  0.53883  0.17923  1.0000
  C   C44       1.0  0.09104  0.91196  0.02581  1.0000
  C   C45       1.0  0.08186  0.89311  0.04408  1.0000
  H   H54       1.0  0.26823  0.49394  0.12570  1.0000
  C   C46       1.0  0.15591  0.56273  0.44452  1.0000
  H   H55       1.0  0.08310  0.89179  0.07473  1.0000
  H   H56       1.0  0.09224  0.61555  0.00100  1.0000
  H   H57       1.0  0.32300  0.57184  0.34117  1.0000
  C   C47       1.0  0.11345  0.89578  0.28922  1.0000
  C   C48       1.0  0.12184  0.91480  0.30853  1.0000
  C   C49       1.0  0.12697  0.91358  0.34771  1.0000
  C   C50       1.0  0.12407  0.89330  0.36800  1.0000
  C   C51       1.0  0.11583  0.87422  0.34862  1.0000
  C   C52       1.0  0.11052  0.87550  0.30947  1.0000
  H   H58       1.0  0.12413  0.93053  0.29344  1.0000
  H   H59       1.0  0.13346  0.92841  0.36236  1.0000
  H   H60       1.0  0.11359  0.85848  0.36378  1.0000
  H   H61       1.0  0.10398  0.86068  0.29484  1.0000
  C   C53       1.0  0.26510  0.97242  0.17081  1.0000
  S   S21       1.0  0.18497  0.50403  0.12740  1.0000
  Fe  Fe9       1.0  0.14026  0.66157  0.48261  1.0000
  C   C54       1.0  0.21926  0.95703  0.17633  1.0000
  C   C55       1.0  0.23773  0.94271  0.18527  1.0000
  C   C56       1.0  0.26043  0.95024  0.18230  1.0000
  C   C57       1.0  0.26126  0.93359  0.08894  1.0000
  S   S22       1.0  0.11770  0.50342  0.11956  1.0000
  H   H62       1.0  0.23446  0.92559  0.19453  1.0000
  H   H63       1.0  0.27432  0.93892  0.18912  1.0000
  N   N4        1.0  0.17364  0.90157  0.27151  1.0000
  C   C58       1.0  0.17011  0.88405  0.29610  1.0000
  C   C59       1.0  0.18297  0.92145  0.28415  1.0000
  C   C60       1.0  0.17536  0.88645  0.33480  1.0000
  C   C61       1.0  0.18827  0.92449  0.32272  1.0000
  C   C62       1.0  0.18422  0.90691  0.34821  1.0000
  C   C63       1.0  0.16759  0.89921  0.23125  1.0000
  H   H64       1.0  0.16244  0.86840  0.28615  1.0000
  H   H65       1.0  0.18599  0.93520  0.26436  1.0000
  H   H66       1.0  0.17158  0.87293  0.35461  1.0000
  H   H67       1.0  0.19512  0.94049  0.33278  1.0000
  H   H68       1.0  0.18745  0.90922  0.37844  1.0000
  H   H69       1.0  0.15587  0.88478  0.22598  1.0000
  H   H70       1.0  0.15858  0.91470  0.22169  1.0000
  H   H71       1.0  0.18309  0.89706  0.21362  1.0000
  H   H72       1.0  0.11010  0.70327  0.40160  1.0000
  H   H73       1.0  0.12958  0.68303  0.34746  1.0000
  C   C64       1.0  0.18437  0.57080  0.39575  1.0000
  Fe  Fe10      1.0  0.11925  0.61523  0.46674  1.0000
  C   C65       1.0  0.07102  0.87591  0.02264  1.0000
  N   N5        1.0  0.29506  0.90444  0.44160  1.0000
  C   C66       1.0  0.30098  0.91823  0.47504  1.0000
  Fe  Fe11      1.0  0.10404  0.49743  0.17854  1.0000
  C   C67       1.0  0.30654  0.57578  0.08716  1.0000
  H   H74       1.0  0.27673  0.56405  0.11686  1.0000
  H   H75       1.0  0.32218  0.95177  0.06387  1.0000
  C   C68       1.0  0.09767  0.56120  0.01134  1.0000
  H   H76       1.0  0.06351  0.63429  0.41454  1.0000
  H   H77       1.0  0.02896  0.64951  0.01631  1.0000
  H   H78       1.0  0.04267  0.56996  0.03591  1.0000
  C   C69       1.0  0.22395  0.97912  0.16442  1.0000
  H   H79       1.0  0.07267  0.61063  0.05795  1.0000
  H   H80       1.0  0.27461  0.89954  0.09092  1.0000
  C   C70       1.0  0.11471  0.71999  0.48802  1.0000
  N   N6        1.0  0.10605  0.66850  0.38607  1.0000
  C   C71       1.0  0.09314  0.64941  0.38951  1.0000
  C   C72       1.0  0.09964  0.68824  0.40377  1.0000
  C   C73       1.0  0.07329  0.64972  0.41123  1.0000
  C   C74       1.0  0.07981  0.68923  0.42558  1.0000
  C   C75       1.0  0.06661  0.66979  0.42939  1.0000
  H   H81       1.0  0.01748  0.87456  0.01309  1.0000
  C   C76       1.0  0.21325  0.51117  0.14206  1.0000
  C   C77       1.0  0.30338  0.89214  0.37771  1.0000
  H   H82       1.0  0.28313  0.86460  0.35600  1.0000
  S   S23       1.0  0.14451  0.83024  0.46095  1.0000
  H   H83       1.0  0.20842  0.57727  0.35076  1.0000
  H   H84       1.0  0.08266  0.98728  0.28044  1.0000
  C   C78       1.0  0.27337  0.87434  0.41304  1.0000
  C   C79       1.0  0.11071  0.76087  0.47984  1.0000
  C   C80       1.0  0.29360  0.98674  0.06914  1.0000
  H   H85       1.0  0.30353  0.51968  0.03030  1.0000
  C   C81       1.0  0.13437  0.72008  0.46584  1.0000
  S   S24       1.0  0.14922  0.69490  0.45513  1.0000
  C   C82       1.0  0.02913  0.91618  0.99628  1.0000
  N   N7        1.0  0.28826  0.96275  0.07482  1.0000
  C   C83       1.0  0.07556  0.94156  0.33778  1.0000
  C   C84       1.0  0.28622  0.87600  0.37984  1.0000
  C   C85       1.0  0.19291  0.56868  0.35870  1.0000
  H   H86       1.0  0.05144  0.67017  0.44684  1.0000
  H   H87       1.0  0.31061  0.73928  0.48022  1.0000
  H   H88       1.0  0.07820  0.93643  0.36708  1.0000
  H   H89       1.0  0.26823  0.88714  0.46968  1.0000
  H   H90       1.0  0.15191  0.53468  0.32165  1.0000
  C   C86       1.0  0.28893  0.56060  0.09437  1.0000
  H   H91       1.0  0.13741  0.53899  0.38745  1.0000
  H   H92       1.0  0.08844  0.97539  0.34772  1.0000
  C   C87       1.0  0.26650  0.95638  0.08286  1.0000
  H   H93       1.0  0.26027  0.86156  0.41544  1.0000
  H   H94       1.0  0.18721  0.55421  0.30275  1.0000
  H   H95       1.0  0.31382  0.91131  0.07375  1.0000
  S   S25       1.0  0.32017  0.85148  0.46818  1.0000
  N   N8        1.0  0.16454  0.56040  0.40558  1.0000
  C   C88       1.0  0.15322  0.54710  0.37976  1.0000
  C   C89       1.0  0.24664  0.98677  0.16199  1.0000
  H   H96       1.0  0.05925  0.63671  0.07259  1.0000
  H   H97       1.0  0.31368  0.89343  0.35220  1.0000
  C   C90       1.0  0.14229  0.74059  0.45104  1.0000
  C   C91       1.0  0.25436  0.50385  0.13730  1.0000
  C   C92       1.0  0.18120  0.55557  0.33192  1.0000
  H   H98       1.0  0.06403  0.86141  0.03712  1.0000
  C   C93       1.0  0.27835  0.91724  0.08581  1.0000
  N   N9        1.0  0.06712  0.92652  0.31151  1.0000
  H   H99       1.0  0.16075  0.57936  0.45708  1.0000
  H   H100      1.0  0.24592  0.59092  0.48101  1.0000
  C   C94       1.0  0.07821  0.97026  0.28936  1.0000
  C   C95       1.0  0.16139  0.54447  0.34259  1.0000
  C   C96       1.0  0.32110  0.55137  0.03890  1.0000
  H   H101      1.0  0.04234  0.90367  0.33178  1.0000
  C   C97       1.0  0.30395  0.53564  0.04585  1.0000
  H   H102      1.0  0.03287  0.91193  0.02564  1.0000
  C   C98       1.0  0.04366  0.64556  0.99892  1.0000
  H   H103      1.0  0.13672  0.77670  0.44650  1.0000
  S   S26       1.0  0.09508  0.78596  0.48782  1.0000
  C   C99       1.0  0.06048  0.90373  0.32341  1.0000
  H   H104      1.0  0.32159  0.91815  0.40783  1.0000
  C   C100      1.0  0.23170  0.49867  0.12713  1.0000
  S   S27       1.0  0.29345  0.98288  0.16545  1.0000
  C   C101      1.0  0.30031  0.92381  0.07629  1.0000
  H   H105      1.0  0.07096  0.89786  0.34783  1.0000
  H   H106      1.0  0.30784  0.59103  0.10443  1.0000
  H   H107      1.0  0.05742  0.92101  0.25356  1.0000
  H   H108      1.0  0.27447  0.52826  0.07970  1.0000
  H   H109      1.0  0.06666  0.96001  0.23370  1.0000
  N   N10       1.0  0.06055  0.63184  0.01260  1.0000
  H   H110      1.0  0.04983  0.94629  0.99818  1.0000
  C   C102      1.0  0.00613  0.88177  0.99089  1.0000
  H   H111      1.0  0.22537  0.74754  0.48931  1.0000
  H   H112      1.0  0.32193  0.64385  0.30341  1.0000
  S   S28       1.0  0.32261  0.78596  0.47471  1.0000
  H   H113      1.0  0.32145  0.62309  0.34120  1.0000
  Fe  Fe12      1.0  0.04853  0.85004  0.80856  1.0000
  S   S29       1.0  0.01122  0.84538  0.79759  1.0000
  S   S30       1.0  0.07577  0.84234  0.76346  1.0000
  Fe  Fe13      1.0  0.04118  0.85335  0.89602  1.0000
  H   H114      1.0  0.16489  0.78378  0.56492  1.0000
  S   S31       1.0  0.05402  0.85573  0.95764  1.0000
  Fe  Fe14      1.0  0.01275  0.82041  0.84643  1.0000
  S   S32       1.0  0.29026  0.64719  0.55354  1.0000
  H   H115      1.0  0.20759  0.63925  0.54684  1.0000
  S   S33       1.0  0.04999  0.82449  0.85613  1.0000
  S   S34       1.0  0.04310  0.87927  0.84969  1.0000
  Fe  Fe15      1.0  0.04556  0.59952  0.87457  1.0000
  S   S35       1.0  0.01524  0.61951  0.89471  1.0000
  S   S36       1.0  0.07512  0.58420  0.90833  1.0000
  Fe  Fe16      1.0  0.03375  0.60758  0.78986  1.0000
  S   S37       1.0  0.00257  0.62813  0.80450  1.0000
  S   S38       1.0  0.04271  0.59555  0.72959  1.0000
  Fe  Fe17      1.0  0.02428  0.64522  0.84958  1.0000
  S   S39       1.0  0.03234  0.68257  0.86517  1.0000
  H   H116      1.0  0.23909  0.81069  0.53784  1.0000
  S   S40       1.0  0.05581  0.62591  0.83189  1.0000
  S   S41       1.0  0.02582  0.57948  0.83096  1.0000
  H   H117      1.0  0.19887  0.77847  0.50747  1.0000
  H   H118      1.0  0.08733  0.74019  0.51124  1.0000
  S   S42       1.0  0.15668  0.65014  0.53678  1.0000
  H   H119      1.0  0.10855  0.70425  0.49968  1.0000
  S   S43       1.0  0.13342  0.60036  0.52092  1.0000
  Fe  Fe18      1.0  0.12303  0.63331  0.54927  1.0000
  S   S44       1.0  0.11046  0.64070  0.61011  1.0000
  H   H120      1.0  0.17760  0.69883  0.53103  1.0000
  H   H121      1.0  0.09504  0.63051  0.93571  1.0000
  C   C103      1.0  0.01952  0.74792  0.75351  1.0000
  Fe  Fe19      1.0  0.11398  0.86018  0.54706  1.0000
  C   C104      1.0  0.00128  0.71537  0.83906  1.0000
  S   S45       1.0  0.09593  0.87844  0.59614  1.0000
  Fe  Fe20      1.0  0.15857  0.83896  0.51873  1.0000
  C   C105      1.0  0.15190  0.87980  0.62834  1.0000
  C   C106      1.0  0.14762  0.85956  0.68607  1.0000
  Fe  Fe21      1.0  0.00537  0.87304  0.84196  1.0000
  S   S46       1.0  0.14510  0.87458  0.51891  1.0000
  S   S47       1.0  0.12890  0.82545  0.55131  1.0000
  S   S48       1.0  0.28389  0.88064  0.54439  1.0000
  C   C107      1.0  0.21767  0.84039  0.53590  1.0000
  C   C108      1.0  0.25859  0.86490  0.54034  1.0000
  H   H122      1.0  0.18160  0.83035  0.62435  1.0000
  C   C109      1.0  0.21725  0.86410  0.53555  1.0000
  C   C110      1.0  0.22426  0.61391  0.51236  1.0000
  H   H123      1.0  0.21462  0.70734  0.50090  1.0000
  H   H124      1.0  0.04962  0.73816  0.78376  1.0000
  C   C111      1.0  0.16607  0.86274  0.61378  1.0000
  H   H125      1.0  0.04252  0.95571  0.93020  1.0000
  C   C112      1.0  0.12906  0.89665  0.67966  1.0000
  C   C113      1.0  0.17077  0.84372  0.63574  1.0000
  H   H126      1.0  0.14034  0.85812  0.71432  1.0000
  C   C114      1.0  0.26508  0.63455  0.53633  1.0000
  N   N11       1.0  0.01612  0.90211  0.97418  1.0000
  C   C115      1.0  0.22368  0.63279  0.53671  1.0000
  S   S49       1.0  0.10611  0.64695  0.49615  1.0000
  H   H127      1.0  0.15167  0.73012  0.54898  1.0000
  C   C116      1.0  0.03479  0.94089  0.94273  1.0000
  C   C117      1.0  0.06019  0.60928  0.69551  1.0000
  C   C118      1.0  0.06408  0.59867  0.66002  1.0000
  C   C119      1.0  0.07892  0.60825  0.63304  1.0000
  C   C120      1.0  0.09002  0.62864  0.64126  1.0000
  C   C121      1.0  0.08575  0.63945  0.67647  1.0000
  C   C122      1.0  0.07097  0.62985  0.70345  1.0000
  H   H128      1.0  0.05577  0.58279  0.65347  1.0000
  H   H129      1.0  0.08197  0.59974  0.60613  1.0000
  H   H130      1.0  0.09420  0.65524  0.68312  1.0000
  H   H131      1.0  0.06813  0.63826  0.73052  1.0000
  C   C123      1.0  0.07850  0.85120  0.71533  1.0000
  C   C124      1.0  0.06843  0.87110  0.70184  1.0000
  C   C125      1.0  0.07318  0.87872  0.66467  1.0000
  C   C126      1.0  0.08771  0.86637  0.64031  1.0000
  C   C127      1.0  0.09706  0.84601  0.65331  1.0000
  C   C128      1.0  0.09270  0.83864  0.69072  1.0000
  H   H132      1.0  0.05757  0.88103  0.72043  1.0000
  H   H133      1.0  0.06589  0.89453  0.65499  1.0000
  H   H134      1.0  0.10828  0.83633  0.63499  1.0000
  H   H135      1.0  0.10058  0.82322  0.70081  1.0000
  C   C129      1.0  0.00687  0.75659  0.84693  1.0000
  C   C130      1.0  0.02756  0.75204  0.86508  1.0000
  C   C131      1.0  0.03496  0.72939  0.87026  1.0000
  C   C132      1.0  0.02194  0.71083  0.85731  1.0000
  H   H136      1.0  0.27507  0.83228  0.54059  1.0000
  H   H137      1.0  0.31452  0.90952  0.49153  1.0000
  H   H138      1.0  0.03772  0.76597  0.87560  1.0000
  H   H139      1.0  0.05087  0.72623  0.88471  1.0000
  N   N12       1.0  0.14286  0.87804  0.66407  1.0000
  C   C133      1.0  0.04032  0.75220  0.77137  1.0000
  H   H140      1.0  0.20124  0.87304  0.53397  1.0000
  C   C134      1.0  0.07556  0.57486  0.95656  1.0000
  C   C135      1.0  0.07832  0.89613  0.96442  1.0000
  H   H141      1.0  0.06467  0.65583  0.91065  1.0000
  Fe  Fe22      1.0  0.31645  0.86238  0.52894  1.0000
  C   C136      1.0  0.20927  0.74359  0.50256  1.0000
  H   H142      1.0  0.07700  0.89749  0.93379  1.0000
  H   H143      1.0  0.24347  0.65723  0.56835  1.0000
  H   H144      1.0  0.11129  0.56684  0.95512  1.0000
  S   S50       1.0  0.19908  0.59995  0.49820  1.0000
  C   C137      1.0  0.15834  0.77465  0.53944  1.0000
  C   C138      1.0  0.02105  0.92673  0.92067  1.0000
  C   C139      1.0  0.03595  0.79169  0.76088  1.0000
  Fe  Fe23      1.0  0.99589  0.60079  0.84814  1.0000
  C   C140      1.0  0.00674  0.76602  0.73957  1.0000
  C   C141      1.0  0.24403  0.64292  0.54893  1.0000
  C   C142      1.0  0.23766  0.87632  0.53830  1.0000
  S   S51       1.0  0.19249  0.82431  0.53638  1.0000
  C   C143      1.0  0.23861  0.82902  0.53760  1.0000
  H   H145      1.0  0.28178  0.60936  0.50151  1.0000
  N   N13       1.0  0.17375  0.75607  0.52907  1.0000
  N   N14       1.0  0.04833  0.77387  0.77463  1.0000
  C   C144      1.0  0.06960  0.77804  0.79513  1.0000
  C   C145      1.0  0.01502  0.78806  0.74311  1.0000
  H   H146      1.0  0.08242  0.76483  0.78811  1.0000
  H   H147      1.0  0.07699  0.79474  0.78755  1.0000
  H   H148      1.0  0.06637  0.77800  0.82628  1.0000
  N   N15       1.0  0.09870  0.58309  0.76633  1.0000
  C   C146      1.0  0.10044  0.57319  0.73109  1.0000
  C   C147      1.0  0.10912  0.60334  0.77382  1.0000
  C   C148      1.0  0.11299  0.58351  0.70225  1.0000
  C   C149      1.0  0.12171  0.61419  0.74554  1.0000
  C   C150      1.0  0.12365  0.60415  0.70957  1.0000
  C   C151      1.0  0.08581  0.57157  0.79611  1.0000
  H   H149      1.0  0.09162  0.55749  0.72485  1.0000
  H   H150      1.0  0.10751  0.61136  0.80159  1.0000
  H   H151      1.0  0.11376  0.57601  0.67395  1.0000
  H   H152      1.0  0.12949  0.63050  0.75116  1.0000
  H   H153      1.0  0.13269  0.61273  0.68693  1.0000
  H   H154      1.0  0.09442  0.55552  0.80414  1.0000
  H   H155      1.0  0.08406  0.58210  0.82237  1.0000
  H   H156      1.0  0.06843  0.56770  0.78571  1.0000
  S   S52       1.0  0.00353  0.84768  0.88965  1.0000
  H   H157      1.0  0.04023  0.58114  0.96786  1.0000
  C   C152      1.0  0.16796  0.73409  0.53641  1.0000
  C   C153      1.0  0.09621  0.56747  0.97261  1.0000
  C   C154      1.0  0.08080  0.63531  0.95360  1.0000
  C   C155      1.0  0.99377  0.73803  0.83421  1.0000
  H   H158      1.0  0.23724  0.89465  0.53901  1.0000
  C   C156      1.0  0.25903  0.84122  0.53922  1.0000
  H   H159      1.0  0.09644  0.92767  0.97136  1.0000
  H   H160      1.0  0.17333  0.86413  0.58557  1.0000
  H   H161      1.0  0.04197  0.80890  0.76426  1.0000
  C   C157      1.0  0.03874  0.93572  0.98089  1.0000
  H   H162      1.0  0.16491  0.82727  0.68943  1.0000
  S   S53       1.0  0.99689  0.78489  0.83821  1.0000
  H   H163      1.0  0.14013  0.90952  0.69335  1.0000
  C   C158      1.0  0.06367  0.64928  0.93942  1.0000
  C   C159      1.0  0.18260  0.71629  0.52646  1.0000
  H   H164      1.0  0.11887  0.90486  0.65683  1.0000
  H   H165      1.0  0.14789  0.89431  0.61069  1.0000
  H   H166      1.0  0.01293  0.73079  0.75203  1.0000
  C   C160      1.0  0.05626  0.57558  0.97967  1.0000
  H   H167      1.0  0.00499  0.80234  0.73334  1.0000
  C   C161      1.0  0.26566  0.61596  0.51138  1.0000
  C   C162      1.0  0.06901  0.87737  0.98274  1.0000
  C   C163      1.0  0.16146  0.84203  0.67213  1.0000
  H   H168      1.0  0.15697  0.78689  0.51561  1.0000
  H   H169      1.0  0.11669  0.89034  0.70096  1.0000
  C   C164      1.0  0.19420  0.76099  0.51282  1.0000
  H   H170      1.0  0.14086  0.76857  0.54533  1.0000
  H   H171      1.0  0.01778  0.93054  0.89095  1.0000
  C   C165      1.0  0.08933  0.91324  0.98584  1.0000
  H   H172      1.0  0.00413  0.86816  0.96906  1.0000
  C   C166      1.0  0.01166  0.90738  0.93702  1.0000
  H   H173      1.0  0.00098  0.89652  0.91962  1.0000
  Fe  Fe24      1.0  0.16555  0.61838  0.50461  1.0000
  C   C167      1.0  0.10275  0.74032  0.49455  1.0000
  C   C168      1.0  0.24532  0.60554  0.49977  1.0000
  H   H174      1.0  0.99570  0.57064  0.76405  1.0000
  H   H175      1.0  0.03154  0.66529  0.95105  1.0000
  C   C169      1.0  0.04500  0.65455  0.96218  1.0000
  C   C170      1.0  0.31845  0.62147  0.64002  1.0000
  H   H176      1.0  0.30557  0.63279  0.62862  1.0000
  C   C171      1.0  0.20331  0.72109  0.50925  1.0000
  H   H177      1.0  0.32308  0.74919  0.56143  1.0000
  H   H178      1.0  0.28614  0.92074  0.49417  1.0000
  H   H179      1.0  0.31795  0.59951  0.59115  1.0000
  Fe  Fe25      1.0  0.11376  0.81921  0.49364  1.0000
  Fe  Fe26      1.0  0.32360  0.63956  0.52426  1.0000
  H   H180      1.0  0.99204  0.56795  0.71314  1.0000
  S   S54       1.0  0.09650  0.85340  0.49099  1.0000
  H   H181      1.0  0.32277  0.64030  0.69234  1.0000
  H   H182      1.0  0.99091  0.70144  0.82914  1.0000
  C   C172      1.0  0.07904  0.62678  0.99055  1.0000
  H   H183      1.0  0.62268  0.43428  0.43232  1.0000
  S   S55       1.0  0.38389  0.45834  0.18664  1.0000
  Fe  Fe27      1.0  0.51583  0.32635  0.15087  1.0000
  S   S56       1.0  0.55169  0.33326  0.16856  1.0000
  S   S57       1.0  0.50303  0.29053  0.13508  1.0000
  Fe  Fe28      1.0  0.50186  0.37747  0.15974  1.0000
  S   S58       1.0  0.53717  0.38672  0.17967  1.0000
  S   S59       1.0  0.47819  0.40797  0.14738  1.0000
  Fe  Fe29      1.0  0.54937  0.36445  0.13119  1.0000
  S   S60       1.0  0.57918  0.37417  0.09232  1.0000
  Fe  Fe30      1.0  0.53640  0.35494  0.21509  1.0000
  S   S61       1.0  0.54287  0.34741  0.27831  1.0000
  S   S62       1.0  0.51442  0.35602  0.11017  1.0000
  S   S63       1.0  0.50015  0.34705  0.19836  1.0000
  Fe  Fe31      1.0  0.53686  0.10727  0.12392  1.0000
  S   S64       1.0  0.50589  0.12980  0.12971  1.0000
  S   S65       1.0  0.54181  0.09460  0.06203  1.0000
  Fe  Fe32      1.0  0.54410  0.10819  0.21148  1.0000
  S   S66       1.0  0.51305  0.12962  0.22168  1.0000
  S   S67       1.0  0.56840  0.09548  0.25803  1.0000
  Fe  Fe33      1.0  0.49600  0.10666  0.17801  1.0000
  S   S68       1.0  0.45914  0.09331  0.17905  1.0000
  Fe  Fe34      1.0  0.52560  0.15077  0.17239  1.0000
  S   S69       1.0  0.53289  0.18920  0.18052  1.0000
  S   S70       1.0  0.52628  0.08384  0.17104  1.0000
  S   S71       1.0  0.55733  0.12964  0.16345  1.0000
  H   H184      1.0  0.49395  0.08861  0.08666  1.0000
  C   C173      1.0  0.55869  0.07314  0.99802  1.0000
  S   S72       1.0  0.62303  0.36657  0.39769  1.0000
  H   H185      1.0  0.58642  0.29746  0.10901  1.0000
  C   C174      1.0  0.59687  0.05771  0.99078  1.0000
  S   S73       1.0  0.58558  0.13406  0.42687  1.0000
  H   H186      1.0  0.48121  0.29202  0.21736  1.0000
  H   H187      1.0  0.60016  0.17484  0.34407  1.0000
  H   H188      1.0  0.45224  0.08498  0.08519  1.0000
  H   H189      1.0  0.46211  0.25615  0.20012  1.0000
  C   C175      1.0  0.56300  0.07923  0.03627  1.0000
  H   H190      1.0  0.56984  0.12141  0.99393  1.0000
  H   H191      1.0  0.42315  0.04558  0.05727  1.0000
  H   H192      1.0  0.38189  0.48416  0.26142  1.0000
  H   H193      1.0  0.58790  0.07866  0.08110  1.0000
  S   S74       1.0  0.64612  0.31917  0.46626  1.0000
  C   C176      1.0  0.57151  0.10540  0.30593  1.0000
  C   C177      1.0  0.58738  0.09469  0.32996  1.0000
  C   C178      1.0  0.59168  0.10294  0.36716  1.0000
  C   C179      1.0  0.57995  0.12194  0.38107  1.0000
  C   C180      1.0  0.56370  0.13233  0.35736  1.0000
  C   C181      1.0  0.55958  0.12423  0.32000  1.0000
  H   H194      1.0  0.59656  0.07997  0.31962  1.0000
  H   H195      1.0  0.60408  0.09462  0.38506  1.0000
  H   H196      1.0  0.55441  0.14696  0.36780  1.0000
  H   H197      1.0  0.54727  0.13264  0.30205  1.0000
  C   C182      1.0  0.56581  0.35261  0.31036  1.0000
  C   C183      1.0  0.58442  0.36606  0.30083  1.0000
  C   C184      1.0  0.60187  0.36998  0.32773  1.0000
  C   C185      1.0  0.60108  0.36035  0.36427  1.0000
  C   C186      1.0  0.58250  0.34684  0.37373  1.0000
  C   C187      1.0  0.56497  0.34311  0.34701  1.0000
  H   H198      1.0  0.58532  0.37356  0.27286  1.0000
  H   H199      1.0  0.61612  0.38050  0.32007  1.0000
  H   H200      1.0  0.58160  0.33932  0.40168  1.0000
  H   H201      1.0  0.55066  0.33270  0.35477  1.0000
  C   C188      1.0  0.51283  0.26241  0.14534  1.0000
  C   C189      1.0  0.53222  0.25820  0.16732  1.0000
  C   C190      1.0  0.53838  0.23570  0.17670  1.0000
  C   C191      1.0  0.52536  0.21701  0.16434  1.0000
  C   C192      1.0  0.50633  0.22120  0.14149  1.0000
  C   C193      1.0  0.50015  0.24371  0.13210  1.0000
  H   H202      1.0  0.54225  0.27226  0.17772  1.0000
  H   H203      1.0  0.55317  0.23275  0.19430  1.0000
  H   H204      1.0  0.49609  0.20714  0.13166  1.0000
  H   H205      1.0  0.48515  0.24665  0.11500  1.0000
  Fe  Fe35      1.0  0.62628  0.35132  0.45714  1.0000
  C   C194      1.0  0.55929  0.38979  0.02490  1.0000
  C   C195      1.0  0.57918  0.38685  0.04617  1.0000
  C   C196      1.0  0.60002  0.39271  0.02936  1.0000
  H   H206      1.0  0.50653  0.31110  0.26455  1.0000
  H   H207      1.0  0.54310  0.38548  0.03731  1.0000
  C   C197      1.0  0.60106  0.06347  0.02915  1.0000
  C   C198      1.0  0.40972  0.44413  0.17380  1.0000
  C   C199      1.0  0.41499  0.42316  0.19076  1.0000
  C   C200      1.0  0.43569  0.41178  0.18302  1.0000
  C   C201      1.0  0.45148  0.42117  0.15796  1.0000
  C   C202      1.0  0.44614  0.44210  0.14088  1.0000
  C   C203      1.0  0.42549  0.45352  0.14872  1.0000
  H   H208      1.0  0.40299  0.41566  0.21017  1.0000
  H   H209      1.0  0.43941  0.39573  0.19637  1.0000
  H   H210      1.0  0.45812  0.44955  0.12136  1.0000
  H   H211      1.0  0.42181  0.46960  0.13542  1.0000
  C   C204      1.0  0.42623  0.02190  0.18439  1.0000
  C   C205      1.0  0.41293  0.04155  0.18185  1.0000
  C   C206      1.0  0.42328  0.06318  0.18129  1.0000
  C   C207      1.0  0.44706  0.06559  0.18298  1.0000
  C   C208      1.0  0.46033  0.04594  0.18618  1.0000
  C   C209      1.0  0.44998  0.02433  0.18699  1.0000
  H   H212      1.0  0.39466  0.04014  0.18013  1.0000
  H   H213      1.0  0.41276  0.07819  0.17910  1.0000
  H   H214      1.0  0.47860  0.04740  0.18777  1.0000
  C   C210      1.0  0.48619  0.07205  0.08908  1.0000
  C   C211      1.0  0.64094  0.13505  0.35889  1.0000
  H   H215      1.0  0.41694  0.45672  0.26536  1.0000
  H   H216      1.0  0.62032  0.10011  0.26541  1.0000
  N   N16       1.0  0.50711  0.27588  0.25005  1.0000
  C   C212      1.0  0.62693  0.15371  0.36603  1.0000
  H   H217      1.0  0.45806  0.01347  0.09856  1.0000
  C   C213      1.0  0.46260  0.06983  0.08789  1.0000
  C   C214      1.0  0.42806  0.04686  0.08772  1.0000
  H   H218      1.0  0.51806  0.05454  0.09529  1.0000
  C   C215      1.0  0.58788  0.40560  0.42393  1.0000
  C   C216      1.0  0.50588  0.23517  0.25232  1.0000
  C   C217      1.0  0.61169  0.16089  0.33814  1.0000
  H   H219      1.0  0.59691  0.11507  0.01380  1.0000
  C   C218      1.0  0.44638  0.46670  0.23387  1.0000
  H   H220      1.0  0.60837  0.12423  0.24270  1.0000
  H   H221      1.0  0.46054  0.00936  0.18923  1.0000
  N   N17       1.0  0.56881  0.31597  0.06567  1.0000
  C   C219      1.0  0.57071  0.33011  0.03516  1.0000
  C   C220      1.0  0.54852  0.30586  0.07365  1.0000
  H   H222      1.0  0.59810  0.15438  0.28241  1.0000
  C   C221      1.0  0.52951  0.30974  0.05064  1.0000
  H   H223      1.0  0.42179  0.03161  0.10286  1.0000
  C   C222      1.0  0.49972  0.05286  0.09394  1.0000
  H   H224      1.0  0.59019  0.32779  0.10998  1.0000
  C   C223      1.0  0.62288  0.41997  0.45268  1.0000
  H   H225      1.0  0.54679  0.29501  0.09827  1.0000
  H   H226      1.0  0.59487  0.40926  0.39606  1.0000
  H   H227      1.0  0.65006  0.10900  0.31868  1.0000
  C   C224      1.0  0.58425  0.07409  0.05182  1.0000
  S   S75       1.0  0.41443  0.99393  0.18357  1.0000
  H   H228      1.0  0.53018  0.29594  0.28350  1.0000
  H   H229      1.0  0.58654  0.33884  0.02973  1.0000
  H   H230      1.0  0.53203  0.25548  0.27781  1.0000
  H   H231      1.0  0.51649  0.32793  0.00228  1.0000
  H   H232      1.0  0.51336  0.30202  0.05752  1.0000
  C   C225      1.0  0.48611  0.23529  0.23045  1.0000
  H   H233      1.0  0.59972  0.22899  0.47174  1.0000
  C   C226      1.0  0.55203  0.33441  0.01163  1.0000
  H   H234      1.0  0.63883  0.12087  0.24378  1.0000
  C   C227      1.0  0.47695  0.25588  0.21842  1.0000
  H   H235      1.0  0.52922  0.30226  0.23339  1.0000
  C   C228      1.0  0.46589  0.02998  0.09557  1.0000
  N   N18       1.0  0.62431  0.13081  0.29667  1.0000
  C   C229      1.0  0.48956  0.03166  0.09742  1.0000
  C   C230      1.0  0.51883  0.29722  0.25827  1.0000
  N   N19       1.0  0.45275  0.04897  0.09113  1.0000
  C   C231      1.0  0.61057  0.14917  0.30340  1.0000
  S   S76       1.0  0.64606  0.14463  0.46891  1.0000
  H   H236      1.0  0.41938  0.06175  0.10085  1.0000
  H   H237      1.0  0.55761  0.39055  0.40030  1.0000
  H   H238      1.0  0.47843  0.21939  0.22163  1.0000
  N   N20       1.0  0.60018  0.41014  0.45617  1.0000
  Fe  Fe36      1.0  0.61286  0.12587  0.47161  1.0000
  C   C232      1.0  0.62300  0.11849  0.26030  1.0000
  H   H239      1.0  0.61555  0.39052  0.04542  1.0000
  H   H240      1.0  0.60421  0.31073  0.07426  1.0000
  C   C233      1.0  0.53128  0.32425  0.01962  1.0000
  C   C234      1.0  0.48783  0.27614  0.22832  1.0000
  H   H241      1.0  0.49993  0.01669  0.10180  1.0000
  H   H242      1.0  0.54210  0.38036  0.46383  1.0000
  C   C235      1.0  0.51628  0.25575  0.26182  1.0000
  H   H243      1.0  0.51361  0.21915  0.26036  1.0000
  C   C236      1.0  0.58835  0.31272  0.09098  1.0000
  H   H244      1.0  0.61753  0.05988  0.04142  1.0000
  C   C237      1.0  0.56681  0.39490  0.42616  1.0000
  H   H245      1.0  0.45332  0.44964  0.23219  1.0000
  C   C238      1.0  0.42586  0.47083  0.25270  1.0000
  H   H246      1.0  0.62726  0.16213  0.39362  1.0000
  C   C239      1.0  0.63943  0.12376  0.32378  1.0000
  C   C240      1.0  0.45718  0.48443  0.21528  1.0000
  H   H247      1.0  0.63491  0.40682  0.44200  1.0000
  H   H248      1.0  0.65246  0.12903  0.38081  1.0000
  C   C241      1.0  0.55821  0.38906  0.46173  1.0000
  H   H249      1.0  0.62933  0.42645  0.48045  1.0000
  H   H250      1.0  0.47263  0.48116  0.19932  1.0000
  H   H251      1.0  0.40754  0.99284  0.26941  1.0000
  S   S77       1.0  0.62904  0.09282  0.48886  1.0000
  H   H252      1.0  0.42835  0.99473  0.30711  1.0000
  C   C242      1.0  0.60105  0.40127  0.99187  1.0000
  H   H253      1.0  0.61724  0.40550  0.97943  1.0000
  S   S78       1.0  0.59117  0.44660  0.83018  1.0000
  N   N21       1.0  0.60389  0.36769  0.77420  1.0000
  S   S79       1.0  0.63721  0.41893  0.85339  1.0000
  Fe  Fe37      1.0  0.62358  0.43575  0.80057  1.0000
  S   S80       1.0  0.63250  0.41410  0.74789  1.0000
  Fe  Fe38      1.0  0.60645  0.43224  0.88423  1.0000
  S   S81       1.0  0.58151  0.41210  0.92139  1.0000
  S   S82       1.0  0.64139  0.46896  0.81255  1.0000
  S   S83       1.0  0.62401  0.46456  0.90086  1.0000
  Fe  Fe39      1.0  0.62144  0.03357  0.90098  1.0000
  C   C243      1.0  0.60966  0.09539  0.88330  1.0000
  S   S84       1.0  0.61933  0.04582  0.96305  1.0000
  Fe  Fe40      1.0  0.62247  0.04467  0.81490  1.0000
  C   C244      1.0  0.57700  0.99508  0.94579  1.0000
  S   S85       1.0  0.62503  0.07544  0.77597  1.0000
  C   C245      1.0  0.61687  0.10424  0.94944  1.0000
  H   H254      1.0  0.58056  0.37844  0.73134  1.0000
  S   S86       1.0  0.59447  0.03676  0.85637  1.0000
  C   C246      1.0  0.61881  0.25114  0.50878  1.0000
  H   H255      1.0  0.63607  0.36387  0.74820  1.0000
  C   C247      1.0  0.62344  0.21003  0.50600  1.0000
  Fe  Fe41      1.0  0.61590  0.35709  0.54296  1.0000
  C   C248      1.0  0.57344  0.19078  0.54546  1.0000
  S   S87       1.0  0.59663  0.38006  0.58492  1.0000
  H   H256      1.0  0.62062  0.33772  0.75513  1.0000
  C   C249      1.0  0.61901  0.35586  0.74747  1.0000
  H   H257      1.0  0.54486  0.39968  0.97085  1.0000
  Fe  Fe42      1.0  0.62501  0.10452  0.55011  1.0000
  C   C250      1.0  0.59186  0.25336  0.59739  1.0000
  S   S88       1.0  0.61402  0.07839  0.59451  1.0000
  H   H258      1.0  0.58100  0.25647  0.62266  1.0000
  C   C251      1.0  0.58465  0.37830  0.76146  1.0000
  Fe  Fe43      1.0  0.60970  0.47871  0.84603  1.0000
  S   S89       1.0  0.60602  0.13614  0.53286  1.0000
  H   H259      1.0  0.60999  0.25323  0.60617  1.0000
  S   S90       1.0  0.62829  0.99653  0.88938  1.0000
  C   C252      1.0  0.60935  0.36813  0.81207  1.0000
  H   H260      1.0  0.63509  0.10977  0.72094  1.0000
  Fe  Fe44      1.0  0.65410  0.45233  0.86591  1.0000
  H   H261      1.0  0.56414  0.12051  0.92523  1.0000
  S   S91       1.0  0.64969  0.18628  0.55719  1.0000
  C   C253      1.0  0.62140  0.07605  0.72559  1.0000
  C   C254      1.0  0.62812  0.09547  0.70548  1.0000
  C   C255      1.0  0.62598  0.09654  0.66546  1.0000
  C   C256      1.0  0.61676  0.07829  0.64505  1.0000
  C   C257      1.0  0.60991  0.05894  0.66522  1.0000
  C   C258      1.0  0.61235  0.05773  0.70518  1.0000
  H   H262      1.0  0.56448  0.38916  0.52236  1.0000
  H   H263      1.0  0.63132  0.11153  0.65040  1.0000
  H   H264      1.0  0.60273  0.04474  0.64976  1.0000
  H   H265      1.0  0.60705  0.04270  0.72013  1.0000
  H   H266      1.0  0.60770  0.21221  0.61436  1.0000
  Fe  Fe45      1.0  0.60173  0.99972  0.84330  1.0000
  H   H267      1.0  0.57196  0.05820  0.94596  1.0000
  H   H268      1.0  0.59035  0.42364  0.70501  1.0000
  C   C259      1.0  0.63605  0.25234  0.53612  1.0000
  H   H269      1.0  0.56472  0.39882  0.84590  1.0000
  C   C260      1.0  0.59496  0.21201  0.59202  1.0000
  C   C261      1.0  0.62262  0.40660  0.70143  1.0000
  C   C262      1.0  0.63642  0.39258  0.67845  1.0000
  C   C263      1.0  0.62881  0.38449  0.64275  1.0000
  C   C264      1.0  0.60724  0.39039  0.62936  1.0000
  C   C265      1.0  0.59351  0.40466  0.65208  1.0000
  C   C266      1.0  0.60115  0.41279  0.68785  1.0000
  C   C267      1.0  0.57009  0.23152  0.55015  1.0000
  H   H270      1.0  0.63965  0.37364  0.62562  1.0000
  H   H271      1.0  0.55537  0.39858  0.77672  1.0000
  S   S92       1.0  0.64386  0.37003  0.50542  1.0000
  C   C268      1.0  0.56383  0.21103  0.53277  1.0000
  S   S93       1.0  0.60193  0.27504  0.49836  1.0000
  C   C269      1.0  0.58108  0.11345  0.92242  1.0000
  C   C270      1.0  0.64619  0.23233  0.54963  1.0000
  C   C271      1.0  0.57028  0.38967  0.78698  1.0000
  H   H272      1.0  0.56921  0.17483  0.53159  1.0000
  Fe  Fe46      1.0  0.61777  0.30972  0.50535  1.0000
  C   C272      1.0  0.57554  0.38985  0.82574  1.0000
  H   H273      1.0  0.62495  0.36035  0.82199  1.0000
  S   S94       1.0  0.63378  0.32464  0.55783  1.0000
  H   H274      1.0  0.57643  0.10452  0.86295  1.0000
  C   C273      1.0  0.63954  0.21111  0.53522  1.0000
  Fe  Fe47      1.0  0.64033  0.15254  0.53066  1.0000
  C   C274      1.0  0.58120  0.40371  0.97028  1.0000
  N   N22       1.0  0.58567  0.23182  0.57910  1.0000
  N   N23       1.0  0.59549  0.11312  0.95303  1.0000
  H   H275      1.0  0.64071  0.26858  0.54832  1.0000
  H   H276      1.0  0.58988  0.26777  0.57735  1.0000
  H   H277      1.0  0.61828  0.19374  0.49463  1.0000
  H   H278      1.0  0.59714  0.17572  0.58487  1.0000
  S   S95       1.0  0.62794  0.00823  0.79829  1.0000
  H   H279      1.0  0.57684  0.40946  0.64195  1.0000
  H   H280      1.0  0.56311  0.24728  0.53932  1.0000
  C   C275      1.0  0.58790  0.10450  0.88716  1.0000
  C   C276      1.0  0.59517  0.37899  0.83842  1.0000
  H   H281      1.0  0.59964  0.37951  0.86843  1.0000
  C   C277      1.0  0.58904  0.19124  0.57540  1.0000
  H   H282      1.0  0.61277  0.35688  0.71761  1.0000
  S   S96       1.0  0.59698  0.34100  0.49358  1.0000
  H   H283      1.0  0.55352  0.34616  0.98814  1.0000
  C   C278      1.0  0.57546  0.06243  0.97541  1.0000
  H   H284      1.0  0.61513  0.08833  0.85614  1.0000
  C   C279      1.0  0.57073  0.39398  0.49451  1.0000
  H   H285      1.0  0.60178  0.40752  0.51680  1.0000
  Fe  Fe48      1.0  0.65404  0.00829  0.84594  1.0000
  S   S97       1.0  0.64909  0.04488  0.86110  1.0000
  H   H286      1.0  0.57601  0.00432  0.91838  1.0000
  C   C280      1.0  0.56036  0.39786  0.98712  1.0000
  H   H287      1.0  0.62817  0.10349  0.97383  1.0000
  H   H288      1.0  0.56570  0.00361  0.96678  1.0000
  C   C281      1.0  0.62424  0.09521  0.91462  1.0000
  H   H289      1.0  0.64097  0.08759  0.91229  1.0000
  H   H290      1.0  0.65438  0.01851  0.64361  1.0000
  H   H291      1.0  0.54233  0.07706  0.98562  1.0000
  H   H292      1.0  0.59460  0.99651  0.95708  1.0000
  H   H293      1.0  0.55209  0.21092  0.50895  1.0000
  H   H294      1.0  0.65312  0.38776  0.68846  1.0000
  C   C282      1.0  0.61297  0.23000  0.49305  1.0000
  C   C283      1.0  0.59189  0.40442  0.49118  1.0000
  C   C284      1.0  0.58840  0.12341  0.98929  1.0000
  H   H295      1.0  0.59260  0.14173  0.98974  1.0000
  Fe  Fe49      1.0  0.35929  0.93045  0.20641  1.0000
  S   S98       1.0  0.35340  0.96747  0.21919  1.0000
  S   S99       1.0  0.36093  0.90069  0.24791  1.0000
  Fe  Fe50      1.0  0.36186  0.93813  0.11916  1.0000
  H   H296      1.0  0.41522  0.92278  0.35762  1.0000
  S   S100      1.0  0.36181  0.92276  0.05878  1.0000
  C   C285      1.0  0.38009  0.90534  0.99224  1.0000
  C   C286      1.0  0.41655  0.92944  0.32896  1.0000
  S   S101      1.0  0.38802  0.93683  0.16555  1.0000
  S   S102      1.0  0.33212  0.65084  0.46523  1.0000
  Fe  Fe51      1.0  0.36756  0.53319  0.11452  1.0000
  H   H297      1.0  0.40665  0.65035  0.35098  1.0000
  S   S103      1.0  0.37619  0.54014  0.05172  1.0000
  Fe  Fe52      1.0  0.36936  0.54197  0.20147  1.0000
  Fe  Fe53      1.0  0.38079  0.97421  0.17534  1.0000
  S   S104      1.0  0.38610  0.56245  0.24964  1.0000
  C   C287      1.0  0.36533  0.72095  0.47460  1.0000
  C   C288      1.0  0.41510  0.92371  0.26094  1.0000
  S   S105      1.0  0.39237  0.52312  0.16036  1.0000
  S   S106      1.0  0.34648  0.55472  0.15457  1.0000
  S   S107      1.0  0.38202  0.69616  0.47675  1.0000
  Fe  Fe54      1.0  0.35004  0.61714  0.45867  1.0000
  S   S108      1.0  0.34034  0.59661  0.40525  1.0000
  Fe  Fe55      1.0  0.35468  0.86723  0.47118  1.0000
  C   C289      1.0  0.41426  0.91493  0.29765  1.0000
  S   S109      1.0  0.36460  0.89533  0.42955  1.0000
  H   H298      1.0  0.35433  0.58410  0.07494  1.0000
  C   C290      1.0  0.33950  0.76126  0.47439  1.0000
  C   C291      1.0  0.42360  0.98548  0.28061  1.0000
  H   H299      1.0  0.41098  0.89700  0.30180  1.0000
  C   C292      1.0  0.37348  0.57040  0.29392  1.0000
  C   C293      1.0  0.35047  0.56689  0.30135  1.0000
  C   C294      1.0  0.34090  0.57441  0.33606  1.0000
  C   C295      1.0  0.35412  0.58554  0.36388  1.0000
  C   C296      1.0  0.37727  0.58855  0.35690  1.0000
  C   C297      1.0  0.38684  0.58111  0.32205  1.0000
  H   H300      1.0  0.33994  0.55862  0.28016  1.0000
  S   S110      1.0  0.33347  0.92865  0.15898  1.0000
  H   H301      1.0  0.38773  0.59688  0.37809  1.0000
  H   H302      1.0  0.40471  0.58376  0.31678  1.0000
  C   C298      1.0  0.36001  0.89978  0.29851  1.0000
  C   C299      1.0  0.36101  0.91939  0.32112  1.0000
  C   C300      1.0  0.36245  0.91766  0.36112  1.0000
  C   C301      1.0  0.36224  0.89639  0.37909  1.0000
  C   C302      1.0  0.36045  0.87683  0.35656  1.0000
  C   C303      1.0  0.35958  0.87855  0.31651  1.0000
  H   H303      1.0  0.36140  0.93583  0.30771  1.0000
  H   H304      1.0  0.42104  0.96387  0.34753  1.0000
  C   C304      1.0  0.37232  0.64167  0.33507  1.0000
  H   H305      1.0  0.42257  0.60914  0.03297  1.0000
  H   H306      1.0  0.36030  0.86036  0.36991  1.0000
  C   C305      1.0  0.39227  0.56014  0.02515  1.0000
  C   C306      1.0  0.40287  0.57885  0.04213  1.0000
  S   S111      1.0  0.34541  0.50222  0.12232  1.0000
  C   C307      1.0  0.41451  0.59471  0.01947  1.0000
  H   H307      1.0  0.40206  0.58116  0.07269  1.0000
  H   H308      1.0  0.33343  0.70386  0.48170  1.0000
  H   H309      1.0  0.42299  0.85021  0.02316  1.0000
  C   C308      1.0  0.40681  0.91045  0.04375  1.0000
  C   C309      1.0  0.38460  0.91232  0.02999  1.0000
  H   H310      1.0  0.33382  0.54739  0.01755  1.0000
  C   C310      1.0  0.34290  0.66093  0.36838  1.0000
  H   H311      1.0  0.41059  0.91567  0.07266  1.0000
  H   H312      1.0  0.35885  0.86326  0.29932  1.0000
  H   H313      1.0  0.37777  0.62923  0.31405  1.0000
  C   C311      1.0  0.32888  0.74011  0.47768  1.0000
  H   H314      1.0  0.44123  0.90017  0.03129  1.0000
  C   C312      1.0  0.41970  0.95266  0.32301  1.0000
  H   H315      1.0  0.41901  0.95370  0.22739  1.0000
  H   H316      1.0  0.39701  0.49256  0.30422  1.0000
  H   H317      1.0  0.45537  0.82513  0.00738  1.0000
  C   C313      1.0  0.42417  0.90165  0.02014  1.0000
  C   C314      1.0  0.38876  0.65365  0.35572  1.0000
  H   H318      1.0  0.39445  0.67900  0.39941  1.0000
  C   C315      1.0  0.41848  0.94696  0.25601  1.0000
  H   H319      1.0  0.33496  0.60489  0.05523  1.0000
  C   C316      1.0  0.38194  0.66969  0.38282  1.0000
  S   S112      1.0  0.34788  0.51171  0.21375  1.0000
  H   H320      1.0  0.37139  0.77844  0.46809  1.0000
  S   S113      1.0  0.35574  0.97564  0.12661  1.0000
  Fe  Fe56      1.0  0.32871  0.96587  0.16938  1.0000
  C   C317      1.0  0.34089  0.58703  0.05324  1.0000
  N   N24       1.0  0.42081  0.96109  0.28683  1.0000
  C   C318      1.0  0.44769  0.50614  0.21652  1.0000
  H   H321      1.0  0.36381  0.93291  0.37827  1.0000
  H   H322      1.0  0.41249  0.91263  0.23649  1.0000
  H   H323      1.0  0.42003  0.52667  0.23690  1.0000
  C   C319      1.0  0.42162  0.83803  0.99994  1.0000
  C   C320      1.0  0.39498  0.49579  0.27331  1.0000
  Fe  Fe57      1.0  0.36964  0.49336  0.17015  1.0000
  C   C321      1.0  0.35889  0.67359  0.38887  1.0000
  C   C322      1.0  0.42736  0.50976  0.23624  1.0000
  C   C323      1.0  0.34176  0.72002  0.47832  1.0000
  H   H324      1.0  0.45580  0.52002  0.20183  1.0000
  H   H325      1.0  0.34869  0.58459  0.02466  1.0000
  H   H326      1.0  0.43716  0.98854  0.25927  1.0000
  S   S114      1.0  0.38346  0.63024  0.48083  1.0000
  H   H327      1.0  0.32501  0.66353  0.37416  1.0000
  N   N25       1.0  0.41658  0.49212  0.25356  1.0000
  H   H328      1.0  0.35346  0.68602  0.40996  1.0000
  H   H329      1.0  0.38856  0.51343  0.26990  1.0000
  C   C324      1.0  0.37594  0.74206  0.47038  1.0000
  H   H330      1.0  0.39418  0.74286  0.46740  1.0000
  C   C325      1.0  0.36309  0.76222  0.47093  1.0000
  C   C326      1.0  0.33250  0.63229  0.32087  1.0000
  Fe  Fe58      1.0  0.32561  0.52321  0.16504  1.0000
  N   N26       1.0  0.34972  0.64519  0.34194  1.0000
  H   H331      1.0  0.34023  0.61930  0.30170  1.0000
  C   C327      1.0  0.43990  0.82383  0.99078  1.0000
  S   S115      1.0  0.37172  0.83473  0.49037  1.0000
  Fe  Fe59      1.0  0.45740  0.82421  0.84903  1.0000
  S   S116      1.0  0.42566  0.84532  0.85800  1.0000
  S   S117      1.0  0.44942  0.78601  0.85583  1.0000
  Fe  Fe60      1.0  0.48621  0.86789  0.83683  1.0000
  S   S118      1.0  0.45613  0.89087  0.84392  1.0000
  S   S119      1.0  0.52232  0.88129  0.82600  1.0000
  Fe  Fe61      1.0  0.44677  0.86902  0.89386  1.0000
  S   S120      1.0  0.44223  0.88260  0.95496  1.0000
  Fe  Fe62      1.0  0.43747  0.86520  0.80723  1.0000
  S   S121      1.0  0.41306  0.87792  0.76120  1.0000
  S   S122      1.0  0.47787  0.84675  0.88828  1.0000
  S   S123      1.0  0.46821  0.84342  0.79657  1.0000
  Fe  Fe63      1.0  0.47191  0.64955  0.84389  1.0000
  S   S124      1.0  0.43466  0.64601  0.85373  1.0000
  S   S125      1.0  0.48904  0.68453  0.83935  1.0000
  Fe  Fe64      1.0  0.47831  0.59718  0.83414  1.0000
  S   S126      1.0  0.44055  0.59129  0.84202  1.0000
  S   S127      1.0  0.49817  0.56374  0.82374  1.0000
  Fe  Fe65      1.0  0.43533  0.62163  0.80374  1.0000
  S   S128      1.0  0.40836  0.63069  0.75888  1.0000
  Fe  Fe66      1.0  0.44326  0.61604  0.89086  1.0000
  S   S129      1.0  0.43073  0.61287  0.95267  1.0000
  S   S130      1.0  0.47258  0.62595  0.79271  1.0000
  S   S131      1.0  0.48104  0.62111  0.88431  1.0000
  H   H332      1.0  0.45211  0.77780  0.93912  1.0000
  Fe  Fe67      1.0  0.37108  0.62119  0.53977  1.0000
  H   H333      1.0  0.49848  0.69600  0.75486  1.0000
  S   S132      1.0  0.39308  0.60327  0.58422  1.0000
  C   C328      1.0  0.51409  0.55533  0.93215  1.0000
  C   C329      1.0  0.48280  0.57897  0.95231  1.0000
  S   S133      1.0  0.35475  0.65489  0.55096  1.0000
  S   S134      1.0  0.33911  0.60507  0.51675  1.0000
  Fe  Fe68      1.0  0.36448  0.84639  0.55084  1.0000
  H   H334      1.0  0.40591  0.57115  0.93205  1.0000
  S   S135      1.0  0.39115  0.83664  0.59573  1.0000
  H   H335      1.0  0.52343  0.93882  0.93157  1.0000
  C   C330      1.0  0.48424  0.68600  0.74257  1.0000
  H   H336      1.0  0.47435  0.72965  0.75395  1.0000
  C   C331      1.0  0.50597  0.57409  0.95246  1.0000
  S   S136      1.0  0.35024  0.87994  0.53163  1.0000
  H   H337      1.0  0.49273  0.90809  0.77590  1.0000
  H   H338      1.0  0.33815  0.55439  0.61488  1.0000
  C   C332      1.0  0.54128  0.94324  0.93246  1.0000
  H   H339      1.0  0.50533  0.52749  0.89537  1.0000
  H   H340      1.0  0.59339  0.92032  0.91675  1.0000
  H   H341      1.0  0.45023  0.56949  0.93034  1.0000
  H   H342      1.0  0.53507  0.97851  0.94402  1.0000
  C   C333      1.0  0.58667  0.95533  0.93167  1.0000
  S   S137      1.0  0.33005  0.83004  0.55312  1.0000
  H   H343      1.0  0.43816  0.91973  0.77425  1.0000
  C   C334      1.0  0.39471  0.77647  0.56582  1.0000
  C   C335      1.0  0.52550  0.55086  0.83084  1.0000
  C   C336      1.0  0.52842  0.52772  0.82160  1.0000
  C   C337      1.0  0.54940  0.51648  0.82753  1.0000
  C   C338      1.0  0.56801  0.52828  0.84248  1.0000
  C   C339      1.0  0.56506  0.55142  0.85188  1.0000
  C   C340      1.0  0.54400  0.56260  0.84633  1.0000
  H   H344      1.0  0.51434  0.51836  0.80960  1.0000
  C   C341      1.0  0.45783  0.79425  0.95145  1.0000
  H   H345      1.0  0.57924  0.56086  0.86332  1.0000
  H   H346      1.0  0.54216  0.58036  0.85365  1.0000
  C   C342      1.0  0.40672  0.62421  0.70930  1.0000
  C   C343      1.0  0.39302  0.63788  0.68583  1.0000
  C   C344      1.0  0.38938  0.63224  0.64714  1.0000
  C   C345      1.0  0.39920  0.61263  0.63150  1.0000
  C   C346      1.0  0.41328  0.59923  0.65476  1.0000
  C   C347      1.0  0.41714  0.60502  0.69335  1.0000
  H   H347      1.0  0.38483  0.65273  0.69782  1.0000
  H   H348      1.0  0.37849  0.64270  0.62972  1.0000
  H   H349      1.0  0.42104  0.58407  0.64300  1.0000
  H   H350      1.0  0.42765  0.59427  0.71097  1.0000
  C   C348      1.0  0.48551  0.87133  0.70228  1.0000
  H   H351      1.0  0.44591  0.66342  0.75626  1.0000
  C   C349      1.0  0.37126  0.77906  0.57013  1.0000
  C   C350      1.0  0.53458  0.90893  0.83055  1.0000
  C   C351      1.0  0.55811  0.91152  0.82497  1.0000
  C   C352      1.0  0.56863  0.93298  0.82826  1.0000
  C   C353      1.0  0.55571  0.95231  0.83691  1.0000
  C   C354      1.0  0.53213  0.94976  0.84200  1.0000
  C   C355      1.0  0.52166  0.92826  0.83918  1.0000
  H   H352      1.0  0.56834  0.89677  0.81812  1.0000
  H   H353      1.0  0.58673  0.93454  0.82412  1.0000
  H   H354      1.0  0.52190  0.96453  0.84867  1.0000
  H   H355      1.0  0.50359  0.92669  0.84371  1.0000
  C   C356      1.0  0.40652  0.86551  0.71602  1.0000
  C   C357      1.0  0.41765  0.84610  0.70232  1.0000
  C   C358      1.0  0.41268  0.83753  0.66556  1.0000
  C   C359      1.0  0.39640  0.84808  0.64210  1.0000
  C   C360      1.0  0.38521  0.86742  0.65589  1.0000
  C   C361      1.0  0.39032  0.87610  0.69252  1.0000
  H   H356      1.0  0.43018  0.83777  0.71994  1.0000
  H   H357      1.0  0.42147  0.82258  0.65526  1.0000
  H   H358      1.0  0.37269  0.87578  0.63826  1.0000
  H   H359      1.0  0.38161  0.89114  0.70271  1.0000
  C   C362      1.0  0.46126  0.75804  0.85221  1.0000
  C   C363      1.0  0.48351  0.75385  0.84010  1.0000
  C   C364      1.0  0.49178  0.73134  0.83707  1.0000
  C   C365      1.0  0.47797  0.71262  0.84584  1.0000
  C   C366      1.0  0.45575  0.71683  0.85814  1.0000
  C   C367      1.0  0.44753  0.73934  0.86138  1.0000
  H   H360      1.0  0.49438  0.76794  0.83305  1.0000
  H   H361      1.0  0.50902  0.72839  0.82769  1.0000
  H   H362      1.0  0.44487  0.70272  0.86503  1.0000
  H   H363      1.0  0.43030  0.74224  0.87081  1.0000
  H   H364      1.0  0.51184  0.87577  0.74451  1.0000
  C   C368      1.0  0.35155  0.59237  0.66763  1.0000
  H   H365      1.0  0.60442  0.95995  0.93040  1.0000
  H   H366      1.0  0.40562  0.79127  0.56654  1.0000
  N   N27       1.0  0.34235  0.58865  0.63233  1.0000
  C   C369      1.0  0.38946  0.73606  0.55966  1.0000
  C   C370      1.0  0.54798  0.96564  0.93950  1.0000
  S   S138      1.0  0.56799  0.97982  0.84337  1.0000
  C   C371      1.0  0.39750  0.89668  0.96852  1.0000
  C   C372      1.0  0.40532  0.57333  0.96264  1.0000
  H   H367      1.0  0.39624  0.71917  0.55442  1.0000
  N   N28       1.0  0.35725  0.76065  0.56852  1.0000
  C   C373      1.0  0.32569  0.60266  0.61873  1.0000
  H   H368      1.0  0.46630  0.51511  0.88677  1.0000
  C   C374      1.0  0.36608  0.73930  0.56405  1.0000
  H   H369      1.0  0.34966  0.57293  0.57887  1.0000
  C   C375      1.0  0.41969  0.89470  0.98240  1.0000
  N   N29       1.0  0.43843  0.80887  0.96090  1.0000
  C   C376      1.0  0.55770  0.92679  0.92456  1.0000
  C   C377      1.0  0.65260  0.50888  0.93952  1.0000
  H   H370      1.0  0.51763  0.58505  0.96779  1.0000
  H   H371      1.0  0.62292  0.52599  0.91724  1.0000
  H   H372      1.0  0.55265  0.90957  0.91748  1.0000
  H   H373      1.0  0.46869  0.80269  0.93002  1.0000
  H   H374      1.0  0.44317  0.53330  0.90031  1.0000
  C   C378      1.0  0.40095  0.82260  0.94649  1.0000
  H   H375      1.0  0.53213  0.55163  0.93118  1.0000
  C   C379      1.0  0.49575  0.88194  0.73349  1.0000
  Fe  Fe69      1.0  0.33650  0.82020  0.49223  1.0000
  H   H376      1.0  0.42192  0.75260  0.55615  1.0000
  H   H377      1.0  0.36438  0.79596  0.57445  1.0000
  H   H378      1.0  0.36737  0.56398  0.61674  1.0000
  H   H379      1.0  0.43764  0.74627  0.77378  1.0000
  H   H380      1.0  0.40477  0.72099  0.78582  1.0000
  H   H381      1.0  0.36492  0.58141  0.67833  1.0000
  C   C380      1.0  0.43918  0.72809  0.76927  1.0000
  C   C381      1.0  0.42079  0.71390  0.77625  1.0000
  H   H382      1.0  0.49360  0.85682  0.68876  1.0000
  C   C382      1.0  0.33272  0.76388  0.57296  1.0000
  C   C383      1.0  0.32803  0.62562  0.67575  1.0000
  C   C384      1.0  0.45995  0.71858  0.75816  1.0000
  C   C385      1.0  0.45257  0.92660  0.75754  1.0000
  H   H383      1.0  0.32690  0.77890  0.55662  1.0000
  N   N30       1.0  0.46233  0.69559  0.75430  1.0000
  C   C386      1.0  0.42325  0.69052  0.77141  1.0000
  H   H384      1.0  0.40913  0.67923  0.77681  1.0000
  C   C387      1.0  0.46463  0.87924  0.68901  1.0000
  C   C388      1.0  0.44420  0.68162  0.76001  1.0000
  H   H385      1.0  0.48549  0.68559  0.71106  1.0000
  H   H386      1.0  0.48646  0.66853  0.75368  1.0000
  C   C389      1.0  0.48482  0.90027  0.75120  1.0000
  C   C390      1.0  0.46808  0.56515  0.93131  1.0000
  H   H387      1.0  0.45619  0.87085  0.66530  1.0000
  C   C391      1.0  0.45425  0.89770  0.70728  1.0000
  N   N31       1.0  0.46437  0.90797  0.73793  1.0000
  C   C392      1.0  0.40381  0.75482  0.56029  1.0000
  H   H388      1.0  0.64434  0.50459  0.96608  1.0000
  H   H389      1.0  0.39372  0.89143  0.93962  1.0000
  H   H390      1.0  0.46399  0.93593  0.77735  1.0000
  H   H391      1.0  0.44577  0.93893  0.73662  1.0000
  S   S139      1.0  0.59530  0.51528  0.84956  1.0000
  H   H392      1.0  0.43765  0.90328  0.69761  1.0000
  H   H393      1.0  0.35243  0.61410  0.71737  1.0000
  N   N32       1.0  0.47614  0.54667  0.91177  1.0000
  C   C393      1.0  0.49882  0.54167  0.91196  1.0000
  C   C394      1.0  0.58055  0.93284  0.92407  1.0000
  C   C395      1.0  0.41587  0.59209  0.97961  1.0000
  H   H394      1.0  0.46821  0.79036  0.97702  1.0000
  H   H395      1.0  0.55126  0.49876  0.81997  1.0000
  N   N33       1.0  0.57046  0.97135  0.93965  1.0000
  H   H396      1.0  0.32847  0.76643  0.60346  1.0000
  C   C396      1.0  0.46062  0.53308  0.88835  1.0000
  H   H397      1.0  0.47624  0.59371  0.96750  1.0000
  H   H398      1.0  0.35503  0.72465  0.56249  1.0000
  C   C397      1.0  0.34454  0.61087  0.68988  1.0000
  H   H399      1.0  0.41846  0.79698  0.91414  1.0000
  C   C398      1.0  0.34961  0.56891  0.60974  1.0000
  H   H400      1.0  0.36301  0.90672  0.98118  1.0000
  H   H401      1.0  0.64090  0.53440  0.85523  1.0000
  H   H402      1.0  0.46010  0.54001  0.85899  1.0000
  C   C399      1.0  0.40209  0.83747  0.97750  1.0000
  C   C400      1.0  0.64041  0.52099  0.91210  1.0000
  H   H403      1.0  0.38609  0.82244  0.92823  1.0000
  C   C401      1.0  0.41938  0.80830  0.93858  1.0000
  C   C402      1.0  0.65050  0.52566  0.87715  1.0000
  H   H404      1.0  0.38534  0.54323  0.97175  1.0000
  H   H405      1.0  0.38815  0.84902  0.98359  1.0000
  C   C403      1.0  0.39357  0.55755  0.98528  1.0000
  Fe  Fe70      1.0  0.36472  0.66310  0.49104  1.0000
  S   S140      1.0  0.97990  0.13497  0.19288  1.0000
  S   S141      1.0  0.93962  0.38089  0.15666  1.0000
  Fe  Fe71      1.0  0.96631  0.32090  0.16584  1.0000
  S   S142      1.0  0.92902  0.32638  0.15658  1.0000
  N   N34       1.0  0.88555  0.25893  0.43509  1.0000
  Fe  Fe72      1.0  0.93913  0.35274  0.11338  1.0000
  S   S143      1.0  0.92614  0.35240  0.05163  1.0000
  Fe  Fe73      1.0  0.93275  0.35411  0.20089  1.0000
  S   S144      1.0  0.90568  0.36200  0.24598  1.0000
  S   S145      1.0  0.97650  0.34550  0.11988  1.0000
  S   S146      1.0  0.96983  0.34782  0.21225  1.0000
  Fe  Fe74      1.0  0.95676  0.14754  0.14663  1.0000
  S   S147      1.0  0.92590  0.12960  0.16929  1.0000
  S   S148      1.0  0.94867  0.18466  0.13037  1.0000
  C   C404      1.0  0.91852  0.19204  0.21961  1.0000
  S   S149      1.0  0.95755  0.08438  0.18159  1.0000
  Fe  Fe75      1.0  0.93679  0.09945  0.13355  1.0000
  S   S150      1.0  0.91358  0.07497  0.10037  1.0000
  Fe  Fe76      1.0  0.94915  0.11635  0.21481  1.0000
  S   S151      1.0  0.94387  0.12415  0.27833  1.0000
  S   S152      1.0  0.96594  0.11807  0.10751  1.0000
  H   H406      1.0  0.95324  0.37917  0.33058  1.0000
  Fe  Fe77      1.0  0.85591  0.12076  0.45391  1.0000
  S   S153      1.0  0.86505  0.10285  0.39789  1.0000
  S   S154      1.0  0.84427  0.15700  0.45575  1.0000
  C   C405      1.0  0.71819  0.11539  0.46934  1.0000
  C   C406      1.0  0.75678  0.14304  0.47718  1.0000
  S   S155      1.0  0.89416  0.33001  0.41914  1.0000
  H   H407      1.0  0.92682  0.22817  0.12661  1.0000
  H   H408      1.0  0.90164  0.22638  0.43615  1.0000
  H   H409      1.0  0.90876  0.09195  0.44092  1.0000
  C   C407      1.0  0.96321  0.41317  0.23874  1.0000
  C   C408      1.0  0.95427  0.29603  0.05892  1.0000
  C   C409      1.0  0.71568  0.13869  0.47559  1.0000
  C   C410      1.0  0.84041  0.06220  0.99918  1.0000
  H   H410      1.0  0.92194  0.26065  0.43609  1.0000
  S   S156      1.0  0.83337  0.32284  0.46432  1.0000
  S   S157      1.0  0.98248  0.28537  0.17153  1.0000
  N   N35       1.0  0.96989  0.27918  0.06486  1.0000
  C   C411      1.0  0.90679  0.27169  0.43267  1.0000
  C   C412      1.0  0.90959  0.07138  0.05025  1.0000
  C   C413      1.0  0.89840  0.05188  0.03652  1.0000
  H   H411      1.0  0.92517  0.10274  0.03398  1.0000
  H   H412      1.0  0.89292  0.03915  0.05648  1.0000
  C   C414      1.0  0.88624  0.11020  0.36408  1.0000
  C   C415      1.0  0.90353  0.12559  0.37269  1.0000
  C   C416      1.0  0.92086  0.12974  0.34596  1.0000
  C   C417      1.0  0.92097  0.11887  0.31009  1.0000
  C   C418      1.0  0.90347  0.10376  0.30124  1.0000
  C   C419      1.0  0.88634  0.09932  0.32824  1.0000
  H   H413      1.0  0.90377  0.13404  0.40014  1.0000
  H   H414      1.0  0.93435  0.14138  0.35321  1.0000
  H   H415      1.0  0.90333  0.09519  0.27389  1.0000
  H   H416      1.0  0.87310  0.08734  0.32127  1.0000
  C   C420      1.0  0.90279  0.35262  0.29393  1.0000
  C   C421      1.0  0.88443  0.36071  0.31582  1.0000
  C   C422      1.0  0.88157  0.35413  0.35411  1.0000
  C   C423      1.0  0.89708  0.33930  0.37111  1.0000
  C   C424      1.0  0.91555  0.33130  0.34928  1.0000
  C   C425      1.0  0.91844  0.33793  0.31100  1.0000
  H   H417      1.0  0.87222  0.37212  0.30304  1.0000
  H   H418      1.0  0.86729  0.36047  0.37039  1.0000
  H   H419      1.0  0.92771  0.31987  0.36207  1.0000
  H   H420      1.0  0.93269  0.33161  0.29467  1.0000
  C   C426      1.0  0.97212  0.25739  0.16225  1.0000
  H   H421      1.0  0.82138  0.03138  0.00623  1.0000
  C   C427      1.0  0.97652  0.18162  0.25952  1.0000
  C   C428      1.0  0.95797  0.21226  0.14469  1.0000
  C   C429      1.0  0.94351  0.23099  0.13856  1.0000
  C   C430      1.0  0.95039  0.25334  0.14763  1.0000
  H   H422      1.0  0.90280  0.22437  0.20860  1.0000
  H   H423      1.0  0.91856  0.43848  0.24812  1.0000
  H   H424      1.0  0.92440  0.06569  0.44738  1.0000
  C   C431      1.0  0.90309  0.39361  0.04338  1.0000
  C   C432      1.0  0.91143  0.37392  0.02579  1.0000
  C   C433      1.0  0.75929  0.11981  0.47002  1.0000
  H   H425      1.0  0.90565  0.39616  0.07363  1.0000
  H   H426      1.0  0.94681  0.04038  0.12195  1.0000
  N   N36       1.0  0.94181  0.41117  0.25331  1.0000
  C   C434      1.0  0.93833  0.39976  0.28655  1.0000
  C   C435      1.0  0.84486  0.25904  0.43919  1.0000
  C   C436      1.0  0.95634  0.38893  0.30504  1.0000
  C   C437      1.0  0.86547  0.22363  0.43874  1.0000
  H   H427      1.0  0.95798  0.06794  0.07296  1.0000
  C   C438      1.0  0.88577  0.23573  0.43617  1.0000
  H   H428      1.0  0.73949  0.37510  0.44598  1.0000
  H   H429      1.0  0.93905  0.26748  0.14253  1.0000
  H   H430      1.0  0.92615  0.42487  0.20349  1.0000
  C   C439      1.0  0.93186  0.29074  0.04928  1.0000
  S   S158      1.0  0.78034  0.16048  0.48661  1.0000
  H   H431      1.0  0.93705  0.23331  0.04748  1.0000
  S   S159      1.0  0.78653  0.36859  0.46578  1.0000
  H   H432      1.0  0.90780  0.28040  0.40474  1.0000
  H   H433      1.0  0.86541  0.28896  0.43472  1.0000
  H   H434      1.0  0.91948  0.30421  0.04522  1.0000
  H   H435      1.0  0.90464  0.48080  0.02234  1.0000
  H   H436      1.0  0.74046  0.31896  0.42145  1.0000
  C   C440      1.0  0.97052  0.05612  0.08370  1.0000
  H   H437      1.0  0.74202  0.08805  0.46059  1.0000
  H   H438      1.0  0.92271  0.44436  0.00485  1.0000
  Fe  Fe78      1.0  0.97680  0.37290  0.16504  1.0000
  H   H439      1.0  0.97633  0.24353  0.06482  1.0000
  H   H440      1.0  0.70375  0.36044  0.47429  1.0000
  H   H441      1.0  0.86576  0.20527  0.44100  1.0000
  H   H442      1.0  0.70262  0.28804  0.43120  1.0000
  C   C441      1.0  0.74002  0.10606  0.46569  1.0000
  C   C442      1.0  0.90773  0.07313  0.43954  1.0000
  C   C443      1.0  0.97816  0.39044  0.28990  1.0000
  H   H443      1.0  0.70080  0.31704  0.44854  1.0000
  H   H444      1.0  0.90732  0.41091  0.23524  1.0000
  C   C444      1.0  0.92558  0.26809  0.04506  1.0000
  C   C445      1.0  0.86546  0.27059  0.43599  1.0000
  H   H445      1.0  0.93580  0.24646  0.23266  1.0000
  H   H446      1.0  0.90412  0.06848  0.40936  1.0000
  H   H447      1.0  0.86688  0.05659  0.42045  1.0000
  H   H448      1.0  0.83609  0.04546  0.46395  1.0000
  Fe  Fe79      1.0  0.86753  0.33966  0.46424  1.0000
  C   C446      1.0  0.97947  0.21626  0.16027  1.0000
  H   H449      1.0  0.90737  0.28491  0.45545  1.0000
  C   C447      1.0  0.70564  0.29938  0.45603  1.0000
  H   H450      1.0  0.97580  0.01412  0.14882  1.0000
  H   H451      1.0  0.82903  0.26838  0.44128  1.0000
  C   C448      1.0  0.89407  0.04874  0.99721  1.0000
  H   H452      1.0  0.95896  0.31372  0.06178  1.0000
  C   C449      1.0  0.98037  0.02580  0.12644  1.0000
  C   C450      1.0  0.85224  0.05104  0.47544  1.0000
  C   C451      1.0  0.94176  0.25103  0.05019  1.0000
  C   C452      1.0  0.89095  0.40984  0.02198  1.0000
  N   N37       1.0  0.95590  0.19336  0.24691  1.0000
  C   C453      1.0  0.95527  0.21655  0.24669  1.0000
  C   C454      1.0  0.93795  0.18111  0.23324  1.0000
  C   C455      1.0  0.86976  0.05738  0.45098  1.0000
  C   C456      1.0  0.77504  0.29617  0.48834  1.0000
  C   C457      1.0  0.92254  0.42201  0.23414  1.0000
  C   C458      1.0  0.74013  0.36522  0.47180  1.0000
  H   H453      1.0  0.77603  0.11241  0.46815  1.0000
  H   H454      1.0  0.93867  0.16277  0.23237  1.0000
  C   C459      1.0  0.96414  0.04055  0.11149  1.0000
  H   H455      1.0  0.82917  0.22618  0.44421  1.0000
  C   C460      1.0  0.96400  0.25693  0.05998  1.0000
  H   H456      1.0  0.96987  0.22630  0.25593  1.0000
  S   S160      1.0  0.85363  0.37339  0.48440  1.0000
  H   H457      1.0  0.90820  0.26380  0.03793  1.0000
  C   C461      1.0  0.84493  0.23540  0.44067  1.0000
  C   C462      1.0  0.91664  0.08761  0.02400  1.0000
  H   H458      1.0  0.88431  0.42480  0.03613  1.0000
  C   C463      1.0  0.98168  0.40280  0.25673  1.0000
  H   H459      1.0  0.90458  0.18217  0.20809  1.0000
  C   C464      1.0  0.98650  0.23866  0.16875  1.0000
  H   H460      1.0  0.92137  0.39834  0.29827  1.0000
  H   H461      1.0  0.96610  0.42252  0.21271  1.0000
  C   C465      1.0  0.93604  0.22807  0.23352  1.0000
  C   C466      1.0  0.91757  0.21568  0.21987  1.0000
  H   H462      1.0  0.84840  0.06141  0.02702  1.0000
  H   H463      1.0  0.69417  0.29433  0.47959  1.0000
  H   H464      1.0  0.98458  0.07961  0.02556  1.0000
  H   H465      1.0  0.98852  0.17993  0.23530  1.0000
  N   N38       1.0  0.88988  0.06528  0.46527  1.0000
  S   S161      1.0  0.82507  0.10825  0.48544  1.0000
  N   N39       1.0  0.72955  0.29837  0.46756  1.0000
  H   H466      1.0  0.78091  0.31756  0.43982  1.0000
  H   H467      1.0  0.97257  0.16436  0.27025  1.0000
  H   H468      1.0  0.69891  0.14605  0.47814  1.0000
  C   C467      1.0  0.76847  0.30814  0.45601  1.0000
  C   C468      1.0  0.74551  0.30902  0.44593  1.0000
  Fe  Fe80      1.0  0.98654  0.10378  0.15651  1.0000
  H   H469      1.0  0.98489  0.19096  0.28321  1.0000
  H   H470      1.0  0.73290  0.17052  0.48406  1.0000
  S   S162      1.0  0.69445  0.09740  0.46854  1.0000
  C   C469      1.0  0.76122  0.36028  0.48858  1.0000
  C   C470      1.0  0.71989  0.35695  0.48777  1.0000
  Fe  Fe81      1.0  0.81994  0.35543  0.48892  1.0000
  C   C471      1.0  0.73494  0.15251  0.47899  1.0000
  C   C472      1.0  0.90913  0.47733  0.99293  1.0000
  Fe  Fe82      1.0  0.66169  0.11246  0.49046  1.0000
  Fe  Fe83      1.0  0.82795  0.46034  0.84492  1.0000
  S   S163      1.0  0.83429  0.42387  0.85928  1.0000
  C   C473      1.0  0.73586  0.28649  0.49923  1.0000
  Fe  Fe84      1.0  0.87990  0.46963  0.83395  1.0000
  S   S164      1.0  0.88853  0.43289  0.84583  1.0000
  Fe  Fe85      1.0  0.85829  0.42392  0.80907  1.0000
  S   S165      1.0  0.85276  0.39444  0.76698  1.0000
  Fe  Fe86      1.0  0.86402  0.43600  0.89455  1.0000
  S   S166      1.0  0.87250  0.42853  0.95718  1.0000
  S   S167      1.0  0.85128  0.46010  0.79367  1.0000
  S   S168      1.0  0.85608  0.47303  0.88377  1.0000
  S   S169      1.0  0.69094  0.45007  0.88854  1.0000
  C   C474      1.0  0.90956  0.48814  0.92687  1.0000
  S   S170      1.0  0.89570  0.02174  0.83348  1.0000
  Fe  Fe87      1.0  0.82985  0.02069  0.84893  1.0000
  S   S171      1.0  0.85010  0.05275  0.84016  1.0000
  S   S172      1.0  0.79192  0.02821  0.86176  1.0000
  Fe  Fe88      1.0  0.86827  0.03399  0.79345  1.0000
  S   S173      1.0  0.88139  0.05021  0.73841  1.0000
  Fe  Fe89      1.0  0.87585  0.03833  0.88106  1.0000
  S   S174      1.0  0.89337  0.06371  0.92169  1.0000
  H   H471      1.0  0.67764  0.47152  0.96395  1.0000
  S   S175      1.0  0.85481  0.00733  0.89282  1.0000
  H   H472      1.0  0.85293  0.29027  0.63750  1.0000
  H   H473      1.0  0.85159  0.31186  0.69763  1.0000
  H   H474      1.0  0.88159  0.00146  0.73305  1.0000
  H   H475      1.0  0.92138  0.42032  0.91720  1.0000
  C   C475      1.0  0.88928  0.33341  0.63629  1.0000
  S   S176      1.0  0.83334  0.14945  0.54705  1.0000
  C   C476      1.0  0.85907  0.30589  0.62338  1.0000
  H   H476      1.0  0.66169  0.05955  0.65278  1.0000
  H   H477      1.0  0.90329  0.36146  0.71789  1.0000
  Fe  Fe90      1.0  0.84496  0.11331  0.53981  1.0000
  S   S177      1.0  0.83524  0.08724  0.58527  1.0000
  S   S178      1.0  0.79201  0.47464  0.83341  1.0000
  Fe  Fe91      1.0  0.85936  0.36085  0.54447  1.0000
  N   N40       1.0  0.87204  0.32025  0.64975  1.0000
  S   S179      1.0  0.87593  0.38299  0.59050  1.0000
  H   H478      1.0  0.70840  0.47811  0.82567  1.0000
  H   H479      1.0  0.66254  0.99169  0.69656  1.0000
  C   C477      1.0  0.90113  0.34800  0.66074  1.0000
  H   H480      1.0  0.93785  0.41922  0.96008  1.0000
  S   S180      1.0  0.87592  0.32836  0.52413  1.0000
  S   S181      1.0  0.82490  0.34537  0.54984  1.0000
  C   C478      1.0  0.86948  0.21500  0.52903  1.0000
  S   S182      1.0  0.87686  0.12279  0.50771  1.0000
  H   H481      1.0  0.84648  0.11461  0.92793  1.0000
  N   N41       1.0  0.67740  0.04088  0.73993  1.0000
  H   H482      1.0  0.70420  0.05428  0.77348  1.0000
  C   C479      1.0  0.73178  0.11127  0.56043  1.0000
  H   H483      1.0  0.68472  0.03687  0.79924  1.0000
  C   C480      1.0  0.91738  0.99998  0.74362  1.0000
  H   H484      1.0  0.83708  0.19846  0.53253  1.0000
  H   H485      1.0  0.85815  0.09328  0.89646  1.0000
  H   H486      1.0  0.86955  0.30024  0.59876  1.0000
  C   C481      1.0  0.86581  0.32161  0.68724  1.0000
  C   C482      1.0  0.76274  0.13587  0.57297  1.0000
  C   C483      1.0  0.68623  0.48818  0.96099  1.0000
  H   H487      1.0  0.72316  0.27847  0.51686  1.0000
  Fe  Fe92      1.0  0.66087  0.33667  0.51760  1.0000
  C   C484      1.0  0.68605  0.04964  0.77629  1.0000
  C   C485      1.0  0.89581  0.38730  0.96488  1.0000
  C   C486      1.0  0.71783  0.00355  0.84111  1.0000
  C   C487      1.0  0.75870  0.28522  0.51009  1.0000
  C   C488      1.0  0.86768  0.06150  0.69726  1.0000
  C   C489      1.0  0.88033  0.07491  0.67199  1.0000
  C   C490      1.0  0.87056  0.08351  0.63823  1.0000
  C   C491      1.0  0.84806  0.07841  0.62887  1.0000
  C   C492      1.0  0.83543  0.06493  0.65404  1.0000
  C   C493      1.0  0.84508  0.05670  0.68817  1.0000
  H   H488      1.0  0.89783  0.07875  0.67867  1.0000
  H   H489      1.0  0.88054  0.09386  0.61934  1.0000
  H   H490      1.0  0.81804  0.06079  0.64714  1.0000
  H   H491      1.0  0.83511  0.04636  0.70711  1.0000
  C   C494      1.0  0.76362  0.01824  0.85260  1.0000
  C   C495      1.0  0.74503  0.03114  0.86609  1.0000
  C   C496      1.0  0.72237  0.02395  0.86032  1.0000
  C   C497      1.0  0.90052  0.06530  0.97109  1.0000
  C   C498      1.0  0.66124  0.02467  0.67046  1.0000
  H   H492      1.0  0.74819  0.04680  0.88137  1.0000
  C   C499      1.0  0.76981  0.09597  0.56290  1.0000
  H   H493      1.0  0.76658  0.39175  0.82591  1.0000
  H   H494      1.0  0.67575  0.07370  0.71500  1.0000
  H   H495      1.0  0.72029  0.15495  0.60187  1.0000
  C   C500      1.0  0.67335  0.05563  0.71080  1.0000
  H   H496      1.0  0.87705  0.27240  0.53455  1.0000
  C   C501      1.0  0.77795  0.11764  0.57078  1.0000
  C   C502      1.0  0.72074  0.34370  0.52064  1.0000
  C   C503      1.0  0.72428  0.15180  0.57142  1.0000
  S   S183      1.0  0.68950  0.99326  0.83347  1.0000
  H   H497      1.0  0.74003  0.07604  0.55047  1.0000
  H   H498      1.0  0.89304  0.38465  0.93472  1.0000
  C   C504      1.0  0.85686  0.39434  0.71673  1.0000
  C   C505      1.0  0.84420  0.37922  0.69393  1.0000
  C   C506      1.0  0.84895  0.37642  0.65474  1.0000
  C   C507      1.0  0.86668  0.38850  0.63800  1.0000
  C   C508      1.0  0.87886  0.40409  0.66058  1.0000
  C   C509      1.0  0.87389  0.40714  0.69961  1.0000
  H   H499      1.0  0.83100  0.36920  0.70683  1.0000
  H   H500      1.0  0.83939  0.36441  0.63779  1.0000
  H   H501      1.0  0.89261  0.41351  0.64798  1.0000
  H   H502      1.0  0.88388  0.41872  0.71673  1.0000
  C   C510      1.0  0.76408  0.46692  0.84863  1.0000
  H   H503      1.0  0.70814  0.14867  0.55577  1.0000
  C   C511      1.0  0.72268  0.47066  0.84046  1.0000
  C   C512      1.0  0.71882  0.45591  0.87083  1.0000
  C   C513      1.0  0.73779  0.44654  0.88961  1.0000
  C   C514      1.0  0.76021  0.45170  0.87830  1.0000
  H   H504      1.0  0.76936  0.15278  0.57797  1.0000
  C   C515      1.0  0.87726  0.33610  0.71248  1.0000
  H   H505      1.0  0.73514  0.43522  0.91328  1.0000
  H   H506      1.0  0.77450  0.44426  0.89310  1.0000
  N   N42       1.0  0.78284  0.43893  0.75538  1.0000
  C   C516      1.0  0.79891  0.42374  0.76719  1.0000
  C   C517      1.0  0.76098  0.43740  0.76815  1.0000
  C   C518      1.0  0.79324  0.40632  0.79217  1.0000
  C   C519      1.0  0.75476  0.42034  0.79350  1.0000
  C   C520      1.0  0.77105  0.40477  0.80566  1.0000
  C   C521      1.0  0.78950  0.45789  0.73115  1.0000
  H   H507      1.0  0.81631  0.42522  0.75766  1.0000
  H   H508      1.0  0.74838  0.44984  0.75974  1.0000
  H   H509      1.0  0.80616  0.39442  0.80154  1.0000
  H   H510      1.0  0.91396  0.35573  0.97244  1.0000
  H   H511      1.0  0.73180  0.16735  0.55901  1.0000
  H   H512      1.0  0.79517  0.47229  0.74941  1.0000
  H   H513      1.0  0.80362  0.45292  0.71182  1.0000
  H   H514      1.0  0.77513  0.46364  0.71307  1.0000
  H   H515      1.0  0.67601  0.06470  0.78558  1.0000
  H   H516      1.0  0.87180  0.33781  0.74189  1.0000
  Fe  Fe93      1.0  0.86325  0.15870  0.51103  1.0000
  C   C522      1.0  0.81569  0.04631  0.95124  1.0000
  H   H517      1.0  0.94978  0.43203  0.91825  1.0000
  C   C523      1.0  0.84270  0.09860  0.91238  1.0000
  H   H518      1.0  0.81388  0.06467  0.89885  1.0000
  H   H519      1.0  0.89345  0.33338  0.60621  1.0000
  H   H520      1.0  0.79601  0.12030  0.57470  1.0000
  H   H521      1.0  0.91408  0.35912  0.64948  1.0000
  H   H522      1.0  0.91954  0.01820  0.74114  1.0000
  H   H523      1.0  0.77789  0.34375  0.53531  1.0000
  H   H524      1.0  0.82899  0.10217  0.89149  1.0000
  H   H525      1.0  0.76368  0.27627  0.53569  1.0000
  S   S184      1.0  0.69651  0.33031  0.53913  1.0000
  H   H526      1.0  0.84186  0.04830  0.53411  1.0000
  S   S185      1.0  0.88493  0.18982  0.52051  1.0000
  H   H527      1.0  0.79267  0.29591  0.49717  1.0000
  H   H528      1.0  0.73758  0.41968  0.80454  1.0000
  H   H529      1.0  0.92349  0.46351  0.88815  1.0000
  C   C524      1.0  0.88726  0.40688  0.98260  1.0000
  C   C525      1.0  0.89315  0.06697  0.50378  1.0000
  C   C526      1.0  0.76187  0.34764  0.52206  1.0000
  S   S186      1.0  0.65883  0.12176  0.55222  1.0000
  H   H530      1.0  0.81551  0.23401  0.54299  1.0000
  C   C527      1.0  0.89500  0.34938  0.69904  1.0000
  S   S187      1.0  0.84705  0.00253  0.79975  1.0000
  C   C528      1.0  0.82130  0.06419  0.92712  1.0000
  C   C529      1.0  0.84481  0.25562  0.53929  1.0000
  H   H531      1.0  0.70845  0.03403  0.87128  1.0000
  C   C530      1.0  0.88069  0.23598  0.52975  1.0000
  C   C531      1.0  0.86835  0.25630  0.53430  1.0000
  S   S188      1.0  0.82869  0.28043  0.54680  1.0000
  H   H532      1.0  0.84417  0.31540  0.61234  1.0000
  Fe  Fe94      1.0  0.84085  0.31401  0.52488  1.0000
  C   C532      1.0  0.74174  0.33939  0.53797  1.0000
  C   C533      1.0  0.74656  0.09270  0.55761  1.0000
  H   H533      1.0  0.78160  0.08184  0.56054  1.0000
  H   H534      1.0  0.95253  0.99332  0.75647  1.0000
  H   H535      1.0  0.71378  0.10864  0.55547  1.0000
  C   C534      1.0  0.83370  0.23466  0.53910  1.0000
  C   C535      1.0  0.66569  0.00969  0.70016  1.0000
  C   C536      1.0  0.84593  0.21446  0.53341  1.0000
  N   N43       1.0  0.73998  0.13255  0.56768  1.0000
  H   H536      1.0  0.74250  0.32921  0.56343  1.0000
  H   H537      1.0  0.80415  0.03315  0.94153  1.0000
  H   H538      1.0  0.70407  0.48452  0.95257  1.0000
  C   C537      1.0  0.93392  0.42979  0.93479  1.0000
  H   H539      1.0  0.88532  0.03373  0.98722  1.0000
  C   C538      1.0  0.91198  0.08464  0.98479  1.0000
  H   H540      1.0  0.67759  0.00632  0.75766  1.0000
  C   C539      1.0  0.75906  0.99799  0.83297  1.0000
  N   N44       1.0  0.92436  0.45190  0.94557  1.0000
  C   C540      1.0  0.91969  0.46734  0.91774  1.0000
  H   H541      1.0  0.89891  0.23648  0.52630  1.0000
  H   H542      1.0  0.91708  0.09759  0.96493  1.0000
  C   C541      1.0  0.85546  0.05266  0.51472  1.0000
  C   C542      1.0  0.74510  0.47642  0.83000  1.0000
  C   C543      1.0  0.67406  0.01810  0.73479  1.0000
  C   C544      1.0  0.82534  0.04534  0.98748  1.0000
  H   H543      1.0  0.65876  0.23326  0.57208  1.0000
  N   N45       1.0  0.83614  0.08063  0.93875  1.0000
  H   H544      1.0  0.87839  0.06250  0.55961  1.0000
  C   C545      1.0  0.66538  0.04775  0.67558  1.0000
  C   C546      1.0  0.73640  0.99072  0.82739  1.0000
  Fe  Fe95      1.0  0.87367  0.99140  0.84284  1.0000
  C   C547      1.0  0.90770  0.37092  0.98640  1.0000
  H   H545      1.0  0.90885  0.07381  0.51513  1.0000
  C   C548      1.0  0.91940  0.45673  0.98284  1.0000
  C   C549      1.0  0.84584  0.07969  0.97414  1.0000
  H   H546      1.0  0.85835  0.09216  0.98281  1.0000
  H   H547      1.0  0.74778  0.48828  0.80711  1.0000
  C   C550      1.0  0.87604  0.06062  0.52906  1.0000
  C   C551      1.0  0.89586  0.99040  0.73919  1.0000
  Fe  Fe96      1.0  0.81527  0.14478  0.49132  1.0000
  H   H548      1.0  0.98932  0.88586  0.00339  1.0000
  C   C552      1.0  0.93584  0.98604  0.75217  1.0000
  S   S189      1.0  0.95989  0.58650  0.85661  1.0000
  C   C553      1.0  0.95345  0.55006  0.73674  1.0000
  S   S190      1.0  0.88710  0.95453  0.84074  1.0000
  C   C554      1.0  0.92516  0.51711  0.83353  1.0000
  C   C555      1.0  0.94827  0.52023  0.82477  1.0000
  C   C556      1.0  0.95937  0.54099  0.83265  1.0000
  C   C557      1.0  0.94746  0.55911  0.84925  1.0000
  C   C558      1.0  0.92442  0.55588  0.85851  1.0000
  C   C559      1.0  0.91335  0.53509  0.85078  1.0000
  H   H549      1.0  0.95766  0.50651  0.81148  1.0000
  H   H550      1.0  0.86331  0.95463  0.76929  1.0000
  H   H551      1.0  0.91495  0.56974  0.87124  1.0000
  H   H552      1.0  0.89554  0.53320  0.85741  1.0000
  C   C560      1.0  0.95816  0.91985  0.84270  1.0000
  C   C561      1.0  0.95612  0.94360  0.84666  1.0000
  C   C562      1.0  0.93465  0.95446  0.84717  1.0000
  C   C563      1.0  0.91475  0.94175  0.84330  1.0000
  C   C564      1.0  0.91678  0.91800  0.83951  1.0000
  C   C565      1.0  0.93825  0.90712  0.83934  1.0000
  H   H553      1.0  0.97131  0.95372  0.84932  1.0000
  H   H554      1.0  0.93351  0.97270  0.85009  1.0000
  H   H555      1.0  0.90159  0.90789  0.83656  1.0000
  H   H556      1.0  0.93936  0.88889  0.83625  1.0000
  H   H557      1.0  0.73325  0.97491  0.81255  1.0000
  H   H558      1.0  0.96461  0.53731  0.72449  1.0000
  C   C566      1.0  0.93091  0.54434  0.74447  1.0000
  S   S191      1.0  0.98596  0.90733  0.84108  1.0000
  H   H559      1.0  0.68643  0.49711  0.98894  1.0000
  H   H560      1.0  0.97768  0.74121  0.82034  1.0000
  H   H561      1.0  0.87051  0.94145  0.72432  1.0000
  C   C567      1.0  0.98550  0.57639  0.73934  1.0000
  H   H562      1.0  0.98825  0.59490  0.73572  1.0000
  H   H563      1.0  0.94672  0.95178  0.76365  1.0000
  H   H564      1.0  0.90553  0.50012  0.90460  1.0000
  C   C568      1.0  0.94771  0.58688  0.76288  1.0000
  C   C569      1.0  0.92507  0.58177  0.77090  1.0000
  H   H565      1.0  0.90826  0.93583  0.75665  1.0000
  C   C570      1.0  0.91667  0.56034  0.76164  1.0000
  C   C571      1.0  0.68447  0.50663  0.89841  1.0000
  H   H566      1.0  0.97706  0.54305  0.82542  1.0000
  H   H567      1.0  0.95439  0.60318  0.77196  1.0000
  C   C572      1.0  0.91082  0.95378  0.75173  1.0000
  H   H568      1.0  0.68055  0.52168  0.84287  1.0000
  C   C573      1.0  0.93262  0.96275  0.75600  1.0000
  N   N46       1.0  0.96150  0.57119  0.74563  1.0000
  H   H569      1.0  0.89942  0.55581  0.76912  1.0000
  H   H570      1.0  0.92474  0.52733  0.73866  1.0000
  C   C574      1.0  0.90415  0.49310  0.96467  1.0000
  H   H571      1.0  0.70159  0.50081  0.89257  1.0000
  C   C575      1.0  0.87005  0.95778  0.74025  1.0000
  H   H572      1.0  0.91448  0.59398  0.78589  1.0000
  N   N47       1.0  0.67432  0.50179  0.93240  1.0000
  C   C576      1.0  0.67269  0.51848  0.87020  1.0000
  H   H573      1.0  0.85809  0.96930  0.72528  1.0000
  N   N48       1.0  0.89283  0.96755  0.74316  1.0000
  H   H574      1.0  0.77301  0.98776  0.82245  1.0000
  H   H575      1.0  0.99020  0.76306  0.72699  1.0000
  S   S192      1.0  0.91180  0.49094  0.82028  1.0000
  H   H576      1.0  0.89590  0.50902  0.97194  1.0000
