data_image0
_chemical_formula_structural       FeS2FeS2Fe2S3FeS2FeS2FeSFeCS2FeS2FeS2FeHFeS3C4HSC3HCH4NHC2HC6H4C4H2C2HCHC3HC2HSCHC6H5C2H2CHCHC3HNCNC6H8NC2H3CH2C3H3C5H4C2H2CHCH2C2HCH5CH3CNH4CNH2NCHC2HCH4CFeS2FeS2Fe2S3FeS2FeS2FeSFeHS2FeS2FeS2FeCFeS3C3NH2C4H2CH2CH3C7H4C4H7C3H2CH4C6H7CHCH2C2HCNHC3H3CHNC2H3CHCNHCH3CHCH2S2H2CHC2HNC6H3C2H3C2H3CHC4H2C5H4CSFeS2FeS2FeSFeS3FeS2FeS2FeSFeS3CH3C6H8CHC3HCHC7H4C6H5CH5SHCH3C2HNHCNC2HCHNCNCH3C6HC4H6C2HC2HC3H4CH2C2FeS2FeS2FeSFeS3FeS2FeS2FeSFeS4CH2C6H9C5H2C7H4C6HCH3CHC5NHCH5C3HCH2C4HCH2CHCH3C3HCNC2HNCH2CHNCH2NH4CFeSHFeS2FeCFeSCSFeSNFeSHFeSFeS3FeS2FeS2FeSFeS3C2HCH2CH3SC4H5C6H4C3H2SHCHCHNC6H5NCHCH3C2H2SH3CH2C2HC4HCNC2H3CSNH2C3NC6H10C2HC4H2C3HC3H4SCH6CH3FeS2FeS2FeCFeS3FeSCFeSHFeSFeS3FeS2FeS2FeSFeS3C2HCH7C4H4C7H4CHC2NHC2HCH2C6H4NC3H7C5NCHCHNHCH2C2H2SCH2CHC2H2C2H3C4H3CH3CHC2HCHSC2HCNHFeS2FeSFeSFeS3FeS2FeS2FeSFeS3FeSNFeS2FeCFeS3CHCHC2HCSCHCHCHC6H4C3HC2HCH2C6H8C3H5SHC2H3C2H6C4H2CH2CHC2H2NH2CHCHCHC2H2C2NC3H3C3HNH4C5HCFeS2FeSFeSFeS3FeS2FeS2FeHFeS3FeS2FeS2FeHFeS3HCHC2HCH4C3HC6H4C2H2C3H3C6H4C3HC3H2NC6HCHCH3NC6H9CHCNHC4H6CH3CSCHCH3NHNCHC2HCH2C3HCH2C3HCNH2SHC2HCH3C3HCFeS2FeS2FeSFeS3FeS2FeSHFeSFeS3NC6H4C2HCHCH2CHC6H4C6H4C4H3CHC4H2CH2NC4H3CSHC2HCHCH5CHCNH2NC3HSCH2CHC4HCH8CH2CHSHFeS2FeS2FeSFeS3FeS2FeSCFeSFeS3C7H4C2H2C2H4C6H4C6H4C3H4C4H5CHCH3CHNC6H4CHC2H3C5H2C2H2CSH3CH2C2HNCH2CHNC5HCHCH3N2H2CHCNH2CHCHSHFeS2FeS2FeSFeCS2FeSHFeSCFeSFeS3FeS2FeS2FeSFeS3HC4H4NC6H4NH4C4H2C2HNC2H2C6H5C2HNC6H6CH2NC6H4CH7CH2CHCSHCSC3HC2HC2HC2HCH3CHCHC4HC3HCNFeS2FeS2FeSFeNS2FeSHFeSHFeSFeS3FeS2FeS2FeSFeS3HC3HC2H3C6H4C2SHC4H4CHCHC2SC6H4CH2NH2CH3CHC2HCHC4HCHNC2HCH2CHCH4CNC6H8C2NH2CH3CH3C2HCH2NCHCHSHCHC2H4C3H
_chemical_formula_sum              "Fe128 S256 C768 H768 N64"
_cell_length_a       39.9794
_cell_length_b       79.7579
_cell_length_c       44.0726
_cell_angle_alpha    89.1462
_cell_angle_beta     87.2315
_cell_angle_gamma    89.9202

_space_group_name_H-M_alt    "P 1"
_space_group_IT_number       1

loop_
  _space_group_symop_operation_xyz
  'x, y, z'

loop_
  _atom_site_type_symbol
  _atom_site_label
  _atom_site_symmetry_multiplicity
  _atom_site_fract_x
  _atom_site_fract_y
  _atom_site_fract_z
  _atom_site_occupancy
  Fe  Fe1       1.0  0.09138  0.29243  0.33784  1.0000
  S   S1        1.0  0.11246  0.30114  0.29202  1.0000
  S   S2        1.0  0.03577  0.29614  0.35288  1.0000
  Fe  Fe2       1.0  0.16244  0.28801  0.36303  1.0000
  S   S3        1.0  0.18743  0.29699  0.31851  1.0000
  S   S4        1.0  0.19817  0.28354  0.40214  1.0000
  Fe  Fe3       1.0  0.14744  0.31702  0.31814  1.0000
  Fe  Fe4       1.0  0.15084  0.28049  0.29579  1.0000
  S   S5        1.0  0.16350  0.26142  0.25792  1.0000
  S   S6        1.0  0.12508  0.30931  0.36372  1.0000
  S   S7        1.0  0.12734  0.27045  0.34049  1.0000
  Fe  Fe5       1.0  0.28268  0.23577  0.10760  1.0000
  S   S8        1.0  0.30162  0.24694  0.06242  1.0000
  S   S9        1.0  0.27191  0.25486  0.14563  1.0000
  Fe  Fe6       1.0  0.29224  0.19963  0.08401  1.0000
  S   S10       1.0  0.31039  0.20851  0.03757  1.0000
  S   S11       1.0  0.29621  0.17255  0.10151  1.0000
  Fe  Fe7       1.0  0.34159  0.22680  0.06250  1.0000
  S   S12       1.0  0.39625  0.23048  0.04559  1.0000
  Fe  Fe8       1.0  0.26901  0.22791  0.04099  1.0000
  C   C1        1.0  0.20212  0.25489  0.09487  1.0000
  S   S13       1.0  0.32532  0.21725  0.10883  1.0000
  S   S14       1.0  0.24816  0.21751  0.08630  1.0000
  Fe  Fe9       1.0  0.32051  0.04892  0.09966  1.0000
  S   S15       1.0  0.34325  0.03093  0.06587  1.0000
  S   S16       1.0  0.31849  0.04484  0.15107  1.0000
  Fe  Fe10      1.0  0.30840  0.07623  0.05123  1.0000
  S   S17       1.0  0.33028  0.06017  0.01348  1.0000
  S   S18       1.0  0.28860  0.10177  0.03560  1.0000
  Fe  Fe11      1.0  0.30219  0.03873  0.03556  1.0000
  H   H1        1.0  0.16098  0.23300  0.02244  1.0000
  Fe  Fe12      1.0  0.36973  0.05348  0.04579  1.0000
  S   S19       1.0  0.42241  0.05039  0.02710  1.0000
  S   S20       1.0  0.27653  0.05503  0.07123  1.0000
  S   S21       1.0  0.35074  0.07123  0.08175  1.0000
  C   C2        1.0  0.44976  0.04955  0.05694  1.0000
  C   C3        1.0  0.43728  0.05083  0.08702  1.0000
  C   C4        1.0  0.45931  0.05072  0.11081  1.0000
  C   C5        1.0  0.18019  0.24742  0.07529  1.0000
  H   H2        1.0  0.41072  0.05210  0.09197  1.0000
  S   S22       1.0  0.23196  0.23236  0.00302  1.0000
  C   C6        1.0  0.29380  0.06028  0.42239  1.0000
  C   C7        1.0  0.31224  0.02569  0.17159  1.0000
  C   C8        1.0  0.31354  0.02572  0.20342  1.0000
  H   H3        1.0  0.44973  0.05210  0.13400  1.0000
  C   C9        1.0  0.22706  0.07565  0.01227  1.0000
  H   H4        1.0  0.31724  0.03743  0.21487  1.0000
  H   H5        1.0  0.38117  0.24868  0.16833  1.0000
  H   H6        1.0  0.39158  0.00262  0.26177  1.0000
  H   H7        1.0  0.44276  0.25084  0.15892  1.0000
  N   N1        1.0  0.39469  0.01717  0.17754  1.0000
  H   H8        1.0  0.20569  0.24951  0.11726  1.0000
  C   C10       1.0  0.36279  0.14572  0.01708  1.0000
  C   C11       1.0  0.30274  0.07398  0.43960  1.0000
  H   H9        1.0  0.30604  0.01026  0.13261  1.0000
  C   C12       1.0  0.29285  0.15303  0.08283  1.0000
  C   C13       1.0  0.28349  0.15190  0.05275  1.0000
  C   C14       1.0  0.28195  0.13611  0.03881  1.0000
  C   C15       1.0  0.29031  0.12129  0.05453  1.0000
  C   C16       1.0  0.29976  0.12243  0.08457  1.0000
  C   C17       1.0  0.30079  0.13819  0.09865  1.0000
  H   H10       1.0  0.27724  0.16318  0.04028  1.0000
  H   H11       1.0  0.27446  0.13539  0.01560  1.0000
  H   H12       1.0  0.30605  0.11116  0.09707  1.0000
  H   H13       1.0  0.30792  0.13889  0.12198  1.0000
  C   C18       1.0  0.43428  0.22550  0.06329  1.0000
  C   C19       1.0  0.43484  0.22010  0.09362  1.0000
  C   C20       1.0  0.46572  0.21755  0.10730  1.0000
  C   C21       1.0  0.46494  0.22791  0.04673  1.0000
  H   H14       1.0  0.41155  0.21831  0.10678  1.0000
  H   H15       1.0  0.46487  0.23210  0.02326  1.0000
  C   C22       1.0  0.48421  0.04771  0.05070  1.0000
  C   C23       1.0  0.40141  0.02835  0.19970  1.0000
  H   H16       1.0  0.46586  0.21374  0.13096  1.0000
  C   C24       1.0  0.20989  0.04741  0.02083  1.0000
  H   H17       1.0  0.01719  0.27127  0.30760  1.0000
  C   C25       1.0  0.20586  0.26905  0.43247  1.0000
  C   C26       1.0  0.18725  0.25434  0.43761  1.0000
  C   C27       1.0  0.19585  0.24281  0.46068  1.0000
  H   H18       1.0  0.37292  0.18792  0.01955  1.0000
  C   C28       1.0  0.26579  0.05075  0.43157  1.0000
  C   C29       1.0  0.23281  0.27211  0.45115  1.0000
  H   H19       1.0  0.16642  0.25176  0.42361  1.0000
  S   S23       1.0  0.27682  0.01873  0.00835  1.0000
  C   C30       1.0  0.19444  0.05163  0.04887  1.0000
  H   H20       1.0  0.24738  0.28345  0.44756  1.0000
  C   C31       1.0  0.19383  0.26000  0.22672  1.0000
  C   C32       1.0  0.21778  0.27248  0.21997  1.0000
  C   C33       1.0  0.24135  0.27064  0.19521  1.0000
  C   C34       1.0  0.24148  0.25633  0.17676  1.0000
  C   C35       1.0  0.21758  0.24384  0.18355  1.0000
  C   C36       1.0  0.19402  0.24568  0.20830  1.0000
  H   H21       1.0  0.21804  0.28360  0.23370  1.0000
  H   H22       1.0  0.25956  0.28044  0.19028  1.0000
  H   H23       1.0  0.21732  0.23269  0.16988  1.0000
  H   H24       1.0  0.17576  0.23590  0.21326  1.0000
  H   H25       1.0  0.18250  0.04202  0.06331  1.0000
  C   C37       1.0  0.40059  0.02327  0.23029  1.0000
  C   C38       1.0  0.22304  0.24579  0.47912  1.0000
  H   H26       1.0  0.30864  0.05696  0.40210  1.0000
  H   H27       1.0  0.15141  0.25265  0.00481  1.0000
  C   C39       1.0  0.23592  0.00844  0.46049  1.0000
  H   H28       1.0  0.24051  0.08508  0.99847  1.0000
  C   C40       1.0  0.37035  0.25719  0.12329  1.0000
  H   H29       1.0  0.12686  0.24577  0.03801  1.0000
  C   C41       1.0  0.19299  0.26823  0.03742  1.0000
  C   C42       1.0  0.39162  0.25297  0.14639  1.0000
  C   C43       1.0  0.21550  0.27587  0.05625  1.0000
  H   H30       1.0  0.16699  0.23610  0.08271  1.0000
  N   N2        1.0  0.17576  0.25415  0.04703  1.0000
  C   C44       1.0  0.42634  0.25422  0.14091  1.0000
  N   N3        1.0  0.25133  0.25833  0.36007  1.0000
  C   C45       1.0  0.23043  0.24563  0.37017  1.0000
  C   C46       1.0  0.24937  0.26475  0.33126  1.0000
  C   C47       1.0  0.20675  0.23907  0.35122  1.0000
  C   C48       1.0  0.22648  0.25825  0.31153  1.0000
  C   C49       1.0  0.20491  0.24540  0.32167  1.0000
  C   C50       1.0  0.27562  0.26546  0.38016  1.0000
  H   H31       1.0  0.23157  0.24070  0.39316  1.0000
  H   H32       1.0  0.26527  0.27511  0.32351  1.0000
  H   H33       1.0  0.18970  0.22928  0.35950  1.0000
  H   H34       1.0  0.22490  0.26340  0.28870  1.0000
  H   H35       1.0  0.18650  0.24054  0.30673  1.0000
  H   H36       1.0  0.26876  0.27869  0.38518  1.0000
  H   H37       1.0  0.27600  0.25855  0.40224  1.0000
  H   H38       1.0  0.30121  0.26507  0.36925  1.0000
  N   N4        1.0  0.37595  0.17108  0.05745  1.0000
  C   C51       1.0  0.37148  0.17498  0.02757  1.0000
  C   C52       1.0  0.37466  0.15476  0.06743  1.0000
  H   H39       1.0  0.22620  0.04715  0.46568  1.0000
  H   H40       1.0  0.25880  0.03993  0.41860  1.0000
  H   H41       1.0  0.21421  0.09312  0.04793  1.0000
  C   C53       1.0  0.38331  0.18430  0.07887  1.0000
  H   H42       1.0  0.21228  0.00988  0.47324  1.0000
  H   H43       1.0  0.37758  0.15171  0.09123  1.0000
  C   C54       1.0  0.29586  0.01226  0.45556  1.0000
  C   C55       1.0  0.36828  0.14184  0.04738  1.0000
  C   C56       1.0  0.47584  0.26107  0.10793  1.0000
  H   H44       1.0  0.41026  0.18403  0.08388  1.0000
  H   H45       1.0  0.37740  0.19693  0.06962  1.0000
  H   H46       1.0  0.36778  0.18261  0.10033  1.0000
  C   C57       1.0  0.24138  0.26060  0.47426  1.0000
  C   C58       1.0  0.15248  0.24604  0.02714  1.0000
  C   C59       1.0  0.39314  0.00662  0.23808  1.0000
  C   C60       1.0  0.39613  0.02263  0.14558  1.0000
  C   C61       1.0  0.41875  0.26364  0.09033  1.0000
  H   H47       1.0  0.31885  0.01676  0.46456  1.0000
  H   H48       1.0  0.42905  0.26740  0.06804  1.0000
  H   H49       1.0  0.34337  0.25619  0.12718  1.0000
  H   H50       1.0  0.36773  0.26547  0.07667  1.0000
  C   C62       1.0  0.21994  0.26916  0.08521  1.0000
  C   C63       1.0  0.31026  0.01072  0.22061  1.0000
  H   H51       1.0  0.23736  0.27489  0.10012  1.0000
  H   H52       1.0  0.36634  0.12894  0.05554  1.0000
  C   C64       1.0  0.38395  0.26257  0.09507  1.0000
  H   H53       1.0  0.48366  0.25846  0.08390  1.0000
  C   C65       1.0  0.28369  0.07781  0.46608  1.0000
  H   H54       1.0  0.40686  0.04135  0.19379  1.0000
  H   H55       1.0  0.06065  0.32436  0.31701  1.0000
  C   C66       1.0  0.19557  0.06820  0.05857  1.0000
  C   C67       1.0  0.21206  0.08030  0.04023  1.0000
  H   H56       1.0  0.22957  0.28683  0.04832  1.0000
  C   C68       1.0  0.26540  0.01426  0.47255  1.0000
  H   H57       1.0  0.39006  0.03620  0.14335  1.0000
  H   H58       1.0  0.42154  0.02039  0.13510  1.0000
  H   H59       1.0  0.40518  0.03223  0.24788  1.0000
  H   H60       1.0  0.48380  0.27395  0.11346  1.0000
  H   H61       1.0  0.18448  0.07158  0.08061  1.0000
  C   C69       1.0  0.30727  0.01047  0.15707  1.0000
  H   H62       1.0  0.18135  0.23144  0.46421  1.0000
  H   H63       1.0  0.31143  0.01096  0.24506  1.0000
  H   H64       1.0  0.35662  0.13583  0.00163  1.0000
  C   C70       1.0  0.36446  0.16240  0.00701  1.0000
  N   N5        1.0  0.43946  0.25937  0.11305  1.0000
  H   H65       1.0  0.18985  0.27346  0.01487  1.0000
  H   H66       1.0  0.32455  0.08146  0.43282  1.0000
  H   H67       1.0  0.01910  0.33237  0.36551  1.0000
  H   H68       1.0  0.20976  0.03441  0.01387  1.0000
  C   C71       1.0  0.24742  0.05490  0.45823  1.0000
  N   N6        1.0  0.22569  0.05942  0.00284  1.0000
  H   H69       1.0  0.06213  0.33057  0.37525  1.0000
  H   H70       1.0  0.37723  0.01592  0.13262  1.0000
  N   N7        1.0  0.25691  0.06805  0.47544  1.0000
  C   C72       1.0  0.99669  0.28910  0.33960  1.0000
  H   H71       1.0  0.38303  0.02201  0.00854  1.0000
  C   C73       1.0  0.29642  0.00433  0.42683  1.0000
  C   C74       1.0  0.23640  0.00085  0.43205  1.0000
  H   H72       1.0  0.48953  0.25190  0.12205  1.0000
  C   C75       1.0  0.49377  0.04909  0.10457  1.0000
  H   H73       1.0  0.31985  0.00272  0.41386  1.0000
  H   H74       1.0  0.29101  0.08838  0.47951  1.0000
  H   H75       1.0  0.26233  0.26315  0.48812  1.0000
  H   H76       1.0  0.49390  0.04672  0.02746  1.0000
  C   C76       1.0  0.38784  0.00076  0.18495  1.0000
  Fe  Fe13      1.0  0.08820  0.29166  0.84150  1.0000
  S   S24       1.0  0.10447  0.30139  0.79511  1.0000
  S   S25       1.0  0.03442  0.28616  0.85947  1.0000
  Fe  Fe14      1.0  0.16065  0.29105  0.86353  1.0000
  S   S26       1.0  0.18157  0.30107  0.81800  1.0000
  S   S27       1.0  0.19644  0.28878  0.90320  1.0000
  Fe  Fe15      1.0  0.13764  0.31902  0.81975  1.0000
  Fe  Fe16      1.0  0.14713  0.28277  0.79655  1.0000
  S   S28       1.0  0.15585  0.26445  0.75671  1.0000
  S   S29       1.0  0.11900  0.31032  0.86620  1.0000
  S   S30       1.0  0.12851  0.27175  0.84204  1.0000
  Fe  Fe17      1.0  0.28208  0.23414  0.61315  1.0000
  S   S31       1.0  0.30452  0.24404  0.56795  1.0000
  S   S32       1.0  0.27106  0.25301  0.65157  1.0000
  Fe  Fe18      1.0  0.28546  0.19752  0.59125  1.0000
  S   S33       1.0  0.30657  0.20512  0.54519  1.0000
  S   S34       1.0  0.27886  0.17042  0.60837  1.0000
  Fe  Fe19      1.0  0.34074  0.22214  0.57018  1.0000
  S   S35       1.0  0.39595  0.21865  0.55389  1.0000
  Fe  Fe20      1.0  0.26893  0.22629  0.54649  1.0000
  H   H77       1.0  0.45390  0.05675  0.63495  1.0000
  S   S36       1.0  0.32085  0.21363  0.61639  1.0000
  S   S37       1.0  0.24504  0.21741  0.59156  1.0000
  Fe  Fe21      1.0  0.31742  0.04585  0.60146  1.0000
  S   S38       1.0  0.33508  0.02710  0.56667  1.0000
  S   S39       1.0  0.31811  0.04070  0.65268  1.0000
  Fe  Fe22      1.0  0.31392  0.07491  0.55403  1.0000
  S   S40       1.0  0.33227  0.05800  0.51609  1.0000
  S   S41       1.0  0.30538  0.10186  0.53721  1.0000
  Fe  Fe23      1.0  0.29729  0.03869  0.53656  1.0000
  C   C77       1.0  0.44898  0.00927  0.60766  1.0000
  Fe  Fe24      1.0  0.36861  0.04786  0.54882  1.0000
  S   S42       1.0  0.42159  0.04166  0.53322  1.0000
  S   S43       1.0  0.27612  0.05604  0.57297  1.0000
  S   S44       1.0  0.35344  0.06622  0.58502  1.0000
  C   C78       1.0  0.45045  0.04539  0.56105  1.0000
  C   C79       1.0  0.43957  0.05057  0.59002  1.0000
  C   C80       1.0  0.46256  0.05281  0.61253  1.0000
  N   N8        1.0  0.44054  0.02142  0.65703  1.0000
  H   H78       1.0  0.41339  0.05241  0.59548  1.0000
  H   H79       1.0  0.24593  0.28719  0.94860  1.0000
  C   C81       1.0  0.30755  0.02541  0.95160  1.0000
  C   C82       1.0  0.31348  0.02115  0.67219  1.0000
  C   C83       1.0  0.32502  0.01964  0.70174  1.0000
  C   C84       1.0  0.37027  0.15220  0.58836  1.0000
  H   H80       1.0  0.39253  0.16327  0.53560  1.0000
  H   H81       1.0  0.33759  0.03012  0.71152  1.0000
  C   C85       1.0  0.36024  0.14710  0.61791  1.0000
  H   H82       1.0  0.29578  0.02683  0.81652  1.0000
  H   H83       1.0  0.18273  0.23045  0.56060  1.0000
  C   C86       1.0  0.48327  0.24781  0.51473  1.0000
  H   H84       1.0  0.37038  0.14304  0.57040  1.0000
  H   H85       1.0  0.26970  0.05646  0.97486  1.0000
  H   H86       1.0  0.25814  0.03588  0.72802  1.0000
  C   C87       1.0  0.22402  0.24790  0.97435  1.0000
  C   C88       1.0  0.28593  0.15153  0.58799  1.0000
  C   C89       1.0  0.28332  0.13606  0.60378  1.0000
  C   C90       1.0  0.28987  0.12078  0.58884  1.0000
  C   C91       1.0  0.29846  0.12075  0.55769  1.0000
  C   C92       1.0  0.30088  0.13621  0.54186  1.0000
  C   C93       1.0  0.29492  0.15151  0.55690  1.0000
  H   H87       1.0  0.27632  0.13592  0.62780  1.0000
  H   H88       1.0  0.28766  0.10902  0.60131  1.0000
  H   H89       1.0  0.30729  0.13636  0.51772  1.0000
  H   H90       1.0  0.29692  0.16327  0.54441  1.0000
  C   C94       1.0  0.43465  0.22243  0.57120  1.0000
  C   C95       1.0  0.43777  0.23435  0.59386  1.0000
  C   C96       1.0  0.46966  0.23827  0.60436  1.0000
  C   C97       1.0  0.46373  0.21415  0.55993  1.0000
  H   H91       1.0  0.41578  0.24093  0.60270  1.0000
  H   H92       1.0  0.46177  0.20494  0.54233  1.0000
  H   H93       1.0  0.39000  0.02738  0.67083  1.0000
  H   H94       1.0  0.25209  0.07976  0.51885  1.0000
  H   H95       1.0  0.36747  0.18183  0.54192  1.0000
  H   H96       1.0  0.18173  0.27120  0.64875  1.0000
  H   H97       1.0  0.01661  0.29255  0.79627  1.0000
  C   C98       1.0  0.20667  0.27259  0.92998  1.0000
  C   C99       1.0  0.18966  0.25725  0.93228  1.0000
  C   C100      1.0  0.19825  0.24506  0.95428  1.0000
  H   H98       1.0  0.17175  0.24710  0.53492  1.0000
  H   H99       1.0  0.18475  0.23331  0.95572  1.0000
  C   C101      1.0  0.23245  0.27544  0.95009  1.0000
  H   H100      1.0  0.16984  0.25477  0.91710  1.0000
  H   H101      1.0  0.42027  0.01877  0.91590  1.0000
  H   H102      1.0  0.47178  0.24778  0.62143  1.0000
  H   H103      1.0  0.47506  0.25726  0.49791  1.0000
  C   C102      1.0  0.18879  0.26129  0.72822  1.0000
  C   C103      1.0  0.21626  0.27210  0.72421  1.0000
  C   C104      1.0  0.24121  0.26922  0.70096  1.0000
  C   C105      1.0  0.23936  0.25545  0.68141  1.0000
  C   C106      1.0  0.21190  0.24461  0.68541  1.0000
  C   C107      1.0  0.18681  0.24757  0.70852  1.0000
  H   H104      1.0  0.21830  0.28272  0.73900  1.0000
  H   H105      1.0  0.26223  0.27773  0.69820  1.0000
  H   H106      1.0  0.20996  0.23396  0.67069  1.0000
  H   H107      1.0  0.16582  0.23906  0.71133  1.0000
  H   H108      1.0  0.23399  0.28509  0.62916  1.0000
  H   H109      1.0  0.09594  0.24879  0.79414  1.0000
  H   H110      1.0  0.07864  0.24849  0.75760  1.0000
  C   C108      1.0  0.28894  0.01408  0.97009  1.0000
  H   H111      1.0  0.01797  0.25397  0.75295  1.0000
  C   C109      1.0  0.37719  0.18017  0.60467  1.0000
  H   H112      1.0  0.38359  0.19317  0.59965  1.0000
  H   H113      1.0  0.34892  0.15528  0.66364  1.0000
  C   C110      1.0  0.36673  0.17556  0.63436  1.0000
  C   C111      1.0  0.28106  0.02297  0.79774  1.0000
  H   H114      1.0  0.49309  0.03866  0.53212  1.0000
  C   C112      1.0  0.07581  0.25421  0.78042  1.0000
  N   N9        1.0  0.37864  0.16857  0.58211  1.0000
  H   H115      1.0  0.41106  0.18177  0.55052  1.0000
  C   C113      1.0  0.25964  0.02791  0.74810  1.0000
  C   C114      1.0  0.39337  0.01663  0.62654  1.0000
  C   C115      1.0  0.29719  0.00751  0.65985  1.0000
  H   H116      1.0  0.43992  0.03857  0.69368  1.0000
  H   H117      1.0  0.48836  0.01430  0.63773  1.0000
  H   H118      1.0  0.18061  0.32778  0.88463  1.0000
  C   C116      1.0  0.22487  0.00704  0.72405  1.0000
  H   H119      1.0  0.31596  0.03706  0.96083  1.0000
  N   N10       1.0  0.24458  0.01249  0.74932  1.0000
  C   C117      1.0  0.46153  0.01470  0.63494  1.0000
  C   C118      1.0  0.38791  0.17403  0.55095  1.0000
  H   H120      1.0  0.08024  0.26790  0.77794  1.0000
  H   H121      1.0  0.00386  0.24556  0.86404  1.0000
  H   H122      1.0  0.21957  0.32091  0.86670  1.0000
  C   C119      1.0  0.27840  0.03331  0.77212  1.0000
  H   H123      1.0  0.41821  0.03344  0.96537  1.0000
  C   C120      1.0  0.45414  0.02747  0.68516  1.0000
  N   N11       1.0  0.04246  0.25109  0.79464  1.0000
  H   H124      1.0  0.21425  0.07868  0.49826  1.0000
  C   C121      1.0  0.03865  0.24888  0.82545  1.0000
  H   H125      1.0  0.48061  0.03161  0.68130  1.0000
  H   H126      1.0  0.36666  0.01752  0.62359  1.0000
  H   H127      1.0  0.29111  0.04532  0.77069  1.0000
  C   C122      1.0  0.01505  0.25153  0.77720  1.0000
  H   H128      1.0  0.25665  0.27918  0.57692  1.0000
  C   C123      1.0  0.30443  0.00671  0.90826  1.0000
  H   H129      1.0  0.36459  0.18493  0.65195  1.0000
  H   H130      1.0  0.36000  0.16558  0.98353  1.0000
  S   S45       1.0  0.26117  0.02429  0.50834  1.0000
  S   S46       1.0  0.23263  0.23059  0.50775  1.0000
  H   H131      1.0  0.06013  0.24953  0.83954  1.0000
  H   H132      1.0  0.23100  0.06012  0.51642  1.0000
  C   C124      1.0  0.00680  0.24658  0.83949  1.0000
  H   H133      1.0  0.45291  0.01736  0.70279  1.0000
  C   C125      1.0  0.40496  0.01369  0.93483  1.0000
  C   C126      1.0  0.40678  0.02217  0.65333  1.0000
  H   H134      1.0  0.19818  0.01049  0.72829  1.0000
  N   N12       1.0  0.18723  0.25489  0.57813  1.0000
  C   C127      1.0  0.17498  0.25782  0.60712  1.0000
  C   C128      1.0  0.21619  0.26244  0.56724  1.0000
  C   C129      1.0  0.19109  0.26908  0.62557  1.0000
  C   C130      1.0  0.23320  0.27358  0.58525  1.0000
  C   C131      1.0  0.22038  0.27698  0.61450  1.0000
  C   C132      1.0  0.17034  0.24290  0.55915  1.0000
  H   H135      1.0  0.15285  0.25132  0.61629  1.0000
  H   H136      1.0  0.22653  0.25970  0.54465  1.0000
  H   H137      1.0  0.28811  0.00850  0.63715  1.0000
  C   C133      1.0  0.31476  0.02185  0.92077  1.0000
  C   C134      1.0  0.23753  0.07188  0.50357  1.0000
  H   H138      1.0  0.14344  0.24152  0.56617  1.0000
  H   H139      1.0  0.46586  0.00482  0.58955  1.0000
  H   H140      1.0  0.26107  0.26566  0.98709  1.0000
  C   C135      1.0  0.24119  0.26320  0.97197  1.0000
  C   C136      1.0  0.35805  0.15892  0.64093  1.0000
  H   H141      1.0  0.32840  0.03092  0.90650  1.0000
  H   H142      1.0  0.35285  0.13420  0.62260  1.0000
  H   H143      1.0  0.23437  0.01282  0.70217  1.0000
  C   C137      1.0  0.41468  0.01037  0.60341  1.0000
  H   H144      1.0  0.23733  0.04172  0.96765  1.0000
  C   C138      1.0  0.48458  0.04246  0.55462  1.0000
  C   C139      1.0  0.40396  0.02201  0.96262  1.0000
  C   C140      1.0  0.38423  0.01558  0.98701  1.0000
  C   C141      1.0  0.99558  0.28757  0.84133  1.0000
  H   H145      1.0  0.32809  0.00403  0.74200  1.0000
  H   H146      1.0  0.23320  0.06316  0.95515  1.0000
  C   C142      1.0  0.36590  0.00093  0.98349  1.0000
  C   C143      1.0  0.26492  0.00749  0.79908  1.0000
  C   C144      1.0  0.24220  0.05496  0.97365  1.0000
  C   C145      1.0  0.31973  0.00481  0.71908  1.0000
  C   C146      1.0  0.20770  0.33070  0.88139  1.0000
  H   H147      1.0  0.40469  0.00674  0.58199  1.0000
  H   H148      1.0  0.21931  0.32961  0.90374  1.0000
  H   H149      1.0  0.46933  0.24998  0.53680  1.0000
  H   H150      1.0  0.47608  0.23509  0.50742  1.0000
  C   C147      1.0  0.24678  0.00237  0.77450  1.0000
  S   S47       1.0  0.31269  0.00347  0.86887  1.0000
  Fe  Fe25      1.0  0.14163  0.57473  0.08785  1.0000
  S   S48       1.0  0.11626  0.57105  0.13393  1.0000
  S   S49       1.0  0.15868  0.59999  0.06718  1.0000
  Fe  Fe26      1.0  0.13715  0.53739  0.07212  1.0000
  S   S50       1.0  0.11161  0.53107  0.11755  1.0000
  S   S51       1.0  0.13990  0.51408  0.04256  1.0000
  Fe  Fe27      1.0  0.08135  0.55420  0.11051  1.0000
  S   S52       1.0  0.02755  0.55234  0.12738  1.0000
  Fe  Fe28      1.0  0.14829  0.54800  0.13811  1.0000
  S   S53       1.0  0.16636  0.54347  0.18574  1.0000
  S   S54       1.0  0.10377  0.55950  0.06367  1.0000
  S   S55       1.0  0.17713  0.55280  0.09344  1.0000
  Fe  Fe29      1.0  0.14243  0.47528  0.37277  1.0000
  S   S56       1.0  0.16765  0.45586  0.34237  1.0000
  S   S57       1.0  0.17098  0.48985  0.40749  1.0000
  Fe  Fe30      1.0  0.07696  0.47193  0.34176  1.0000
  S   S58       1.0  0.09583  0.45217  0.30967  1.0000
  S   S59       1.0  0.02711  0.48460  0.33929  1.0000
  Fe  Fe31      1.0  0.12020  0.44072  0.35006  1.0000
  S   S60       1.0  0.11513  0.41309  0.36507  1.0000
  Fe  Fe32      1.0  0.14121  0.46870  0.30419  1.0000
  S   S61       1.0  0.16165  0.47320  0.25579  1.0000
  S   S62       1.0  0.09684  0.45945  0.38305  1.0000
  S   S63       1.0  0.12061  0.48918  0.33365  1.0000
  C   C148      1.0  0.06145  0.52377  0.01824  1.0000
  H   H151      1.0  0.22967  0.53011  0.25120  1.0000
  H   H152      1.0  0.06845  0.38606  0.30778  1.0000
  H   H153      1.0  0.02567  0.44921  0.32576  1.0000
  C   C149      1.0  0.12939  0.39420  0.34758  1.0000
  C   C150      1.0  0.14318  0.39387  0.31780  1.0000
  C   C151      1.0  0.15224  0.37844  0.30436  1.0000
  C   C152      1.0  0.14755  0.36314  0.32039  1.0000
  C   C153      1.0  0.13426  0.36349  0.35034  1.0000
  C   C154      1.0  0.12525  0.37892  0.36379  1.0000
  H   H154      1.0  0.14659  0.40548  0.30503  1.0000
  H   H155      1.0  0.16264  0.37834  0.28124  1.0000
  H   H156      1.0  0.13074  0.35187  0.36305  1.0000
  H   H157      1.0  0.11485  0.37902  0.38690  1.0000
  H   H158      1.0  0.03841  0.34870  0.38672  1.0000
  H   H159      1.0  0.03373  0.56026  0.06287  1.0000
  H   H160      1.0  0.23215  0.50671  0.35371  1.0000
  H   H161      1.0  0.08567  0.36838  0.26370  1.0000
  C   C155      1.0  0.06608  0.52912  0.19066  1.0000
  H   H162      1.0  0.03399  0.50816  0.28613  1.0000
  C   C156      1.0  0.15145  0.49986  0.43959  1.0000
  C   C157      1.0  0.11684  0.49899  0.44583  1.0000
  C   C158      1.0  0.04820  0.51861  0.24167  1.0000
  H   H163      1.0  0.02451  0.47639  0.41225  1.0000
  C   C159      1.0  0.07961  0.50079  0.20830  1.0000
  H   H164      1.0  0.10137  0.49209  0.43089  1.0000
  C   C160      1.0  0.23951  0.62912  0.08656  1.0000
  C   C161      1.0  0.16092  0.52376  0.20430  1.0000
  C   C162      1.0  0.15322  0.52310  0.23576  1.0000
  C   C163      1.0  0.15185  0.50763  0.25167  1.0000
  C   C164      1.0  0.15922  0.49273  0.23636  1.0000
  C   C165      1.0  0.16635  0.49338  0.20483  1.0000
  C   C166      1.0  0.16676  0.50879  0.18879  1.0000
  H   H165      1.0  0.14874  0.53462  0.24795  1.0000
  H   H166      1.0  0.14628  0.50731  0.27591  1.0000
  H   H167      1.0  0.17205  0.48192  0.19278  1.0000
  H   H168      1.0  0.17296  0.50914  0.16460  1.0000
  C   C167      1.0  0.15258  0.62033  0.08257  1.0000
  C   C168      1.0  0.14248  0.62268  0.11305  1.0000
  C   C169      1.0  0.14277  0.63888  0.12548  1.0000
  C   C170      1.0  0.15260  0.65293  0.10754  1.0000
  C   C171      1.0  0.16091  0.65072  0.07667  1.0000
  C   C172      1.0  0.16114  0.63448  0.06436  1.0000
  H   H169      1.0  0.13561  0.61196  0.12732  1.0000
  H   H170      1.0  0.13618  0.64046  0.14937  1.0000
  H   H171      1.0  0.16869  0.66138  0.06259  1.0000
  H   H172      1.0  0.16896  0.63280  0.04074  1.0000
  H   H173      1.0  0.18840  0.50523  0.34566  1.0000
  C   C173      1.0  0.23496  0.64144  0.10853  1.0000
  H   H174      1.0  0.13091  0.48542  0.00576  1.0000
  H   H175      1.0  0.07542  0.50628  0.47603  1.0000
  H   H176      1.0  0.09179  0.53446  0.18867  1.0000
  H   H177      1.0  0.24709  0.63257  0.06335  1.0000
  H   H178      1.0  0.21307  0.48665  0.34917  1.0000
  S   S64       1.0  0.15711  0.34401  0.30145  1.0000
  H   H179      1.0  0.09139  0.47611  0.22594  1.0000
  C   C174      1.0  0.23871  0.50367  0.24596  1.0000
  H   H180      1.0  0.23894  0.65456  0.10253  1.0000
  H   H181      1.0  0.03643  0.53059  0.24645  1.0000
  H   H182      1.0  0.21668  0.58715  0.15421  1.0000
  C   C175      1.0  0.14834  0.51100  0.00307  1.0000
  C   C176      1.0  0.23035  0.48691  0.29177  1.0000
  H   H183      1.0  0.23408  0.60301  0.07667  1.0000
  N   N13       1.0  0.22245  0.50102  0.30793  1.0000
  H   H184      1.0  0.22924  0.47462  0.30264  1.0000
  C   C177      1.0  0.04674  0.50602  0.26420  1.0000
  N   N14       1.0  0.06422  0.51582  0.21404  1.0000
  C   C178      1.0  0.22352  0.63691  0.13790  1.0000
  C   C179      1.0  0.15646  0.51704  0.48497  1.0000
  H   H185      1.0  0.20643  0.61671  0.16740  1.0000
  C   C180      1.0  0.05469  0.36481  0.33668  1.0000
  H   H186      1.0  0.24369  0.50461  0.22156  1.0000
  N   N15       1.0  0.22124  0.60803  0.12322  1.0000
  C   C181      1.0  0.23229  0.61239  0.09430  1.0000
  N   N16       1.0  0.05321  0.34769  0.33926  1.0000
  C   C182      1.0  0.06186  0.33791  0.31491  1.0000
  H   H187      1.0  0.05967  0.52411  0.16826  1.0000
  H   H188      1.0  0.21849  0.64654  0.15468  1.0000
  H   H189      1.0  0.19793  0.50967  0.45473  1.0000
  C   C183      1.0  0.07862  0.48793  0.23032  1.0000
  C   C184      1.0  0.21148  0.59065  0.13039  1.0000
  C   C185      1.0  0.07539  0.36261  0.28456  1.0000
  C   C186      1.0  0.10220  0.50706  0.47146  1.0000
  C   C187      1.0  0.21662  0.62005  0.14488  1.0000
  C   C188      1.0  0.07327  0.34519  0.28727  1.0000
  H   H190      1.0  0.04815  0.53949  0.19569  1.0000
  C   C189      1.0  0.21368  0.49983  0.34058  1.0000
  C   C190      1.0  0.06204  0.49060  0.25840  1.0000
  C   C191      1.0  0.23873  0.48804  0.26060  1.0000
  C   C192      1.0  0.17114  0.50891  0.45934  1.0000
  H   H191      1.0  0.08036  0.53376  0.02103  1.0000
  H   H192      1.0  0.08173  0.33735  0.26851  1.0000
  H   H193      1.0  0.21581  0.52754  0.30656  1.0000
  H   H194      1.0  0.18429  0.58910  0.12716  1.0000
  H   H195      1.0  0.22530  0.58169  0.11529  1.0000
  H   H196      1.0  0.24348  0.47675  0.24764  1.0000
  C   C193      1.0  0.23072  0.51798  0.26263  1.0000
  C   C194      1.0  0.99902  0.55151  0.09842  1.0000
  H   H197      1.0  0.09317  0.49875  0.18672  1.0000
  C   C195      1.0  0.22260  0.51641  0.29380  1.0000
  C   C196      1.0  0.06574  0.37252  0.30929  1.0000
  H   H198      1.0  0.06123  0.48080  0.27579  1.0000
  C   C197      1.0  0.04257  0.33956  0.36817  1.0000
  C   C198      1.0  0.00861  0.55600  0.06844  1.0000
  C   C199      1.0  0.00215  0.45479  0.32001  1.0000
  H   H199      1.0  0.06549  0.51437  0.03661  1.0000
  H   H200      1.0  0.03598  0.52925  0.02141  1.0000
  H   H201      1.0  0.04867  0.37263  0.35611  1.0000
  H   H202      1.0  0.04229  0.49319  0.00311  1.0000
  C   C200      1.0  0.99657  0.47193  0.32419  1.0000
  H   H203      1.0  0.16770  0.53569  0.99266  1.0000
  H   H204      1.0  0.00368  0.50196  0.43873  1.0000
  C   C201      1.0  0.99802  0.47949  0.41294  1.0000
  C   C202      1.0  0.14111  0.49527  0.99093  1.0000
  Fe  Fe33      1.0  0.14387  0.57531  0.58707  1.0000
  S   S65       1.0  0.12524  0.56952  0.63487  1.0000
  S   S66       1.0  0.17196  0.59933  0.57319  1.0000
  Fe  Fe34      1.0  0.11834  0.54181  0.56248  1.0000
  S   S67       1.0  0.09801  0.53348  0.60896  1.0000
  S   S68       1.0  0.10164  0.52571  0.52337  1.0000
  Fe  Fe35      1.0  0.07971  0.55989  0.61331  1.0000
  S   S69       1.0  0.02825  0.56496  0.63304  1.0000
  Fe  Fe36      1.0  0.14517  0.54350  0.62711  1.0000
  S   S70       1.0  0.17447  0.53100  0.66436  1.0000
  S   S71       1.0  0.09622  0.56775  0.56600  1.0000
  S   S72       1.0  0.16783  0.54976  0.58024  1.0000
  Fe  Fe37      1.0  0.14372  0.48053  0.87464  1.0000
  S   S73       1.0  0.16428  0.46418  0.83616  1.0000
  S   S74       1.0  0.16912  0.50103  0.90092  1.0000
  Fe  Fe38      1.0  0.07313  0.46836  0.86864  1.0000
  S   S75       1.0  0.08666  0.45114  0.83039  1.0000
  S   S76       1.0  0.02176  0.47363  0.88903  1.0000
  Fe  Fe39      1.0  0.13071  0.44377  0.85730  1.0000
  S   S77       1.0  0.14321  0.41637  0.86938  1.0000
  Fe  Fe40      1.0  0.11874  0.47249  0.81117  1.0000
  S   S78       1.0  0.10902  0.47878  0.76133  1.0000
  S   S79       1.0  0.11426  0.45967  0.89747  1.0000
  S   S80       1.0  0.10121  0.49012  0.84772  1.0000
  S   S81       1.0  0.14214  0.34618  0.80200  1.0000
  C   C203      1.0  0.11233  0.48643  0.61508  1.0000
  H   H205      1.0  0.16217  0.58227  0.71931  1.0000
  H   H206      1.0  0.02931  0.43917  0.87025  1.0000
  C   C204      1.0  0.13673  0.39729  0.85000  1.0000
  C   C205      1.0  0.13323  0.38226  0.86706  1.0000
  C   C206      1.0  0.13303  0.36653  0.85274  1.0000
  C   C207      1.0  0.13680  0.36563  0.82108  1.0000
  C   C208      1.0  0.13919  0.38068  0.80396  1.0000
  C   C209      1.0  0.13896  0.39642  0.81827  1.0000
  H   H207      1.0  0.13156  0.38277  0.89160  1.0000
  H   H208      1.0  0.13110  0.35511  0.86624  1.0000
  H   H209      1.0  0.14230  0.38013  0.77947  1.0000
  H   H210      1.0  0.14218  0.40782  0.80485  1.0000
  H   H211      1.0  0.04369  0.46277  0.76278  1.0000
  H   H212      1.0  0.21547  0.55890  0.63344  1.0000
  H   H213      1.0  0.03660  0.54433  0.57997  1.0000
  H   H214      1.0  0.09518  0.48964  0.54161  1.0000
  H   H215      1.0  0.21749  0.39212  0.83242  1.0000
  C   C210      1.0  0.16836  0.52028  0.95250  1.0000
  C   C211      1.0  0.16091  0.50456  0.94034  1.0000
  C   C212      1.0  0.14707  0.49210  0.95976  1.0000
  C   C213      1.0  0.08686  0.49047  0.56602  1.0000
  C   C214      1.0  0.13906  0.48796  0.63420  1.0000
  H   H216      1.0  0.17925  0.52998  0.93771  1.0000
  H   H217      1.0  0.14149  0.47992  0.95086  1.0000
  C   C215      1.0  0.01091  0.54351  0.58859  1.0000
  C   C216      1.0  0.15491  0.51790  0.69314  1.0000
  C   C217      1.0  0.17381  0.51169  0.71698  1.0000
  C   C218      1.0  0.15968  0.50039  0.73902  1.0000
  C   C219      1.0  0.12662  0.49489  0.73708  1.0000
  C   C220      1.0  0.10766  0.50124  0.71338  1.0000
  C   C221      1.0  0.12148  0.51289  0.69187  1.0000
  H   H218      1.0  0.19968  0.51545  0.71826  1.0000
  H   H219      1.0  0.17471  0.49550  0.75692  1.0000
  H   H220      1.0  0.08210  0.49709  0.71159  1.0000
  H   H221      1.0  0.10649  0.51762  0.67385  1.0000
  C   C222      1.0  0.16048  0.61989  0.58501  1.0000
  C   C223      1.0  0.17768  0.63381  0.57191  1.0000
  C   C224      1.0  0.17076  0.65024  0.58199  1.0000
  C   C225      1.0  0.14695  0.65290  0.60575  1.0000
  C   C226      1.0  0.12960  0.63899  0.61870  1.0000
  C   C227      1.0  0.13603  0.62261  0.60821  1.0000
  H   H222      1.0  0.19671  0.63186  0.55401  1.0000
  C   C228      1.0  0.00202  0.58260  0.55919  1.0000
  H   H223      1.0  0.11121  0.64088  0.63715  1.0000
  H   H224      1.0  0.12263  0.61205  0.61857  1.0000
  H   H225      1.0  0.21429  0.60503  0.62340  1.0000
  C   C229      1.0  0.05382  0.50024  0.98417  1.0000
  H   H226      1.0  0.21058  0.38836  0.88825  1.0000
  C   C230      1.0  0.18560  0.61083  0.66431  1.0000
  C   C231      1.0  0.22367  0.57216  0.63018  1.0000
  C   C232      1.0  0.08032  0.52498  0.96439  1.0000
  C   C233      1.0  0.21054  0.36123  0.88632  1.0000
  C   C234      1.0  0.21703  0.37958  0.84240  1.0000
  N   N17       1.0  0.11554  0.49169  0.58538  1.0000
  H   H227      1.0  0.07088  0.50183  0.56874  1.0000
  C   C235      1.0  0.06725  0.43858  0.76189  1.0000
  H   H228      1.0  0.19369  0.56371  0.68384  1.0000
  H   H229      1.0  0.21895  0.57578  0.60625  1.0000
  H   H230      1.0  0.18451  0.66078  0.57194  1.0000
  H   H231      1.0  0.20641  0.35969  0.91069  1.0000
  H   H232      1.0  0.07157  0.47915  0.57182  1.0000
  C   C236      1.0  0.00354  0.44295  0.86809  1.0000
  C   C237      1.0  0.08395  0.51788  0.93557  1.0000
  C   C238      1.0  0.05696  0.49278  0.95562  1.0000
  H   H233      1.0  0.00368  0.56787  0.51855  1.0000
  C   C239      1.0  0.06357  0.42156  0.76901  1.0000
  H   H234      1.0  0.19447  0.50710  0.58419  1.0000
  H   H235      1.0  0.14706  0.50348  0.55088  1.0000
  C   C240      1.0  0.21562  0.34952  0.83709  1.0000
  C   C241      1.0  0.14468  0.49899  0.57424  1.0000
  C   C242      1.0  0.16880  0.49538  0.62304  1.0000
  C   C243      1.0  0.17167  0.50101  0.59291  1.0000
  H   H236      1.0  0.07542  0.49592  0.90925  1.0000
  C   C244      1.0  0.03264  0.41553  0.78040  1.0000
  H   H237      1.0  0.09690  0.52461  0.91691  1.0000
  H   H238      1.0  0.15655  0.61269  0.70659  1.0000
  C   C245      1.0  0.21314  0.37746  0.87384  1.0000
  H   H239      1.0  0.04805  0.48012  0.95227  1.0000
  C   C246      1.0  0.00583  0.42669  0.78472  1.0000
  H   H240      1.0  0.08891  0.48116  0.62424  1.0000
  H   H241      1.0  0.99555  0.52880  0.55108  1.0000
  H   H242      1.0  0.25093  0.57293  0.63364  1.0000
  C   C247      1.0  0.17376  0.58742  0.69844  1.0000
  C   C248      1.0  0.21836  0.36554  0.82386  1.0000
  C   C249      1.0  0.20310  0.60000  0.64455  1.0000
  H   H243      1.0  0.18929  0.49715  0.63800  1.0000
  C   C250      1.0  0.19160  0.57697  0.67821  1.0000
  N   N18       1.0  0.20534  0.58325  0.65136  1.0000
  C   C251      1.0  0.17063  0.60445  0.69130  1.0000
  C   C252      1.0  0.04010  0.44944  0.76706  1.0000
  H   H244      1.0  0.13651  0.48381  0.65779  1.0000
  N   N19       1.0  0.21217  0.34753  0.86797  1.0000
  C   C253      1.0  0.00045  0.55193  0.61502  1.0000
  H   H245      1.0  0.09137  0.44352  0.75364  1.0000
  H   H246      1.0  0.18325  0.62404  0.65838  1.0000
  C   C254      1.0  0.07220  0.50169  0.93128  1.0000
  H   H247      1.0  0.02875  0.58499  0.55832  1.0000
  N   N20       1.0  0.06567  0.51609  0.98828  1.0000
  C   C255      1.0  0.16178  0.52357  0.98364  1.0000
  H   H248      1.0  0.08480  0.41312  0.76622  1.0000
  H   H249      1.0  0.17193  0.52401  0.49980  1.0000
  N   N21       1.0  0.00988  0.44343  0.77832  1.0000
  H   H250      1.0  0.09023  0.53743  0.96770  1.0000
  H   H251      1.0  0.21498  0.33873  0.82240  1.0000
  H   H252      1.0  0.02962  0.40235  0.78636  1.0000
  H   H253      1.0  0.21968  0.36705  0.79933  1.0000
  C   C256      1.0  0.12184  0.51616  0.49113  1.0000
  Fe  Fe41      1.0  0.37217  0.97767  0.31813  1.0000
  S   S82       1.0  0.34693  0.96353  0.35721  1.0000
  H   H254      1.0  0.08487  0.67982  0.14321  1.0000
  Fe  Fe42      1.0  0.31569  0.97257  0.27625  1.0000
  S   S83       1.0  0.28524  0.95776  0.31213  1.0000
  S   S84       1.0  0.30333  0.97612  0.22658  1.0000
  Fe  Fe43      1.0  0.30136  0.97777  0.34446  1.0000
  C   C257      1.0  0.23971  0.77263  0.04354  1.0000
  Fe  Fe44      1.0  0.33345  0.94455  0.32221  1.0000
  S   S85       1.0  0.34612  0.91728  0.33464  1.0000
  C   C258      1.0  0.26644  0.99864  0.41498  1.0000
  S   S86       1.0  0.36267  0.95792  0.28422  1.0000
  Fe  Fe45      1.0  0.15794  0.69901  0.10449  1.0000
  S   S87       1.0  0.12171  0.71679  0.12813  1.0000
  N   N22       1.0  0.27943  0.94389  0.41254  1.0000
  Fe  Fe46      1.0  0.18271  0.72643  0.05826  1.0000
  S   S88       1.0  0.14750  0.74565  0.07873  1.0000
  H   H255      1.0  0.24410  0.73519  0.40415  1.0000
  Fe  Fe47      1.0  0.16377  0.73581  0.12436  1.0000
  S   S89       1.0  0.17408  0.75418  0.16297  1.0000
  Fe  Fe48      1.0  0.10858  0.72500  0.08120  1.0000
  S   S90       1.0  0.05674  0.72566  0.06097  1.0000
  S   S91       1.0  0.20078  0.71751  0.10379  1.0000
  S   S92       1.0  0.14309  0.70630  0.05767  1.0000
  Fe  Fe49      1.0  0.29754  0.81856  0.32653  1.0000
  S   S93       1.0  0.31430  0.80889  0.37150  1.0000
  S   S94       1.0  0.28136  0.84519  0.31296  1.0000
  Fe  Fe50      1.0  0.29828  0.78328  0.29847  1.0000
  S   S95       1.0  0.31642  0.77112  0.34155  1.0000
  S   S96       1.0  0.29095  0.76781  0.25529  1.0000
  Fe  Fe51      1.0  0.27844  0.78735  0.36687  1.0000
  S   S97       1.0  0.23731  0.77860  0.40224  1.0000
  Fe  Fe52      1.0  0.35161  0.79329  0.34355  1.0000
  S   S98       1.0  0.40479  0.79314  0.36141  1.0000
  S   S99       1.0  0.25859  0.79820  0.32347  1.0000
  S   S100      1.0  0.33649  0.80423  0.29881  1.0000
  C   C259      1.0  0.44537  0.78731  0.34645  1.0000
  C   C260      1.0  0.47273  0.78821  0.36538  1.0000
  H   H256      1.0  0.17255  0.75777  0.33306  1.0000
  C   C261      1.0  0.45139  0.78256  0.31624  1.0000
  H   H257      1.0  0.46842  0.79184  0.38881  1.0000
  H   H258      1.0  0.43072  0.78177  0.30138  1.0000
  C   C262      1.0  0.19726  0.75486  0.47872  1.0000
  H   H259      1.0  0.29159  0.75543  0.08418  1.0000
  H   H260      1.0  0.02860  0.73081  0.12321  1.0000
  H   H261      1.0  0.17276  0.79606  0.06770  1.0000
  S   S101      1.0  0.22310  0.73095  0.01995  1.0000
  C   C263      1.0  0.07514  0.67975  0.09549  1.0000
  C   C264      1.0  0.26136  0.75971  0.45093  1.0000
  C   C265      1.0  0.23376  0.76703  0.43745  1.0000
  C   C266      1.0  0.20174  0.76454  0.45164  1.0000
  H   H262      1.0  0.49313  0.99343  0.32612  1.0000
  H   H263      1.0  0.34983  0.99608  0.00216  1.0000
  H   H264      1.0  0.28621  0.76155  0.44062  1.0000
  H   H265      1.0  0.18014  0.77013  0.44160  1.0000
  H   H266      1.0  0.45607  0.93880  0.37125  1.0000
  C   C267      1.0  0.20664  0.75731  0.18892  1.0000
  C   C268      1.0  0.20164  0.76903  0.21238  1.0000
  C   C269      1.0  0.22679  0.77228  0.23306  1.0000
  C   C270      1.0  0.25768  0.76399  0.23039  1.0000
  C   C271      1.0  0.26269  0.75227  0.20695  1.0000
  C   C272      1.0  0.23739  0.74888  0.18648  1.0000
  H   H267      1.0  0.17800  0.77564  0.21460  1.0000
  H   H268      1.0  0.22223  0.78123  0.25099  1.0000
  H   H269      1.0  0.28636  0.74571  0.20460  1.0000
  H   H270      1.0  0.24177  0.73979  0.16876  1.0000
  C   C273      1.0  0.45126  0.97692  0.33593  1.0000
  C   C274      1.0  0.44092  0.96153  0.34871  1.0000
  C   C275      1.0  0.46419  0.95077  0.36159  1.0000
  H   H271      1.0  0.20975  0.79128  0.02145  1.0000
  H   H272      1.0  0.41518  0.95765  0.34805  1.0000
  S   S102      1.0  0.42287  0.98971  0.31729  1.0000
  H   H273      1.0  0.17974  0.75795  0.99745  1.0000
  C   C276      1.0  0.21392  0.78446  0.04245  1.0000
  H   H274      1.0  0.32136  0.92866  0.42317  1.0000
  C   C277      1.0  0.28922  0.95766  0.43189  1.0000
  H   H275      1.0  0.30566  0.90543  0.39024  1.0000
  N   N23       1.0  0.05189  0.68188  0.07400  1.0000
  C   C278      1.0  0.32818  0.89736  0.32730  1.0000
  C   C279      1.0  0.29952  0.89562  0.31060  1.0000
  C   C280      1.0  0.28561  0.87958  0.30650  1.0000
  C   C281      1.0  0.30020  0.86506  0.31884  1.0000
  C   C282      1.0  0.32901  0.86679  0.33531  1.0000
  C   C283      1.0  0.34280  0.88284  0.33955  1.0000
  H   H276      1.0  0.28798  0.90663  0.30099  1.0000
  H   H277      1.0  0.26331  0.87843  0.29374  1.0000
  H   H278      1.0  0.34051  0.85579  0.34502  1.0000
  H   H279      1.0  0.36493  0.88401  0.35255  1.0000
  H   H280      1.0  0.19995  0.75125  0.28259  1.0000
  N   N24       1.0  0.49314  0.95617  0.27563  1.0000
  C   C284      1.0  0.26198  0.73693  0.38422  1.0000
  H   H281      1.0  0.47097  0.93303  0.26464  1.0000
  C   C285      1.0  0.47562  0.83758  0.37603  1.0000
  H   H282      1.0  0.23710  0.95697  0.39620  1.0000
  H   H283      1.0  0.30001  0.98375  0.16289  1.0000
  H   H284      1.0  0.28513  0.73206  0.32735  1.0000
  C   C286      1.0  0.26000  0.73723  0.32876  1.0000
  C   C287      1.0  0.19689  0.75173  0.33159  1.0000
  H   H285      1.0  0.20142  0.75078  0.37993  1.0000
  H   H286      1.0  0.44533  0.82559  0.34348  1.0000
  S   S103      1.0  0.32759  0.99338  0.30764  1.0000
  H   H287      1.0  0.28139  0.74794  0.04716  1.0000
  H   H288      1.0  0.00131  0.68820  0.06537  1.0000
  H   H289      1.0  0.26099  0.73890  0.08020  1.0000
  C   C288      1.0  0.19870  0.77806  0.09498  1.0000
  H   H290      1.0  0.25574  0.90817  0.35926  1.0000
  H   H291      1.0  0.45429  0.84144  0.39045  1.0000
  C   C289      1.0  0.27105  0.75089  0.07038  1.0000
  C   C290      1.0  0.22446  0.76618  0.09514  1.0000
  H   H292      1.0  0.44577  0.94573  0.29061  1.0000
  C   C291      1.0  0.47055  0.82883  0.34949  1.0000
  C   C292      1.0  0.19323  0.78713  0.06834  1.0000
  C   C293      1.0  0.01510  0.72640  0.07736  1.0000
  C   C294      1.0  0.00953  0.68754  0.11309  1.0000
  H   H293      1.0  0.22807  0.75893  0.11578  1.0000
  C   C295      1.0  0.26211  0.91815  0.37444  1.0000
  N   N25       1.0  0.24440  0.74043  0.35639  1.0000
  C   C296      1.0  0.24298  0.93278  0.37595  1.0000
  C   C297      1.0  0.21231  0.74816  0.30334  1.0000
  H   H294      1.0  0.48816  0.99622  0.24975  1.0000
  H   H295      1.0  0.27727  0.72534  0.38215  1.0000
  H   H296      1.0  0.18253  0.77986  0.11520  1.0000
  C   C298      1.0  0.25683  0.74986  0.47779  1.0000
  S   S104      1.0  0.26373  0.98836  0.37961  1.0000
  N   N26       1.0  0.24431  0.76346  0.06952  1.0000
  H   H297      1.0  0.27861  0.74765  0.38890  1.0000
  H   H298      1.0  0.07048  0.69366  0.03333  1.0000
  C   C299      1.0  0.21336  0.74772  0.35805  1.0000
  C   C300      1.0  0.25200  0.94559  0.39531  1.0000
  C   C301      1.0  0.29879  0.92975  0.41059  1.0000
  N   N27       1.0  0.28127  0.82634  0.23993  1.0000
  C   C302      1.0  0.28863  0.81048  0.23028  1.0000
  C   C303      1.0  0.30611  0.83807  0.24133  1.0000
  C   C304      1.0  0.32148  0.80603  0.22143  1.0000
  C   C305      1.0  0.33928  0.83403  0.23280  1.0000
  C   C306      1.0  0.34695  0.81790  0.22275  1.0000
  C   C307      1.0  0.24679  0.83037  0.25015  1.0000
  H   H299      1.0  0.26915  0.80106  0.22993  1.0000
  H   H300      1.0  0.30053  0.85052  0.24985  1.0000
  H   H301      1.0  0.32717  0.79327  0.21456  1.0000
  H   H302      1.0  0.35893  0.84328  0.23468  1.0000
  H   H303      1.0  0.37265  0.81448  0.21668  1.0000
  H   H304      1.0  0.24314  0.84409  0.25311  1.0000
  H   H305      1.0  0.22879  0.82600  0.23355  1.0000
  H   H306      1.0  0.24089  0.82424  0.27260  1.0000
  H   H307      1.0  0.17244  0.75308  0.48915  1.0000
  H   H308      1.0  0.25650  0.73827  0.28001  1.0000
  C   C308      1.0  0.24402  0.74082  0.30188  1.0000
  C   C309      1.0  0.48497  0.98157  0.33616  1.0000
  H   H309      1.0  0.22161  0.93432  0.36190  1.0000
  C   C310      1.0  0.30557  0.99547  0.20612  1.0000
  C   C311      1.0  0.47176  0.94173  0.28399  1.0000
  C   C312      1.0  0.38685  0.99525  0.21530  1.0000
  C   C313      1.0  0.00821  0.72886  0.10840  1.0000
  H   H310      1.0  0.45228  0.97179  0.26373  1.0000
  H   H311      1.0  0.25544  0.77053  0.02319  1.0000
  C   C314      1.0  0.29006  0.91656  0.39200  1.0000
  C   C315      1.0  0.06233  0.68102  0.04171  1.0000
  C   C316      1.0  0.30382  0.99546  0.17430  1.0000
  H   H312      1.0  0.48136  0.93491  0.30401  1.0000
  C   C317      1.0  0.48430  0.77880  0.30521  1.0000
  C   C318      1.0  0.06611  0.68136  0.12636  1.0000
  C   C319      1.0  0.47923  0.97067  0.26501  1.0000
  H   H313      1.0  0.10097  0.67700  0.08879  1.0000
  H   H314      1.0  0.49408  0.81621  0.31147  1.0000
  H   H315      1.0  0.27838  0.74416  0.48771  1.0000
  H   H316      1.0  0.08349  0.67210  0.03799  1.0000
  S   S105      1.0  0.15770  0.67253  0.12548  1.0000
  C   C320      1.0  0.01947  0.68581  0.08241  1.0000
  H   H317      1.0  0.48859  0.77506  0.28185  1.0000
  H   H318      1.0  0.02590  0.68707  0.15895  1.0000
  H   H319      1.0  0.21312  0.99656  0.42329  1.0000
  H   H320      1.0  0.26700  0.96497  0.44023  1.0000
  H   H321      1.0  0.30635  0.96632  0.41869  1.0000
  H   H322      1.0  0.04148  0.67674  0.02798  1.0000
  C   C321      1.0  0.03310  0.68537  0.13515  1.0000
  H   H323      1.0  0.37973  0.98243  0.22119  1.0000
  H   H324      1.0  0.30197  0.95295  0.45217  1.0000
  H   H325      1.0  0.38191  0.99195  0.16749  1.0000
  Fe  Fe53      1.0  0.37715  0.96281  0.80653  1.0000
  S   S106      1.0  0.35265  0.95787  0.85247  1.0000
  S   S107      1.0  0.43238  0.96569  0.79642  1.0000
  Fe  Fe54      1.0  0.31153  0.96763  0.77603  1.0000
  S   S108      1.0  0.28097  0.96276  0.81989  1.0000
  S   S109      1.0  0.28951  0.97386  0.73036  1.0000
  Fe  Fe55      1.0  0.31852  0.97928  0.84190  1.0000
  C   C322      1.0  0.48782  0.97105  0.82826  1.0000
  Fe  Fe56      1.0  0.31751  0.94142  0.82733  1.0000
  S   S110      1.0  0.30711  0.91607  0.85123  1.0000
  S   S111      1.0  0.34600  0.98539  0.79740  1.0000
  S   S112      1.0  0.34492  0.94509  0.78192  1.0000
  Fe  Fe57      1.0  0.14919  0.69994  0.60392  1.0000
  S   S113      1.0  0.11497  0.71812  0.62922  1.0000
  C   C323      1.0  0.18817  0.75730  0.79977  1.0000
  Fe  Fe58      1.0  0.17832  0.72814  0.56123  1.0000
  S   S114      1.0  0.14503  0.74758  0.58353  1.0000
  H   H326      1.0  0.22686  0.99322  0.72118  1.0000
  Fe  Fe59      1.0  0.15935  0.73574  0.62817  1.0000
  S   S115      1.0  0.17155  0.75379  0.66675  1.0000
  Fe  Fe60      1.0  0.10356  0.72827  0.58315  1.0000
  S   S116      1.0  0.05171  0.73237  0.56374  1.0000
  S   S117      1.0  0.19431  0.71696  0.60602  1.0000
  S   S118      1.0  0.13620  0.70952  0.55767  1.0000
  Fe  Fe61      1.0  0.29682  0.81654  0.82023  1.0000
  S   S119      1.0  0.31537  0.81044  0.86629  1.0000
  S   S120      1.0  0.29049  0.84243  0.79805  1.0000
  Fe  Fe62      1.0  0.29543  0.77940  0.80204  1.0000
  S   S121      1.0  0.31566  0.77074  0.84709  1.0000
  S   S122      1.0  0.28412  0.75982  0.76574  1.0000
  Fe  Fe63      1.0  0.27866  0.78889  0.86851  1.0000
  S   S123      1.0  0.24109  0.78402  0.90918  1.0000
  Fe  Fe64      1.0  0.35152  0.79276  0.84194  1.0000
  S   S124      1.0  0.40489  0.79708  0.85789  1.0000
  S   S125      1.0  0.25688  0.79647  0.82377  1.0000
  S   S126      1.0  0.33432  0.79985  0.79556  1.0000
  C   C324      1.0  0.44618  0.79089  0.84533  1.0000
  C   C325      1.0  0.45225  0.77791  0.82477  1.0000
  H   H327      1.0  0.36936  0.89315  0.86457  1.0000
  C   C326      1.0  0.47382  0.79886  0.85762  1.0000
  H   H328      1.0  0.43138  0.77161  0.81514  1.0000
  H   H329      1.0  0.46953  0.80890  0.87358  1.0000
  H   H330      1.0  0.35278  0.98166  0.95275  1.0000
  H   H331      1.0  0.38138  0.82507  0.81950  1.0000
  H   H332      1.0  0.26429  0.99002  0.97172  1.0000
  H   H333      1.0  0.02267  0.72624  0.62573  1.0000
  H   H334      1.0  0.23520  0.99005  0.77534  1.0000
  C   C327      1.0  0.00987  0.72996  0.57928  1.0000
  C   C328      1.0  0.20716  0.76909  0.95854  1.0000
  C   C329      1.0  0.23623  0.76870  0.93913  1.0000
  C   C330      1.0  0.26033  0.75637  0.94432  1.0000
  H   H335      1.0  0.27774  0.76504  0.66079  1.0000
  H   H336      1.0  0.08577  0.68419  0.52465  1.0000
  H   H337      1.0  0.18826  0.77851  0.95477  1.0000
  H   H338      1.0  0.28288  0.75589  0.92977  1.0000
  C   C331      1.0  0.05034  0.68058  0.61080  1.0000
  C   C332      1.0  0.20304  0.75502  0.69423  1.0000
  C   C333      1.0  0.22750  0.74263  0.69758  1.0000
  C   C334      1.0  0.25225  0.74446  0.71920  1.0000
  C   C335      1.0  0.25314  0.75869  0.73777  1.0000
  C   C336      1.0  0.22879  0.77111  0.73431  1.0000
  C   C337      1.0  0.20393  0.76925  0.71281  1.0000
  H   H339      1.0  0.22733  0.73163  0.68352  1.0000
  H   H340      1.0  0.27084  0.73471  0.72162  1.0000
  H   H341      1.0  0.22897  0.78213  0.74835  1.0000
  H   H342      1.0  0.18528  0.77897  0.71048  1.0000
  C   C338      1.0  0.45610  0.96367  0.82865  1.0000
  H   H343      1.0  0.27457  0.73545  0.97269  1.0000
  C   C339      1.0  0.06487  0.68297  0.58156  1.0000
  C   C340      1.0  0.44477  0.95397  0.85380  1.0000
  N   N28       1.0  0.04571  0.68763  0.55796  1.0000
  H   H344      1.0  0.42071  0.94786  0.85387  1.0000
  C   C341      1.0  0.30204  0.99146  0.70736  1.0000
  C   C342      1.0  0.00252  0.72683  0.61022  1.0000
  H   H345      1.0  0.48083  0.76414  0.89054  1.0000
  C   C343      1.0  0.37512  0.85012  0.80161  1.0000
  H   H346      1.0  0.27849  0.98343  0.91759  1.0000
  H   H347      1.0  0.38792  0.00001  0.88301  1.0000
  C   C344      1.0  0.30136  0.89578  0.83594  1.0000
  C   C345      1.0  0.29908  0.89320  0.80479  1.0000
  C   C346      1.0  0.29515  0.87683  0.79375  1.0000
  C   C347      1.0  0.29418  0.86279  0.81355  1.0000
  C   C348      1.0  0.29692  0.86534  0.84467  1.0000
  C   C349      1.0  0.30013  0.88175  0.85578  1.0000
  H   H348      1.0  0.29994  0.90383  0.78923  1.0000
  H   H349      1.0  0.29299  0.87501  0.76964  1.0000
  H   H350      1.0  0.29618  0.85470  0.86019  1.0000
  H   H351      1.0  0.30180  0.88358  0.87993  1.0000
  N   N29       1.0  0.23118  0.74529  0.82960  1.0000
  C   C350      1.0  0.21439  0.74590  0.80329  1.0000
  C   C351      1.0  0.22149  0.75527  0.85342  1.0000
  C   C352      1.0  0.25883  0.73338  0.83256  1.0000
  H   H352      1.0  0.22195  0.73791  0.78446  1.0000
  H   H353      1.0  0.23435  0.75459  0.87452  1.0000
  H   H354      1.0  0.24880  0.72065  0.83790  1.0000
  H   H355      1.0  0.27466  0.73303  0.81109  1.0000
  H   H356      1.0  0.27558  0.73712  0.85070  1.0000
  H   H357      1.0  0.39441  0.83462  0.87073  1.0000
  H   H358      1.0  0.17001  0.77964  0.61877  1.0000
  C   C353      1.0  0.38964  0.86100  0.85893  1.0000
  C   C354      1.0  0.99653  0.68757  0.59156  1.0000
  C   C355      1.0  0.27496  0.75292  0.61751  1.0000
  C   C356      1.0  0.20222  0.75740  0.98280  1.0000
  C   C357      1.0  0.25776  0.75210  0.59078  1.0000
  N   N30       1.0  0.22102  0.77415  0.60838  1.0000
  C   C358      1.0  0.19149  0.78475  0.60456  1.0000
  H   H359      1.0  0.09164  0.68122  0.57798  1.0000
  C   C359      1.0  0.48543  0.77281  0.81709  1.0000
  H   H360      1.0  0.26687  0.99942  0.81895  1.0000
  N   N31       1.0  0.38291  0.87245  0.83660  1.0000
  H   H361      1.0  0.19643  0.79779  0.61162  1.0000
  C   C360      1.0  0.29122  0.99281  0.67750  1.0000
  H   H362      1.0  0.99703  0.69455  0.54434  1.0000
  H   H363      1.0  0.06649  0.70464  0.52494  1.0000
  C   C361      1.0  0.23781  0.77507  0.63463  1.0000
  C   C362      1.0  0.23065  0.76286  0.58658  1.0000
  H   H364      1.0  0.36812  0.84595  0.77945  1.0000
  H   H365      1.0  0.22943  0.78360  0.65238  1.0000
  S   S127      1.0  0.22081  0.73438  0.52550  1.0000
  C   C363      1.0  0.38200  0.83837  0.82421  1.0000
  H   H366      1.0  0.39511  0.86513  0.88147  1.0000
  H   H367      1.0  0.27750  0.98255  0.66819  1.0000
  C   C364      1.0  0.22479  0.74733  0.49193  1.0000
  H   H368      1.0  0.17573  0.75810  0.77844  1.0000
  C   C365      1.0  0.26507  0.76452  0.63957  1.0000
  C   C366      1.0  0.01200  0.69009  0.56270  1.0000
  H   H369      1.0  0.18419  0.78525  0.58053  1.0000
  H   H370      1.0  0.26495  0.74302  0.57352  1.0000
  C   C367      1.0  0.38422  0.89041  0.84322  1.0000
  C   C368      1.0  0.46558  0.95131  0.87820  1.0000
  H   H371      1.0  0.21718  0.76196  0.56588  1.0000
  H   H372      1.0  0.41053  0.89444  0.84551  1.0000
  H   H373      1.0  0.45729  0.94335  0.89718  1.0000
  C   C369      1.0  0.19529  0.76677  0.85076  1.0000
  C   C370      1.0  0.06156  0.69097  0.52778  1.0000
  C   C371      1.0  0.37591  0.86722  0.80815  1.0000
  C   C372      1.0  0.17880  0.76789  0.82362  1.0000
  H   H374      1.0  0.36985  0.87623  0.79057  1.0000
  H   H375      1.0  0.37312  0.89821  0.82511  1.0000
  H   H376      1.0  0.29565  0.74445  0.62127  1.0000
  C   C373      1.0  0.28684  0.99509  0.92696  1.0000
  H   H377      1.0  0.00444  0.68148  0.63847  1.0000
  H   H378      1.0  0.18837  0.77499  0.86948  1.0000
  H   H379      1.0  0.15898  0.77703  0.82103  1.0000
  C   C374      1.0  0.38930  0.84379  0.85307  1.0000
  H   H380      1.0  0.48971  0.76259  0.80151  1.0000
  C   C375      1.0  0.36754  0.99290  0.95543  1.0000
  C   C376      1.0  0.01594  0.68293  0.61579  1.0000
  H   H381      1.0  0.04517  0.68693  0.50963  1.0000
  C   C377      1.0  0.25552  0.74478  0.96875  1.0000
  H   H382      1.0  0.06591  0.67719  0.62947  1.0000
  S   S128      1.0  0.13918  0.67306  0.62146  1.0000
  C   C378      1.0  0.38838  0.99082  0.90224  1.0000
  C   C379      1.0  0.22650  0.74520  0.98822  1.0000
  H   H383      1.0  0.36639  0.98251  0.89992  1.0000
  C   C380      1.0  0.27874  0.99888  0.95763  1.0000
  N   N32       1.0  0.38661  0.99942  0.93146  1.0000
  H   H384      1.0  0.41159  0.98316  0.89993  1.0000
  Fe  Fe65      1.0  0.78039  0.28259  0.36714  1.0000
  S   S129      1.0  0.79699  0.26200  0.33530  1.0000
  S   S130      1.0  0.76747  0.27875  0.41837  1.0000
  Fe  Fe66      1.0  0.79484  0.31012  0.31813  1.0000
  S   S131      1.0  0.81138  0.29105  0.28322  1.0000
  Fe  Fe67      1.0  0.76721  0.27556  0.30008  1.0000
  S   S132      1.0  0.72595  0.26370  0.27241  1.0000
  Fe  Fe68      1.0  0.84010  0.27926  0.32081  1.0000
  S   S133      1.0  0.89374  0.26980  0.31076  1.0000
  S   S134      1.0  0.74848  0.29551  0.33285  1.0000
  S   S135      1.0  0.82571  0.29894  0.35476  1.0000
  Fe  Fe69      1.0  0.58935  0.21853  0.09194  1.0000
  S   S136      1.0  0.60552  0.20801  0.04677  1.0000
  S   S137      1.0  0.53441  0.21862  0.11032  1.0000
  Fe  Fe70      1.0  0.66249  0.22352  0.10998  1.0000
  S   S138      1.0  0.68307  0.21269  0.06546  1.0000
  S   S139      1.0  0.70384  0.23291  0.14052  1.0000
  Fe  Fe71      1.0  0.64451  0.22846  0.04316  1.0000
  S   S140      1.0  0.65089  0.24281  0.99751  1.0000
  Fe  Fe72      1.0  0.64305  0.19288  0.07210  1.0000
  S   S141      1.0  0.64718  0.16614  0.05393  1.0000
  S   S142      1.0  0.62549  0.24038  0.08700  1.0000
  S   S143      1.0  0.62518  0.20232  0.11794  1.0000
  Fe  Fe73      1.0  0.64061  0.03188  0.12797  1.0000
  S   S144      1.0  0.66782  0.04724  0.09078  1.0000
  N   N33       1.0  0.70113  0.04266  0.20708  1.0000
  Fe  Fe74      1.0  0.57433  0.04835  0.11663  1.0000
  S   S145      1.0  0.59509  0.06491  0.07887  1.0000
  S   S146      1.0  0.52098  0.04942  0.13448  1.0000
  Fe  Fe75      1.0  0.62303  0.04165  0.06319  1.0000
  C   C381      1.0  0.88936  0.25420  0.38206  1.0000
  Fe  Fe76      1.0  0.63776  0.06936  0.10884  1.0000
  S   S147      1.0  0.65619  0.09518  0.12297  1.0000
  S   S148      1.0  0.59824  0.02483  0.09893  1.0000
  S   S149      1.0  0.61469  0.05427  0.14813  1.0000
  C   C382      1.0  0.49643  0.22022  0.09086  1.0000
  H   H385      1.0  0.61451  0.02584  0.45081  1.0000
  C   C383      1.0  0.96674  0.29596  0.35229  1.0000
  H   H386      1.0  0.61465  0.02593  0.19808  1.0000
  C   C384      1.0  0.82620  0.24737  0.40795  1.0000
  C   C385      1.0  0.68790  0.31946  0.28551  1.0000
  H   H387      1.0  0.73634  0.04305  0.13568  1.0000
  C   C386      1.0  0.63586  0.01957  0.99056  1.0000
  S   S150      1.0  0.61947  0.03643  0.01265  1.0000
  C   C387      1.0  0.72274  0.04754  0.15587  1.0000
  H   H388      1.0  0.53110  0.23382  0.47917  1.0000
  C   C388      1.0  0.57622  0.15371  0.12939  1.0000
  H   H389      1.0  0.68631  0.28767  0.23540  1.0000
  C   C389      1.0  0.73861  0.26555  0.47185  1.0000
  H   H390      1.0  0.53280  0.04595  0.06962  1.0000
  C   C390      1.0  0.65022  0.14658  0.07365  1.0000
  C   C391      1.0  0.65670  0.14550  0.10452  1.0000
  C   C392      1.0  0.65875  0.12967  0.11912  1.0000
  C   C393      1.0  0.65380  0.11476  0.10323  1.0000
  C   C394      1.0  0.64706  0.11585  0.07241  1.0000
  C   C395      1.0  0.64561  0.13166  0.05769  1.0000
  H   H391      1.0  0.66056  0.15684  0.11707  1.0000
  H   H392      1.0  0.66421  0.12900  0.14291  1.0000
  H   H393      1.0  0.64350  0.10451  0.05977  1.0000
  H   H394      1.0  0.64080  0.13232  0.03375  1.0000
  C   C396      1.0  0.73889  0.26535  0.43984  1.0000
  C   C397      1.0  0.50622  0.04739  0.07454  1.0000
  C   C398      1.0  0.67569  0.30581  0.27001  1.0000
  H   H395      1.0  0.67349  0.03288  0.24600  1.0000
  C   C399      1.0  0.69446  0.24435  0.44414  1.0000
  C   C400      1.0  0.71672  0.25457  0.42611  1.0000
  H   H396      1.0  0.57677  0.00541  0.03829  1.0000
  C   C401      1.0  0.68584  0.05802  0.20699  1.0000
  H   H397      1.0  0.67733  0.23618  0.43314  1.0000
  H   H398      1.0  0.71647  0.25421  0.40159  1.0000
  C   C402      1.0  0.72072  0.25480  0.23581  1.0000
  C   C403      1.0  0.74748  0.25227  0.21469  1.0000
  C   C404      1.0  0.74172  0.24561  0.18582  1.0000
  C   C405      1.0  0.70921  0.24133  0.17747  1.0000
  C   C406      1.0  0.68245  0.24390  0.19859  1.0000
  C   C407      1.0  0.68822  0.25054  0.22749  1.0000
  H   H399      1.0  0.77268  0.25529  0.22063  1.0000
  H   H400      1.0  0.76269  0.24362  0.16982  1.0000
  H   H401      1.0  0.65734  0.24066  0.19272  1.0000
  H   H402      1.0  0.66726  0.25232  0.24357  1.0000
  H   H403      1.0  0.58025  0.10187  0.09105  1.0000
  H   H404      1.0  0.67295  0.32506  0.30391  1.0000
  H   H405      1.0  0.57945  0.13051  0.15446  1.0000
  H   H406      1.0  0.51914  0.22741  0.04738  1.0000
  C   C408      1.0  0.93512  0.29059  0.34314  1.0000
  C   C409      1.0  0.93296  0.27810  0.32134  1.0000
  C   C410      1.0  0.96288  0.27121  0.30871  1.0000
  H   H407      1.0  0.91244  0.29595  0.35327  1.0000
  H   H408      1.0  0.96163  0.26150  0.29193  1.0000
  H   H409      1.0  0.59265  0.23659  0.48272  1.0000
  H   H410      1.0  0.91388  0.25716  0.37177  1.0000
  H   H411      1.0  0.59758  0.01860  0.25153  1.0000
  S   S151      1.0  0.66579  0.01178  0.15635  1.0000
  H   H412      1.0  0.56372  0.15671  0.05388  1.0000
  C   C411      1.0  0.87652  0.26407  0.40587  1.0000
  C   C412      1.0  0.84471  0.26061  0.41884  1.0000
  H   H413      1.0  0.71771  0.03628  0.25078  1.0000
  H   H414      1.0  0.96801  0.30545  0.36946  1.0000
  H   H415      1.0  0.66430  0.19418  0.00822  1.0000
  C   C413      1.0  0.68720  0.19075  0.99439  1.0000
  C   C414      1.0  0.61598  0.01096  0.23936  1.0000
  H   H416      1.0  0.86852  0.23467  0.32512  1.0000
  H   H417      1.0  0.91002  0.23489  0.33848  1.0000
  H   H418      1.0  0.70340  0.01873  0.22949  1.0000
  H   H419      1.0  0.70910  0.07113  0.13529  1.0000
  H   H420      1.0  0.58115  0.16148  0.14867  1.0000
  H   H421      1.0  0.72282  0.23534  0.00080  1.0000
  C   C415      1.0  0.74853  0.29625  0.21639  1.0000
  C   C416      1.0  0.56529  0.13359  0.08008  1.0000
  C   C417      1.0  0.71972  0.03744  0.18209  1.0000
  C   C418      1.0  0.69893  0.03217  0.23473  1.0000
  H   H422      1.0  0.56164  0.12581  0.06054  1.0000
  H   H423      1.0  0.66576  0.00861  0.02500  1.0000
  C   C419      1.0  0.57530  0.13621  0.13247  1.0000
  H   H424      1.0  0.58353  0.10368  0.13092  1.0000
  H   H425      1.0  0.76564  0.28746  0.22785  1.0000
  C   C420      1.0  0.69561  0.29859  0.24673  1.0000
  H   H426      1.0  0.88218  0.21802  0.35025  1.0000
  C   C421      1.0  0.57168  0.16113  0.10102  1.0000
  C   C422      1.0  0.88356  0.23168  0.34511  1.0000
  H   H427      1.0  0.57317  0.17467  0.09811  1.0000
  H   H428      1.0  0.75558  0.27380  0.48282  1.0000
  N   N34       1.0  0.87086  0.24135  0.37126  1.0000
  H   H429      1.0  0.82469  0.22791  0.37494  1.0000
  H   H430      1.0  0.89091  0.27452  0.41376  1.0000
  C   C423      1.0  0.83970  0.23783  0.38394  1.0000
  H   H431      1.0  0.73362  0.28884  0.20064  1.0000
  C   C424      1.0  0.62642  0.01531  0.46167  1.0000
  H   H432      1.0  0.80105  0.24490  0.41743  1.0000
  C   C425      1.0  0.65767  0.00756  0.00203  1.0000
  H   H433      1.0  0.54255  0.10381  0.11517  1.0000
  C   C426      1.0  0.56614  0.15104  0.07619  1.0000
  C   C427      1.0  0.65009  0.00572  0.19325  1.0000
  H   H434      1.0  0.83400  0.26838  0.43686  1.0000
  H   H435      1.0  0.67109  0.06217  0.22676  1.0000
  C   C428      1.0  0.62563  0.01516  0.20903  1.0000
  C   C429      1.0  0.73929  0.31794  0.25461  1.0000
  N   N35       1.0  0.57023  0.12639  0.10789  1.0000
  C   C430      1.0  0.70724  0.06321  0.15557  1.0000
  C   C431      1.0  0.56889  0.10808  0.11149  1.0000
  C   C432      1.0  0.69406  0.24459  0.47615  1.0000
  H   H436      1.0  0.67615  0.08061  0.18096  1.0000
  H   H437      1.0  0.76367  0.30547  0.20253  1.0000
  H   H438      1.0  0.65130  0.30057  0.27639  1.0000
  C   C433      1.0  0.51750  0.00199  0.45996  1.0000
  C   C434      1.0  0.71981  0.32566  0.27767  1.0000
  C   C435      1.0  0.68869  0.06853  0.18127  1.0000
  H   H439      1.0  0.73119  0.02510  0.18182  1.0000
  N   N36       1.0  0.72700  0.30466  0.23934  1.0000
  H   H440      1.0  0.53763  0.02218  0.00829  1.0000
  H   H441      1.0  0.70884  0.19319  0.00860  1.0000
  H   H442      1.0  0.76451  0.32250  0.24936  1.0000
  H   H443      1.0  0.50005  0.01238  0.46256  1.0000
  C   C436      1.0  0.49582  0.22521  0.06033  1.0000
  C   C437      1.0  0.54715  0.01032  0.99963  1.0000
  C   C438      1.0  0.63483  0.00097  0.44454  1.0000
  C   C439      1.0  0.71646  0.25525  0.48989  1.0000
  C   C440      1.0  0.99452  0.27674  0.31755  1.0000
  H   H444      1.0  0.62940  0.00056  0.42074  1.0000
  C   C441      1.0  0.56906  0.00085  0.01661  1.0000
  Fe  Fe77      1.0  0.78450  0.27348  0.86214  1.0000
  S   S152      1.0  0.80199  0.26296  0.81654  1.0000
  S   S153      1.0  0.77736  0.25765  0.90609  1.0000
  Fe  Fe78      1.0  0.79029  0.31011  0.83828  1.0000
  S   S154      1.0  0.80646  0.30208  0.79125  1.0000
  Fe  Fe79      1.0  0.76671  0.28188  0.79675  1.0000
  S   S155      1.0  0.72713  0.27728  0.76116  1.0000
  Fe  Fe80      1.0  0.84056  0.28385  0.81435  1.0000
  S   S156      1.0  0.89480  0.28376  0.79466  1.0000
  S   S157      1.0  0.74768  0.29154  0.84283  1.0000
  S   S158      1.0  0.82595  0.29264  0.86097  1.0000
  Fe  Fe81      1.0  0.59036  0.22509  0.59409  1.0000
  S   S159      1.0  0.60274  0.20954  0.55333  1.0000
  S   S160      1.0  0.53867  0.23683  0.60471  1.0000
  Fe  Fe82      1.0  0.66200  0.22210  0.61638  1.0000
  S   S161      1.0  0.67856  0.20570  0.57648  1.0000
  S   S162      1.0  0.70286  0.22818  0.65006  1.0000
  Fe  Fe83      1.0  0.65100  0.22419  0.54751  1.0000
  H   H445      1.0  0.73573  0.28286  0.97688  1.0000
  Fe  Fe84      1.0  0.62937  0.19216  0.58509  1.0000
  S   S163      1.0  0.61394  0.16465  0.57907  1.0000
  S   S164      1.0  0.63689  0.24121  0.58661  1.0000
  S   S165      1.0  0.61456  0.20721  0.62662  1.0000
  Fe  Fe85      1.0  0.64175  0.03050  0.62973  1.0000
  S   S166      1.0  0.66909  0.04428  0.59070  1.0000
  S   S167      1.0  0.66808  0.01252  0.66136  1.0000
  Fe  Fe86      1.0  0.57678  0.04763  0.61773  1.0000
  S   S168      1.0  0.59784  0.06287  0.57829  1.0000
  S   S169      1.0  0.52395  0.05005  0.63601  1.0000
  Fe  Fe87      1.0  0.62362  0.03879  0.56417  1.0000
  H   H446      1.0  0.69649  0.30084  0.68700  1.0000
  Fe  Fe88      1.0  0.64135  0.06730  0.60727  1.0000
  S   S170      1.0  0.66974  0.09191  0.61188  1.0000
  S   S171      1.0  0.59851  0.02321  0.60175  1.0000
  S   S172      1.0  0.61796  0.05389  0.64817  1.0000
  H   H447      1.0  0.74801  0.21227  0.91113  1.0000
  C   C442      1.0  0.73551  0.31631  0.91275  1.0000
  H   H448      1.0  0.79317  0.27715  0.96390  1.0000
  C   C443      1.0  0.62569  0.01800  0.96063  1.0000
  C   C444      1.0  0.54514  0.01161  0.50486  1.0000
  H   H449      1.0  0.60892  0.02724  0.95150  1.0000
  C   C445      1.0  0.72366  0.21069  0.92283  1.0000
  H   H450      1.0  0.77108  0.24116  0.96441  1.0000
  H   H451      1.0  0.59624  0.11088  0.50325  1.0000
  H   H452      1.0  0.80941  0.29810  0.96891  1.0000
  H   H453      1.0  0.70028  0.08846  0.54443  1.0000
  C   C446      1.0  0.64878  0.00241  0.50632  1.0000
  C   C447      1.0  0.61931  0.10601  0.51192  1.0000
  C   C448      1.0  0.71897  0.24208  0.97976  1.0000
  H   H454      1.0  0.53382  0.04166  0.57256  1.0000
  C   C449      1.0  0.62885  0.14491  0.59209  1.0000
  C   C450      1.0  0.66133  0.14267  0.60194  1.0000
  C   C451      1.0  0.67321  0.12640  0.60860  1.0000
  C   C452      1.0  0.65280  0.11222  0.60553  1.0000
  C   C453      1.0  0.62014  0.11448  0.59625  1.0000
  C   C454      1.0  0.60831  0.13071  0.58956  1.0000
  H   H455      1.0  0.67753  0.15344  0.60377  1.0000
  H   H456      1.0  0.69856  0.12481  0.61572  1.0000
  H   H457      1.0  0.60411  0.10371  0.59379  1.0000
  H   H458      1.0  0.58316  0.13228  0.58194  1.0000
  C   C455      1.0  0.74186  0.25400  0.93135  1.0000
  C   C456      1.0  0.74631  0.24540  0.95902  1.0000
  H   H459      1.0  0.86650  0.32615  0.84246  1.0000
  H   H460      1.0  0.63810  0.20685  0.96675  1.0000
  C   C457      1.0  0.68235  0.25615  0.94559  1.0000
  C   C458      1.0  0.70966  0.25941  0.92479  1.0000
  C   C459      1.0  0.70545  0.29926  0.95059  1.0000
  H   H461      1.0  0.96097  0.25021  0.77684  1.0000
  H   H462      1.0  0.65751  0.26027  0.94012  1.0000
  H   H463      1.0  0.70576  0.26604  0.90365  1.0000
  C   C460      1.0  0.71950  0.26179  0.73324  1.0000
  C   C461      1.0  0.74426  0.25064  0.72242  1.0000
  C   C462      1.0  0.73816  0.24003  0.69781  1.0000
  C   C463      1.0  0.70727  0.24030  0.68360  1.0000
  C   C464      1.0  0.68212  0.25101  0.69514  1.0000
  C   C465      1.0  0.68825  0.26166  0.71967  1.0000
  H   H464      1.0  0.76839  0.25048  0.73251  1.0000
  H   H465      1.0  0.75777  0.23171  0.68940  1.0000
  H   H466      1.0  0.65816  0.25136  0.68474  1.0000
  H   H467      1.0  0.66878  0.27014  0.72783  1.0000
  C   C466      1.0  0.67250  0.11060  0.53205  1.0000
  C   C467      1.0  0.58839  0.25243  0.52179  1.0000
  C   C468      1.0  0.96562  0.28466  0.85876  1.0000
  H   H468      1.0  0.51766  0.21158  0.56151  1.0000
  C   C469      1.0  0.93443  0.28410  0.84506  1.0000
  C   C470      1.0  0.93283  0.28625  0.81361  1.0000
  C   C471      1.0  0.96269  0.28955  0.79625  1.0000
  H   H469      1.0  0.91178  0.28150  0.85875  1.0000
  H   H470      1.0  0.96178  0.29127  0.77191  1.0000
  N   N37       1.0  0.66275  0.07571  0.69687  1.0000
  C   C472      1.0  0.64665  0.06614  0.71911  1.0000
  C   C473      1.0  0.68969  0.06939  0.68039  1.0000
  C   C474      1.0  0.65808  0.04998  0.72595  1.0000
  C   C475      1.0  0.67779  0.09329  0.53456  1.0000
  C   C476      1.0  0.68593  0.04361  0.70968  1.0000
  C   C477      1.0  0.64947  0.09230  0.68914  1.0000
  H   H471      1.0  0.62449  0.07086  0.73135  1.0000
  C   C478      1.0  0.70531  0.31125  0.92719  1.0000
  H   H472      1.0  0.64504  0.04225  0.74323  1.0000
  C   C479      1.0  0.66441  0.21652  0.92665  1.0000
  H   H473      1.0  0.63878  0.09871  0.70961  1.0000
  H   H474      1.0  0.66938  0.10057  0.67867  1.0000
  H   H475      1.0  0.62969  0.09101  0.67242  1.0000
  N   N38       1.0  0.74263  0.26800  0.63670  1.0000
  C   C480      1.0  0.75896  0.27560  0.65936  1.0000
  C   C481      1.0  0.71022  0.27221  0.63130  1.0000
  C   C482      1.0  0.74274  0.28767  0.67750  1.0000
  C   C483      1.0  0.69330  0.28429  0.64893  1.0000
  C   C484      1.0  0.70971  0.29201  0.67223  1.0000
  C   C485      1.0  0.76018  0.25518  0.61846  1.0000
  H   H476      1.0  0.78424  0.27187  0.66428  1.0000
  H   H477      1.0  0.69686  0.26576  0.61408  1.0000
  H   H478      1.0  0.66725  0.28715  0.64531  1.0000
  H   H479      1.0  0.52116  0.01237  0.51857  1.0000
  H   H480      1.0  0.77004  0.24525  0.63361  1.0000
  H   H481      1.0  0.74311  0.24874  0.60318  1.0000
  H   H482      1.0  0.78108  0.26091  0.60445  1.0000
  H   H483      1.0  0.81409  0.28764  0.93265  1.0000
  H   H484      1.0  0.95379  0.24582  0.83258  1.0000
  C   C486      1.0  0.68672  0.24736  0.97310  1.0000
  H   H485      1.0  0.60300  0.01958  0.69140  1.0000
  C   C487      1.0  0.73592  0.29236  0.95897  1.0000
  N   N39       1.0  0.64348  0.11675  0.52091  1.0000
  H   H486      1.0  0.61285  0.13860  0.52503  1.0000
  C   C488      1.0  0.62387  0.08862  0.51399  1.0000
  C   C489      1.0  0.69541  0.21810  0.91094  1.0000
  C   C490      1.0  0.49556  0.21792  0.57070  1.0000
  C   C491      1.0  0.64890  0.00598  0.69678  1.0000
  H   H487      1.0  0.64246  0.22266  0.91811  1.0000
  H   H488      1.0  0.57618  0.26703  0.56158  1.0000
  H   H489      1.0  0.72239  0.04806  0.67294  1.0000
  H   H490      1.0  0.69471  0.03099  0.71434  1.0000
  H   H491      1.0  0.65699  0.06878  0.52735  1.0000
  H   H492      1.0  0.74255  0.19615  0.95967  1.0000
  C   C492      1.0  0.70164  0.05326  0.68653  1.0000
  H   H493      1.0  0.75512  0.29301  0.69652  1.0000
  H   H494      1.0  0.70168  0.07668  0.66196  1.0000
  H   H495      1.0  0.96663  0.28253  0.88300  1.0000
  C   C493      1.0  0.61688  0.01147  0.70617  1.0000
  S   S173      1.0  0.62146  0.03439  0.51316  1.0000
  C   C494      1.0  0.63869  0.13490  0.51728  1.0000
  H   H496      1.0  0.55177  0.02427  0.49549  1.0000
  C   C495      1.0  0.65336  0.08226  0.52532  1.0000
  H   H497      1.0  0.51520  0.26407  0.55740  1.0000
  H   H498      1.0  0.69776  0.22546  0.89001  1.0000
  H   H499      1.0  0.52194  0.01216  0.95757  1.0000
  N   N40       1.0  0.69001  0.20043  0.96584  1.0000
  H   H500      1.0  0.64321  0.13874  0.49314  1.0000
  N   N41       1.0  0.76533  0.29705  0.94407  1.0000
  C   C496      1.0  0.63699  0.00460  0.94236  1.0000
  H   H501      1.0  0.87426  0.32313  0.80227  1.0000
  C   C497      1.0  0.79709  0.28971  0.95299  1.0000
  C   C498      1.0  0.97875  0.24683  0.82185  1.0000
  H   H502      1.0  0.65584  0.14214  0.53131  1.0000
  C   C499      1.0  0.76548  0.30910  0.92163  1.0000
  H   H503      1.0  0.78885  0.31312  0.91029  1.0000
  H   H504      1.0  0.57781  0.01070  0.74170  1.0000
  C   C500      1.0  0.50760  0.04433  0.57738  1.0000
  C   C501      1.0  0.98281  0.24931  0.79050  1.0000
  C   C502      1.0  0.49881  0.23018  0.59277  1.0000
  H   H505      1.0  0.71659  0.25564  0.51439  1.0000
  C   C503      1.0  0.54087  0.24130  0.49707  1.0000
  H   H506      1.0  0.68596  0.17712  0.98976  1.0000
  H   H507      1.0  0.90872  0.32651  0.82568  1.0000
  C   C504      1.0  0.63332  0.01613  0.49263  1.0000
  C   C505      1.0  0.88231  0.33019  0.82225  1.0000
  C   C506      1.0  0.53196  0.25836  0.54041  1.0000
  H   H508      1.0  0.65432  0.00286  0.53009  1.0000
  C   C507      1.0  0.60268  0.00644  0.73474  1.0000
  N   N42       1.0  0.51956  0.24896  0.51780  1.0000
  H   H509      1.0  0.60458  0.08006  0.50719  1.0000
  H   H510      1.0  0.68187  0.31659  0.92022  1.0000
  S   S174      1.0  0.66467  0.23156  0.49751  1.0000
  H   H511      1.0  0.73581  0.32569  0.89459  1.0000
  C   C508      1.0  0.72045  0.20176  0.95041  1.0000
  C   C509      1.0  0.57560  0.24287  0.49880  1.0000
  H   H512      1.0  0.68212  0.29509  0.96189  1.0000
  C   C510      1.0  0.66213  0.20757  0.95423  1.0000
  H   H513      1.0  0.69140  0.11906  0.53985  1.0000
  H   H514      1.0  0.62922  0.00376  0.91931  1.0000
  H   H515      1.0  0.61527  0.25363  0.52349  1.0000
  C   C511      1.0  0.56652  0.26014  0.54287  1.0000
  C   C512      1.0  0.49645  0.04938  0.60642  1.0000
  C   C513      1.0  0.53859  0.00477  0.97113  1.0000
  H   H516      1.0  0.56509  0.00795  0.52042  1.0000
  C   C514      1.0  0.99386  0.29029  0.81000  1.0000
  Fe  Fe89      1.0  0.86284  0.44883  0.30773  1.0000
  S   S175      1.0  0.84376  0.44092  0.35409  1.0000
  S   S176      1.0  0.91312  0.43870  0.29235  1.0000
  Fe  Fe90      1.0  0.79954  0.46715  0.29401  1.0000
  S   S177      1.0  0.77459  0.46035  0.34000  1.0000
  S   S178      1.0  0.77360  0.48162  0.25664  1.0000
  Fe  Fe91      1.0  0.82409  0.46721  0.35899  1.0000
  S   S179      1.0  0.83974  0.47790  0.40412  1.0000
  Fe  Fe92      1.0  0.79632  0.43446  0.33204  1.0000
  S   S180      1.0  0.77196  0.40995  0.34913  1.0000
  S   S181      1.0  0.84741  0.47568  0.31370  1.0000
  S   S182      1.0  0.81686  0.44069  0.28492  1.0000
  Fe  Fe93      1.0  0.87158  0.54691  0.04693  1.0000
  S   S183      1.0  0.85531  0.55910  0.09045  1.0000
  S   S184      1.0  0.92271  0.55056  0.02480  1.0000
  Fe  Fe94      1.0  0.80807  0.52717  0.04260  1.0000
  S   S185      1.0  0.78544  0.53782  0.08648  1.0000
  H   H517      1.0  0.80808  0.55344  0.16858  1.0000
  Fe  Fe95      1.0  0.80619  0.56290  0.06917  1.0000
  S   S186      1.0  0.77766  0.58706  0.08130  1.0000
  Fe  Fe96      1.0  0.83589  0.53373  0.10549  1.0000
  S   S187      1.0  0.85154  0.52377  0.15148  1.0000
  S   S188      1.0  0.82402  0.55248  0.02363  1.0000
  S   S189      1.0  0.85687  0.52128  0.06344  1.0000
  N   N43       1.0  0.80491  0.47966  0.13834  1.0000
  C   C515      1.0  0.79170  0.60827  0.07743  1.0000
  C   C516      1.0  0.77122  0.62124  0.08929  1.0000
  C   C517      1.0  0.78140  0.63821  0.08694  1.0000
  C   C518      1.0  0.81224  0.64245  0.07251  1.0000
  C   C519      1.0  0.83280  0.62946  0.06079  1.0000
  C   C520      1.0  0.82272  0.61250  0.06333  1.0000
  H   H518      1.0  0.74718  0.61815  0.10029  1.0000
  H   H519      1.0  0.76524  0.64799  0.09606  1.0000
  H   H520      1.0  0.85673  0.63252  0.04961  1.0000
  H   H521      1.0  0.83881  0.60271  0.05411  1.0000
  C   C521      1.0  0.82279  0.49388  0.42792  1.0000
  C   C522      1.0  0.79399  0.50292  0.42122  1.0000
  H   H522      1.0  0.75383  0.47338  0.14944  1.0000
  C   C523      1.0  0.78674  0.46248  0.18131  1.0000
  H   H523      1.0  0.94297  0.50916  0.43866  1.0000
  C   C524      1.0  0.83892  0.49743  0.45477  1.0000
  H   H524      1.0  0.78132  0.50032  0.40064  1.0000
  H   H525      1.0  0.90433  0.49098  0.41185  1.0000
  C   C525      1.0  0.86583  0.56841  0.16244  1.0000
  H   H526      1.0  0.85740  0.48435  0.13297  1.0000
  C   C526      1.0  0.79514  0.49467  0.22916  1.0000
  C   C527      1.0  0.82987  0.49676  0.22885  1.0000
  C   C528      1.0  0.84647  0.50615  0.20536  1.0000
  C   C529      1.0  0.82867  0.51339  0.18173  1.0000
  C   C530      1.0  0.79383  0.51168  0.18237  1.0000
  C   C531      1.0  0.77716  0.50241  0.20607  1.0000
  H   H527      1.0  0.84403  0.49092  0.24646  1.0000
  H   H528      1.0  0.87342  0.50748  0.20517  1.0000
  H   H529      1.0  0.77975  0.51731  0.16451  1.0000
  H   H530      1.0  0.75025  0.50094  0.20626  1.0000
  C   C532      1.0  0.77784  0.38968  0.33361  1.0000
  C   C533      1.0  0.76734  0.37552  0.35098  1.0000
  C   C534      1.0  0.77356  0.35914  0.34034  1.0000
  C   C535      1.0  0.79011  0.35682  0.31203  1.0000
  C   C536      1.0  0.79957  0.37098  0.29425  1.0000
  C   C537      1.0  0.79359  0.38732  0.30497  1.0000
  H   H531      1.0  0.75486  0.37723  0.37305  1.0000
  H   H532      1.0  0.77069  0.48560  0.48634  1.0000
  H   H533      1.0  0.81208  0.36931  0.27217  1.0000
  H   H534      1.0  0.80118  0.39808  0.29110  1.0000
  C   C538      1.0  0.96571  0.47898  0.31747  1.0000
  C   C539      1.0  0.94033  0.46887  0.30680  1.0000
  C   C540      1.0  0.94567  0.45169  0.30299  1.0000
  C   C541      1.0  0.91880  0.46290  0.38247  1.0000
  H   H535      1.0  0.75896  0.52213  0.43607  1.0000
  H   H536      1.0  0.91672  0.47442  0.30137  1.0000
  H   H537      1.0  0.93177  0.45306  0.36871  1.0000
  C   C542      1.0  0.78143  0.51531  0.44131  1.0000
  H   H538      1.0  0.78604  0.56856  0.14683  1.0000
  C   C543      1.0  0.95223  0.55054  0.05297  1.0000
  C   C544      1.0  0.94281  0.54578  0.08285  1.0000
  C   C545      1.0  0.96609  0.54638  0.10557  1.0000
  C   C546      1.0  0.89534  0.59122  0.13641  1.0000
  H   H539      1.0  0.91768  0.54147  0.08851  1.0000
  H   H540      1.0  0.95865  0.54272  0.12865  1.0000
  C   C547      1.0  0.83750  0.47788  0.14602  1.0000
  H   H541      1.0  0.90125  0.45674  0.39947  1.0000
  H   H542      1.0  0.96132  0.49224  0.32070  1.0000
  N   N44       1.0  0.83582  0.57563  0.15603  1.0000
  C   C548      1.0  0.93064  0.48765  0.41219  1.0000
  C   C549      1.0  0.80429  0.56714  0.16504  1.0000
  C   C550      1.0  0.84545  0.46847  0.17177  1.0000
  C   C551      1.0  0.79722  0.48990  0.11162  1.0000
  H   H543      1.0  0.86110  0.49046  0.46030  1.0000
  H   H544      1.0  0.81271  0.50147  0.11055  1.0000
  H   H545      1.0  0.84955  0.34150  0.36575  1.0000
  C   C552      1.0  0.86463  0.59881  0.13107  1.0000
  S   S190      1.0  0.78761  0.50476  0.01758  1.0000
  H   H546      1.0  0.82539  0.45421  0.21048  1.0000
  C   C553      1.0  0.95240  0.49801  0.42732  1.0000
  C   C554      1.0  0.81982  0.46086  0.18963  1.0000
  H   H547      1.0  0.86658  0.55641  0.17431  1.0000
  C   C555      1.0  0.97550  0.46934  0.39828  1.0000
  H   H548      1.0  0.79338  0.57256  0.18635  1.0000
  C   C556      1.0  0.87482  0.40235  0.31860  1.0000
  H   H549      1.0  0.87114  0.46768  0.17855  1.0000
  H   H550      1.0  0.84376  0.39513  0.37161  1.0000
  H   H551      1.0  0.89094  0.37277  0.29351  1.0000
  H   H552      1.0  0.86369  0.61060  0.11850  1.0000
  H   H553      1.0  0.90387  0.47059  0.36677  1.0000
  C   C557      1.0  0.89603  0.57599  0.15240  1.0000
  H   H554      1.0  0.76661  0.45712  0.19576  1.0000
  C   C558      1.0  0.77970  0.47187  0.15529  1.0000
  N   N45       1.0  0.86888  0.38557  0.33171  1.0000
  H   H555      1.0  0.77065  0.49407  0.11247  1.0000
  H   H556      1.0  0.91854  0.59702  0.12789  1.0000
  N   N46       1.0  0.94234  0.47357  0.39780  1.0000
  C   C559      1.0  0.79752  0.51877  0.46823  1.0000
  C   C560      1.0  0.87240  0.35556  0.32817  1.0000
  C   C561      1.0  0.85276  0.38404  0.35970  1.0000
  H   H557      1.0  0.80226  0.48271  0.09048  1.0000
  S   S191      1.0  0.80095  0.33665  0.29813  1.0000
  C   C562      1.0  0.83495  0.59083  0.14126  1.0000
  H   H558      1.0  0.76597  0.34838  0.35421  1.0000
  H   H559      1.0  0.80058  0.66257  0.00828  1.0000
  C   C563      1.0  0.98523  0.55552  0.04572  1.0000
  H   H560      1.0  0.85076  0.40926  0.31745  1.0000
  C   C564      1.0  0.97677  0.44469  0.30921  1.0000
  C   C565      1.0  0.82643  0.50980  0.47478  1.0000
  C   C566      1.0  0.85586  0.35388  0.35665  1.0000
  C   C567      1.0  0.87884  0.37160  0.31598  1.0000
  H   H561      1.0  0.88635  0.40202  0.29516  1.0000
  C   C568      1.0  0.84608  0.36819  0.37263  1.0000
  H   H562      1.0  0.89182  0.40954  0.33277  1.0000
  H   H563      1.0  0.91975  0.56986  0.15626  1.0000
  H   H564      1.0  0.81115  0.59662  0.13644  1.0000
  H   H565      1.0  0.87890  0.34448  0.31512  1.0000
  H   H566      1.0  0.98097  0.43139  0.30635  1.0000
  H   H567      1.0  0.83216  0.36704  0.39430  1.0000
  H   H568      1.0  0.86338  0.49474  0.01567  1.0000
  H   H569      1.0  0.72978  0.33612  0.28988  1.0000
  C   C569      1.0  0.87650  0.49569  0.99360  1.0000
  H   H570      1.0  0.89742  0.52004  0.00160  1.0000
  H   H571      1.0  0.98499  0.45831  0.38662  1.0000
  C   C570      1.0  0.98636  0.49392  0.42752  1.0000
  H   H572      1.0  0.99254  0.55931  0.02268  1.0000
  S   S192      1.0  0.82620  0.66362  0.06751  1.0000
  H   H573      1.0  0.85887  0.65858  0.00376  1.0000
  Fe  Fe97      1.0  0.87237  0.43835  0.82606  1.0000
  S   S193      1.0  0.82876  0.43753  0.85992  1.0000
  S   S194      1.0  0.91989  0.42410  0.83387  1.0000
  Fe  Fe98      1.0  0.83566  0.45987  0.77921  1.0000
  S   S195      1.0  0.78859  0.46028  0.80934  1.0000
  S   S196      1.0  0.85220  0.47347  0.73501  1.0000
  Fe  Fe99      1.0  0.82213  0.46501  0.84834  1.0000
  S   S197      1.0  0.82115  0.48869  0.87736  1.0000
  Fe  Fe100     1.0  0.79942  0.43263  0.81852  1.0000
  S   S198      1.0  0.76414  0.41058  0.81311  1.0000
  S   S199      1.0  0.86851  0.46593  0.81730  1.0000
  S   S200      1.0  0.84381  0.43215  0.78546  1.0000
  Fe  Fe101     1.0  0.87280  0.53677  0.56736  1.0000
  S   S201      1.0  0.85500  0.55179  0.60764  1.0000
  S   S202      1.0  0.92423  0.52615  0.55849  1.0000
  Fe  Fe102     1.0  0.80718  0.53974  0.53643  1.0000
  S   S203      1.0  0.78371  0.55526  0.57433  1.0000
  C   C571      1.0  0.92738  0.59045  0.61173  1.0000
  Fe  Fe103     1.0  0.83279  0.56934  0.57348  1.0000
  S   S204      1.0  0.85018  0.59674  0.57353  1.0000
  Fe  Fe104     1.0  0.80811  0.53650  0.60547  1.0000
  S   S205      1.0  0.78005  0.52471  0.64669  1.0000
  S   S206      1.0  0.85401  0.55509  0.53322  1.0000
  S   S207      1.0  0.82774  0.52020  0.56746  1.0000
  C   C572      1.0  0.98791  0.57302  0.53687  1.0000
  C   C573      1.0  0.82910  0.61633  0.57746  1.0000
  C   C574      1.0  0.84824  0.63117  0.57630  1.0000
  C   C575      1.0  0.83273  0.64709  0.57637  1.0000
  C   C576      1.0  0.79779  0.64836  0.57737  1.0000
  C   C577      1.0  0.77867  0.63352  0.57940  1.0000
  C   C578      1.0  0.79417  0.61760  0.57959  1.0000
  H   H574      1.0  0.87527  0.63037  0.57467  1.0000
  H   H575      1.0  0.98192  0.42192  0.79379  1.0000
  H   H576      1.0  0.75163  0.63436  0.58026  1.0000
  H   H577      1.0  0.77906  0.60635  0.58077  1.0000
  C   C579      1.0  0.81092  0.49278  0.91636  1.0000
  C   C580      1.0  0.81912  0.50853  0.92792  1.0000
  H   H578      1.0  0.95786  0.44874  0.78787  1.0000
  H   H579      1.0  0.88161  0.50999  0.74074  1.0000
  C   C581      1.0  0.79063  0.64362  0.50402  1.0000
  C   C582      1.0  0.79535  0.48091  0.93603  1.0000
  H   H580      1.0  0.83110  0.51784  0.91297  1.0000
  H   H581      1.0  0.95909  0.55709  0.64660  1.0000
  H   H582      1.0  0.85810  0.47212  0.97862  1.0000
  H   H583      1.0  0.78864  0.46878  0.92749  1.0000
  C   C583      1.0  0.83073  0.48683  0.70989  1.0000
  C   C584      1.0  0.79634  0.49001  0.71343  1.0000
  C   C585      1.0  0.78102  0.50152  0.69373  1.0000
  C   C586      1.0  0.79987  0.50989  0.67036  1.0000
  C   C587      1.0  0.83410  0.50646  0.66654  1.0000
  C   C588      1.0  0.84938  0.49501  0.68619  1.0000
  H   H584      1.0  0.78165  0.48376  0.73148  1.0000
  H   H585      1.0  0.75446  0.50400  0.69675  1.0000
  H   H586      1.0  0.84892  0.51274  0.64858  1.0000
  H   H587      1.0  0.87596  0.49257  0.68312  1.0000
  C   C589      1.0  0.77418  0.38987  0.82510  1.0000
  C   C590      1.0  0.75984  0.37607  0.81100  1.0000
  C   C591      1.0  0.76675  0.35948  0.82047  1.0000
  C   C592      1.0  0.78738  0.35656  0.84476  1.0000
  C   C593      1.0  0.80156  0.37036  0.85894  1.0000
  C   C594      1.0  0.79537  0.38690  0.84895  1.0000
  H   H588      1.0  0.74321  0.37825  0.79268  1.0000
  H   H589      1.0  0.75548  0.34901  0.80945  1.0000
  H   H590      1.0  0.81752  0.36826  0.87777  1.0000
  H   H591      1.0  0.80635  0.39737  0.86018  1.0000
  C   C595      1.0  0.95954  0.46359  0.87520  1.0000
  C   C596      1.0  0.93668  0.45248  0.86332  1.0000
  C   C597      1.0  0.94729  0.43676  0.85320  1.0000
  H   H592      1.0  0.91716  0.35416  0.84803  1.0000
  H   H593      1.0  0.98077  0.46481  0.76696  1.0000
  H   H594      1.0  0.91091  0.45613  0.86171  1.0000
  H   H595      1.0  0.98861  0.41938  0.84967  1.0000
  C   C598      1.0  0.96707  0.55088  0.62583  1.0000
  C   C599      1.0  0.94385  0.54205  0.60944  1.0000
  C   C600      1.0  0.95387  0.53447  0.58207  1.0000
  C   C601      1.0  0.87128  0.38289  0.81057  1.0000
  H   H596      1.0  0.79453  0.46920  0.58734  1.0000
  H   H597      1.0  0.91828  0.54112  0.61801  1.0000
  H   H598      1.0  0.91069  0.38500  0.84184  1.0000
  H   H599      1.0  0.95152  0.47597  0.88210  1.0000
  H   H600      1.0  0.83161  0.52564  0.73117  1.0000
  C   C602      1.0  0.85106  0.37190  0.79528  1.0000
  H   H601      1.0  0.77554  0.47566  0.98170  1.0000
  C   C603      1.0  0.79627  0.50060  0.97836  1.0000
  H   H602      1.0  0.89041  0.52114  0.77507  1.0000
  H   H603      1.0  0.88567  0.47594  0.89858  1.0000
  H   H604      1.0  0.78374  0.46793  0.53245  1.0000
  C   C604      1.0  0.81204  0.51240  0.95870  1.0000
  H   H605      1.0  0.91992  0.49927  0.91372  1.0000
  N   N47       1.0  0.84030  0.51271  0.77284  1.0000
  C   C605      1.0  0.82086  0.52106  0.75282  1.0000
  C   C606      1.0  0.82666  0.50692  0.80006  1.0000
  C   C607      1.0  0.78652  0.52318  0.75934  1.0000
  C   C608      1.0  0.79242  0.50877  0.80731  1.0000
  C   C609      1.0  0.77223  0.51687  0.78669  1.0000
  C   C610      1.0  0.87625  0.51061  0.76571  1.0000
  H   H606      1.0  0.84216  0.50069  0.81631  1.0000
  H   H607      1.0  0.78171  0.50385  0.82876  1.0000
  H   H608      1.0  0.74556  0.51819  0.79188  1.0000
  H   H609      1.0  0.88530  0.49852  0.77524  1.0000
  C   C611      1.0  0.90761  0.49820  0.93614  1.0000
  H   H610      1.0  0.78978  0.65723  0.50473  1.0000
  C   C612      1.0  0.79396  0.59042  0.50886  1.0000
  C   C613      1.0  0.98763  0.53474  0.57216  1.0000
  H   H611      1.0  0.90608  0.46175  0.92440  1.0000
  H   H612      1.0  0.91606  0.60276  0.60606  1.0000
  H   H613      1.0  0.83828  0.34613  0.78839  1.0000
  C   C614      1.0  0.85509  0.35457  0.79930  1.0000
  C   C615      1.0  0.77978  0.47888  0.57673  1.0000
  C   C616      1.0  0.98049  0.43175  0.85654  1.0000
  C   C617      1.0  0.88530  0.47088  0.92223  1.0000
  C   C618      1.0  0.89527  0.37647  0.82954  1.0000
  H   H614      1.0  0.94255  0.56163  0.52232  1.0000
  H   H615      1.0  0.86784  0.39636  0.80831  1.0000
  C   C619      1.0  0.95367  0.56955  0.53893  1.0000
  C   C620      1.0  0.93407  0.57561  0.56354  1.0000
  H   H616      1.0  0.73710  0.64082  0.50840  1.0000
  H   H617      1.0  0.92580  0.52227  0.95046  1.0000
  C   C621      1.0  0.87346  0.48295  0.97244  1.0000
  S   S208      1.0  0.79621  0.33607  0.85863  1.0000
  H   H618      1.0  0.84778  0.65835  0.57465  1.0000
  H   H619      1.0  0.90762  0.57263  0.56531  1.0000
  H   H620      1.0  0.84446  0.64239  0.50249  1.0000
  C   C622      1.0  0.89877  0.35906  0.83289  1.0000
  H   H621      1.0  0.83149  0.37681  0.78138  1.0000
  H   H622      1.0  0.81861  0.52456  0.96717  1.0000
  C   C623      1.0  0.82134  0.63528  0.50282  1.0000
  C   C624      1.0  0.89533  0.50993  0.98560  1.0000
  H   H623      1.0  0.77106  0.52933  0.74291  1.0000
  N   N48       1.0  0.88850  0.48444  0.94399  1.0000
  C   C625      1.0  0.74843  0.50470  0.58006  1.0000
  H   H624      1.0  0.90674  0.58145  0.61757  1.0000
  H   H625      1.0  0.72923  0.51378  0.53820  1.0000
  C   C626      1.0  0.77373  0.47830  0.54574  1.0000
  H   H626      1.0  0.98701  0.46158  0.80706  1.0000
  N   N49       1.0  0.75549  0.49063  0.53230  1.0000
  C   C627      1.0  0.98171  0.58832  0.58363  1.0000
  C   C628      1.0  0.76679  0.49211  0.59398  1.0000
  C   C629      1.0  0.78789  0.48486  0.96678  1.0000
  C   C630      1.0  0.91115  0.51120  0.95676  1.0000
  C   C631      1.0  0.76100  0.63438  0.50622  1.0000
  H   H627      1.0  0.77144  0.49277  0.61801  1.0000
  C   C632      1.0  0.74306  0.50380  0.54896  1.0000
  H   H628      1.0  0.73899  0.51524  0.59327  1.0000
  C   C633      1.0  0.98251  0.45522  0.78534  1.0000
  H   H629      1.0  0.94219  0.59157  0.63231  1.0000
  H   H630      1.0  0.77208  0.58444  0.49875  1.0000
  H   H631      1.0  0.86099  0.46423  0.92591  1.0000
  N   N50       1.0  0.87908  0.34837  0.81756  1.0000
  N   N51       1.0  0.94829  0.58454  0.58580  1.0000
  H   H632      1.0  0.79415  0.58685  0.53330  1.0000
  H   H633      1.0  0.84594  0.61136  0.50459  1.0000
  C   C634      1.0  0.82198  0.61773  0.50393  1.0000
  H   H634      1.0  0.99320  0.59514  0.60153  1.0000
  C   C635      1.0  0.76254  0.61683  0.50719  1.0000
  N   N52       1.0  0.79279  0.60875  0.50576  1.0000
  H   H635      1.0  0.83900  0.51224  0.49546  1.0000
  H   H636      1.0  0.73943  0.60975  0.50990  1.0000
  C   C636      1.0  0.99310  0.45897  0.87695  1.0000
  H   H637      1.0  0.81683  0.58520  0.49713  1.0000
  C   C637      1.0  0.74785  0.48910  0.50025  1.0000
  H   H638      1.0  0.72834  0.47940  0.49774  1.0000
  S   S209      1.0  0.77946  0.53333  0.49435  1.0000
  H   H639      1.0  0.73866  0.50115  0.49068  1.0000
  Fe  Fe105     1.0  0.64707  0.93488  0.34274  1.0000
  S   S210      1.0  0.60392  0.94552  0.31780  1.0000
  S   S211      1.0  0.67451  0.91135  0.32606  1.0000
  Fe  Fe106     1.0  0.64244  0.96231  0.39137  1.0000
  S   S212      1.0  0.59898  0.97472  0.37033  1.0000
  S   S213      1.0  0.66167  0.96894  0.43759  1.0000
  Fe  Fe107     1.0  0.57994  0.94873  0.36422  1.0000
  S   S214      1.0  0.52698  0.94097  0.37512  1.0000
  Fe  Fe108     1.0  0.62657  0.97088  0.32498  1.0000
  C   C638      1.0  0.53687  0.97770  0.43219  1.0000
  S   S215      1.0  0.62106  0.93630  0.38874  1.0000
  S   S216      1.0  0.67234  0.96019  0.34670  1.0000
  Fe  Fe109     1.0  0.81185  0.69048  0.08185  1.0000
  S   S217      1.0  0.82491  0.70102  0.12687  1.0000
  H   H640      1.0  0.73767  0.92440  0.34488  1.0000
  Fe  Fe110     1.0  0.79734  0.72592  0.05519  1.0000
  S   S218      1.0  0.81122  0.73862  0.09848  1.0000
  C   C639      1.0  0.53534  0.83547  0.36570  1.0000
  Fe  Fe111     1.0  0.85477  0.72050  0.09966  1.0000
  S   S219      1.0  0.90605  0.72692  0.11784  1.0000
  Fe  Fe112     1.0  0.78066  0.71842  0.12266  1.0000
  S   S220      1.0  0.74058  0.72294  0.16119  1.0000
  S   S221      1.0  0.84349  0.70946  0.05480  1.0000
  S   S222      1.0  0.76486  0.70629  0.07911  1.0000
  Fe  Fe113     1.0  0.64801  0.80963  0.34657  1.0000
  S   S223      1.0  0.61644  0.79015  0.37238  1.0000
  S   S224      1.0  0.63394  0.83591  0.36374  1.0000
  Fe  Fe114     1.0  0.67842  0.78284  0.30284  1.0000
  S   S225      1.0  0.64788  0.76221  0.32559  1.0000
  S   S226      1.0  0.71663  0.77947  0.26243  1.0000
  Fe  Fe115     1.0  0.60459  0.78058  0.32657  1.0000
  S   S227      1.0  0.55272  0.77547  0.30849  1.0000
  Fe  Fe116     1.0  0.66237  0.77359  0.36997  1.0000
  S   S228      1.0  0.67564  0.75520  0.40871  1.0000
  S   S229      1.0  0.63444  0.80053  0.30073  1.0000
  S   S230      1.0  0.69496  0.79362  0.34724  1.0000
  H   H641      1.0  0.71625  0.72909  0.00866  1.0000
  C   C640      1.0  0.75520  0.76380  0.46231  1.0000
  C   C641      1.0  0.73142  0.76571  0.43974  1.0000
  C   C642      1.0  0.70689  0.75346  0.43638  1.0000
  C   C643      1.0  0.70677  0.73925  0.45584  1.0000
  H   H642      1.0  0.72941  0.74263  0.05971  1.0000
  H   H643      1.0  0.60095  0.97924  0.01736  1.0000
  H   H644      1.0  0.73198  0.77673  0.42510  1.0000
  H   H645      1.0  0.68801  0.72965  0.45352  1.0000
  N   N53       1.0  0.53009  0.82693  0.33968  1.0000
  C   C644      1.0  0.73611  0.73822  0.19044  1.0000
  C   C645      1.0  0.75639  0.75250  0.19098  1.0000
  C   C646      1.0  0.74995  0.76493  0.21308  1.0000
  C   C647      1.0  0.72322  0.76334  0.23500  1.0000
  C   C648      1.0  0.70321  0.74896  0.23472  1.0000
  C   C649      1.0  0.70969  0.73651  0.21266  1.0000
  H   H646      1.0  0.77681  0.75406  0.17415  1.0000
  H   H647      1.0  0.76580  0.77592  0.21314  1.0000
  H   H648      1.0  0.68260  0.74747  0.25138  1.0000
  H   H649      1.0  0.69369  0.72558  0.21248  1.0000
  N   N54       1.0  0.71928  0.92253  0.39097  1.0000
  H   H650      1.0  0.56846  0.80900  0.33355  1.0000
  H   H651      1.0  0.52634  0.78542  0.36915  1.0000
  H   H652      1.0  0.76669  0.73738  0.26554  1.0000
  H   H653      1.0  0.75014  0.67923  0.99803  1.0000
  C   C650      1.0  0.94772  0.72645  0.10145  1.0000
  C   C651      1.0  0.95467  0.72380  0.07047  1.0000
  C   C652      1.0  0.55892  0.82033  0.32190  1.0000
  C   C653      1.0  0.54801  0.96836  0.26922  1.0000
  H   H654      1.0  0.93424  0.72196  0.05565  1.0000
  H   H655      1.0  0.57493  0.96737  0.27085  1.0000
  C   C654      1.0  0.75491  0.74967  0.48196  1.0000
  C   C655      1.0  0.50568  0.78463  0.35427  1.0000
  H   H656      1.0  0.53815  0.94330  0.28577  1.0000
  N   N55       1.0  0.54225  0.99974  0.48003  1.0000
  C   C656      1.0  0.98810  0.72393  0.05851  1.0000
  C   C657      1.0  0.74243  0.92973  0.36747  1.0000
  H   H657      1.0  0.57939  0.82978  0.31960  1.0000
  H   H658      1.0  0.68675  0.98520  0.99239  1.0000
  C   C658      1.0  0.66178  0.89042  0.33551  1.0000
  C   C659      1.0  0.63579  0.88699  0.35710  1.0000
  C   C660      1.0  0.62767  0.87025  0.36527  1.0000
  C   C661      1.0  0.64505  0.85670  0.35173  1.0000
  C   C662      1.0  0.67083  0.86012  0.32992  1.0000
  C   C663      1.0  0.67926  0.87689  0.32203  1.0000
  H   H659      1.0  0.62214  0.89723  0.36775  1.0000
  H   H660      1.0  0.60774  0.86779  0.38222  1.0000
  H   H661      1.0  0.68452  0.84987  0.31934  1.0000
  H   H662      1.0  0.69945  0.87937  0.30534  1.0000
  H   H663      1.0  0.78701  0.76486  0.28283  1.0000
  C   C664      1.0  0.70678  0.93230  0.41415  1.0000
  C   C665      1.0  0.73048  0.73737  0.47850  1.0000
  H   H664      1.0  0.72116  0.89812  0.37176  1.0000
  N   N56       1.0  0.73044  0.73722  0.33663  1.0000
  C   C666      1.0  0.73907  0.73186  0.30793  1.0000
  C   C667      1.0  0.74145  0.75239  0.34627  1.0000
  C   C668      1.0  0.76027  0.74150  0.28847  1.0000
  C   C669      1.0  0.76228  0.76246  0.32723  1.0000
  C   C670      1.0  0.77186  0.75690  0.29824  1.0000
  C   C671      1.0  0.70785  0.72712  0.35667  1.0000
  H   H665      1.0  0.72934  0.72017  0.29976  1.0000
  H   H666      1.0  0.73384  0.75688  0.36867  1.0000
  H   H667      1.0  0.77023  0.77468  0.33461  1.0000
  H   H668      1.0  0.71537  0.72772  0.38062  1.0000
  H   H669      1.0  0.68187  0.73203  0.35578  1.0000
  H   H670      1.0  0.70803  0.71372  0.35022  1.0000
  C   C672      1.0  0.68909  0.89874  0.41221  1.0000
  H   H671      1.0  0.76867  0.92701  0.37307  1.0000
  H   H672      1.0  0.87507  0.67708  0.02034  1.0000
  N   N57       1.0  0.70306  0.75879  0.12734  1.0000
  C   C673      1.0  0.70487  0.74817  0.10321  1.0000
  C   C674      1.0  0.72410  0.77228  0.12811  1.0000
  C   C675      1.0  0.72785  0.75109  0.07876  1.0000
  C   C676      1.0  0.74760  0.77549  0.10413  1.0000
  C   C677      1.0  0.74918  0.76490  0.07918  1.0000
  C   C678      1.0  0.67701  0.75619  0.15152  1.0000
  H   H673      1.0  0.68872  0.73727  0.10294  1.0000
  H   H674      1.0  0.72299  0.78057  0.14744  1.0000
  H   H675      1.0  0.55230  0.81666  0.29871  1.0000
  H   H676      1.0  0.76458  0.78605  0.10494  1.0000
  C   C679      1.0  0.51169  0.77990  0.32404  1.0000
  H   H677      1.0  0.67427  0.74260  0.15718  1.0000
  H   H678      1.0  0.68339  0.76251  0.17281  1.0000
  H   H679      1.0  0.65272  0.76117  0.14418  1.0000
  H   H680      1.0  0.96968  0.73114  0.14424  1.0000
  H   H681      1.0  0.73905  0.94352  0.36521  1.0000
  H   H682      1.0  0.71326  0.94549  0.41503  1.0000
  H   H683      1.0  0.66530  0.97675  0.24928  1.0000
  C   C680      1.0  0.56438  0.98671  0.47666  1.0000
  H   H684      1.0  0.68307  0.98438  0.19593  1.0000
  H   H685      1.0  0.53455  0.97398  0.34724  1.0000
  C   C681      1.0  0.52710  0.95481  0.27744  1.0000
  H   H686      1.0  0.65800  0.90338  0.45253  1.0000
  C   C682      1.0  0.58276  0.98609  0.00455  1.0000
  S   S231      1.0  0.61822  0.99318  0.29293  1.0000
  H   H687      1.0  0.77395  0.77341  0.46465  1.0000
  C   C683      1.0  0.50844  0.97058  0.34825  1.0000
  S   S232      1.0  0.78537  0.74201  0.01291  1.0000
  C   C684      1.0  0.66411  0.99177  0.20793  1.0000
  C   C685      1.0  0.56220  0.97558  0.45259  1.0000
  C   C686      1.0  0.67567  0.90868  0.43557  1.0000
  H   H688      1.0  0.76735  0.76715  0.06042  1.0000
  C   C687      1.0  0.65408  0.98741  0.23818  1.0000
  C   C688      1.0  0.71131  0.90587  0.39019  1.0000
  H   H689      1.0  0.58034  0.96552  0.44954  1.0000
  C   C689      1.0  0.80350  0.67502  0.99821  1.0000
  C   C690      1.0  0.65060  0.98732  0.45814  1.0000
  H   H690      1.0  0.67435  0.93348  0.45465  1.0000
  C   C691      1.0  0.97473  0.72899  0.12027  1.0000
  C   C692      1.0  0.68480  0.92553  0.43676  1.0000
  H   H691      1.0  0.68185  0.88566  0.41068  1.0000
  C   C693      1.0  0.53400  0.98335  0.25928  1.0000
  H   H692      1.0  0.53483  0.96913  0.41349  1.0000
  H   H693      1.0  0.51249  0.84769  0.40490  1.0000
  H   H694      1.0  0.98398  0.69115  0.11955  1.0000
  C   C694      1.0  0.51436  0.99098  0.43579  1.0000
  H   H695      1.0  0.56069  0.83784  0.37245  1.0000
  C   C695      1.0  0.63022  0.99713  0.25417  1.0000
  H   H696      1.0  0.55007  0.99402  0.25356  1.0000
  C   C696      1.0  0.49938  0.98455  0.25705  1.0000
  C   C697      1.0  0.50821  0.84102  0.38419  1.0000
  C   C698      1.0  0.77481  0.68439  0.99250  1.0000
  C   C699      1.0  0.49824  0.82356  0.33146  1.0000
  H   H697      1.0  0.99309  0.72210  0.03444  1.0000
  C   C700      1.0  0.65760  0.98815  0.48908  1.0000
  C   C701      1.0  0.49802  0.95516  0.36095  1.0000
  C   C702      1.0  0.86470  0.67206  0.99933  1.0000
  H   H698      1.0  0.49475  0.99275  0.41981  1.0000
  C   C703      1.0  0.72119  0.73810  0.99043  1.0000
  N   N58       1.0  0.83473  0.68162  0.99196  1.0000
  Fe  Fe117     1.0  0.63450  0.93659  0.84883  1.0000
  S   S233      1.0  0.58700  0.94819  0.83315  1.0000
  S   S234      1.0  0.65085  0.91228  0.82513  1.0000
  Fe  Fe118     1.0  0.64644  0.96658  0.89053  1.0000
  S   S235      1.0  0.60066  0.98017  0.87629  1.0000
  S   S236      1.0  0.67446  0.97583  0.93090  1.0000
  Fe  Fe119     1.0  0.57668  0.95503  0.88164  1.0000
  S   S237      1.0  0.52589  0.95296  0.90504  1.0000
  Fe  Fe120     1.0  0.61551  0.97241  0.82851  1.0000
  N   N59       1.0  0.57445  0.98081  0.97648  1.0000
  S   S238      1.0  0.62143  0.94142  0.89810  1.0000
  S   S239      1.0  0.66415  0.96071  0.84205  1.0000
  Fe  Fe121     1.0  0.79496  0.69485  0.57912  1.0000
  S   S240      1.0  0.81262  0.70405  0.62346  1.0000
  H   H699      1.0  0.66699  0.74761  0.51249  1.0000
  Fe  Fe122     1.0  0.79471  0.73045  0.55107  1.0000
  S   S241      1.0  0.81333  0.74203  0.59395  1.0000
  H   H700      1.0  0.87132  0.73889  0.68381  1.0000
  Fe  Fe123     1.0  0.84923  0.72011  0.59515  1.0000
  S   S242      1.0  0.90061  0.72147  0.61649  1.0000
  Fe  Fe124     1.0  0.77610  0.72537  0.61959  1.0000
  S   S243      1.0  0.73884  0.73129  0.65957  1.0000
  S   S244      1.0  0.83351  0.70960  0.55059  1.0000
  S   S245      1.0  0.75543  0.71513  0.57685  1.0000
  Fe  Fe125     1.0  0.64961  0.81096  0.85467  1.0000
  S   S246      1.0  0.61726  0.79171  0.87997  1.0000
  S   S247      1.0  0.64724  0.83708  0.87588  1.0000
  Fe  Fe126     1.0  0.67922  0.78460  0.81042  1.0000
  S   S248      1.0  0.64858  0.76389  0.83305  1.0000
  S   S249      1.0  0.71930  0.78191  0.77115  1.0000
  Fe  Fe127     1.0  0.60553  0.78239  0.83398  1.0000
  S   S250      1.0  0.55414  0.77270  0.82100  1.0000
  Fe  Fe128     1.0  0.66248  0.77471  0.87791  1.0000
  S   S251      1.0  0.66924  0.75709  0.91944  1.0000
  S   S252      1.0  0.63536  0.80257  0.80841  1.0000
  S   S253      1.0  0.69575  0.79454  0.85543  1.0000
  H   H701      1.0  0.96990  0.68994  0.59534  1.0000
  C   C704      1.0  0.75797  0.75776  0.96346  1.0000
  C   C705      1.0  0.73300  0.76134  0.94256  1.0000
  C   C706      1.0  0.70187  0.75329  0.94533  1.0000
  H   H702      1.0  0.58053  0.72803  0.88493  1.0000
  C   C707      1.0  0.69866  0.75204  0.59828  1.0000
  C   C708      1.0  0.62029  0.99593  0.75433  1.0000
  H   H703      1.0  0.73791  0.77032  0.92424  1.0000
  H   H704      1.0  0.75628  0.70807  0.97596  1.0000
  H   H705      1.0  0.62401  0.95790  0.74718  1.0000
  C   C709      1.0  0.73261  0.74635  0.68901  1.0000
  C   C710      1.0  0.75384  0.76011  0.69203  1.0000
  C   C711      1.0  0.74879  0.77107  0.71681  1.0000
  C   C712      1.0  0.72257  0.76846  0.73898  1.0000
  C   C713      1.0  0.70100  0.75488  0.73558  1.0000
  C   C714      1.0  0.70598  0.74396  0.71078  1.0000
  H   H706      1.0  0.77439  0.76221  0.67557  1.0000
  H   H707      1.0  0.76559  0.78155  0.71907  1.0000
  H   H708      1.0  0.68068  0.75268  0.75228  1.0000
  H   H709      1.0  0.68927  0.73342  0.70873  1.0000
  C   C715      1.0  0.77511  0.72177  0.73355  1.0000
  C   C716      1.0  0.55453  0.92665  0.77320  1.0000
  S   S254      1.0  0.60047  0.98984  0.78972  1.0000
  H   H710      1.0  0.52790  0.80014  0.85938  1.0000
  C   C717      1.0  0.94967  0.72820  0.57041  1.0000
  C   C718      1.0  0.94230  0.72508  0.60134  1.0000
  C   C719      1.0  0.96897  0.72448  0.62114  1.0000
  C   C720      1.0  0.61317  0.93268  0.76299  1.0000
  H   H711      1.0  0.92955  0.72879  0.55487  1.0000
  H   H712      1.0  0.96369  0.72213  0.64512  1.0000
  H   H713      1.0  0.61237  0.74396  0.88591  1.0000
  H   H714      1.0  0.56967  0.95605  0.96012  1.0000
  C   C721      1.0  0.49788  0.95809  0.87705  1.0000
  H   H715      1.0  0.58432  0.98501  0.49227  1.0000
  C   C722      1.0  0.83827  0.69753  0.98021  1.0000
  H   H716      1.0  0.63928  0.92895  0.76340  1.0000
  C   C723      1.0  0.82528  0.74565  0.72630  1.0000
  C   C724      1.0  0.51306  0.78073  0.82946  1.0000
  S   S255      1.0  0.78474  0.74848  0.51098  1.0000
  C   C725      1.0  0.64400  0.89136  0.83867  1.0000
  C   C726      1.0  0.64990  0.87797  0.81862  1.0000
  C   C727      1.0  0.64882  0.86116  0.82918  1.0000
  C   C728      1.0  0.64236  0.85758  0.86009  1.0000
  C   C729      1.0  0.63526  0.87095  0.87990  1.0000
  C   C730      1.0  0.63580  0.88772  0.86926  1.0000
  H   H717      1.0  0.65620  0.88062  0.79489  1.0000
  H   H718      1.0  0.65417  0.85104  0.81361  1.0000
  H   H719      1.0  0.63019  0.86834  0.90384  1.0000
  H   H720      1.0  0.63122  0.89786  0.88499  1.0000
  C   C731      1.0  0.50702  0.79394  0.84957  1.0000
  H   H721      1.0  0.78188  0.76409  0.96086  1.0000
  H   H722      1.0  0.53346  0.97366  0.85145  1.0000
  N   N60       1.0  0.82384  0.73282  0.70611  1.0000
  H   H723      1.0  0.66643  0.98258  0.76001  1.0000
  H   H724      1.0  0.67239  0.73527  0.97193  1.0000
  C   C732      1.0  0.58938  0.96556  0.96355  1.0000
  H   H725      1.0  0.64821  0.76738  0.52389  1.0000
  H   H726      1.0  0.55523  0.78094  0.95052  1.0000
  H   H727      1.0  0.59628  0.76165  0.92590  1.0000
  C   C733      1.0  0.67224  0.76068  0.51927  1.0000
  H   H728      1.0  0.52294  0.74549  0.86577  1.0000
  C   C734      1.0  0.75236  0.74612  0.98757  1.0000
  C   C735      1.0  0.72910  0.76055  0.59824  1.0000
  H   H729      1.0  0.68557  0.76696  0.49948  1.0000
  C   C736      1.0  0.58800  0.92143  0.77255  1.0000
  H   H730      1.0  0.83620  0.73821  0.65967  1.0000
  C   C737      1.0  0.51114  0.94775  0.76558  1.0000
  C   C738      1.0  0.65912  0.99270  0.95361  1.0000
  C   C739      1.0  0.80179  0.74674  0.75081  1.0000
  C   C740      1.0  0.77654  0.73473  0.75436  1.0000
  H   H731      1.0  0.75471  0.71280  0.73527  1.0000
  C   C741      1.0  0.84754  0.73228  0.67969  1.0000
  H   H732      1.0  0.75731  0.73588  0.77248  1.0000
  N   N61       1.0  0.69217  0.76060  0.54636  1.0000
  C   C742      1.0  0.68043  0.75216  0.57195  1.0000
  C   C743      1.0  0.72197  0.76904  0.54618  1.0000
  H   H733      1.0  0.60218  0.96861  0.94128  1.0000
  C   C744      1.0  0.74099  0.76903  0.57200  1.0000
  H   H734      1.0  0.56472  0.96657  0.74886  1.0000
  H   H735      1.0  0.60868  0.96005  0.97804  1.0000
  C   C745      1.0  0.79898  0.72106  0.70931  1.0000
  H   H736      1.0  0.73178  0.77545  0.52577  1.0000
  C   C746      1.0  0.98316  0.73073  0.55955  1.0000
  H   H737      1.0  0.76515  0.77524  0.57134  1.0000
  H   H738      1.0  0.98844  0.73324  0.53560  1.0000
  H   H739      1.0  0.68953  0.74521  0.61853  1.0000
  H   H740      1.0  0.69152  0.99131  0.70941  1.0000
  C   C747      1.0  0.57083  0.76199  0.91831  1.0000
  N   N62       1.0  0.72627  0.85838  0.85636  1.0000
  C   C748      1.0  0.71821  0.86277  0.88573  1.0000
  C   C749      1.0  0.73108  0.87046  0.83423  1.0000
  C   C750      1.0  0.71482  0.87966  0.89353  1.0000
  C   C751      1.0  0.72766  0.88746  0.84121  1.0000
  C   C752      1.0  0.71943  0.89205  0.87105  1.0000
  C   C753      1.0  0.72881  0.84066  0.84804  1.0000
  H   H741      1.0  0.71295  0.85319  0.90305  1.0000
  H   H742      1.0  0.73647  0.86696  0.81082  1.0000
  H   H743      1.0  0.70728  0.88308  0.91659  1.0000
  H   H744      1.0  0.72991  0.89702  0.82342  1.0000
  H   H745      1.0  0.71536  0.90517  0.87645  1.0000
  H   H746      1.0  0.75405  0.83787  0.83773  1.0000
  H   H747      1.0  0.72415  0.83215  0.86801  1.0000
  H   H748      1.0  0.70952  0.83765  0.83160  1.0000
  C   C754      1.0  0.69627  0.74163  0.96945  1.0000
  C   C755      1.0  0.52979  0.75279  0.88511  1.0000
  N   N63       1.0  0.56187  0.75237  0.89457  1.0000
  H   H749      1.0  0.74362  0.76038  0.61842  1.0000
  H   H750      1.0  0.84420  0.75533  0.72316  1.0000
  C   C756      1.0  0.58643  0.74132  0.87923  1.0000
  H   H751      1.0  0.79673  0.71139  0.69246  1.0000
  H   H752      1.0  0.80219  0.75723  0.76623  1.0000
  H   H753      1.0  0.85440  0.71914  0.67395  1.0000
  C   C757      1.0  0.57094  0.95375  0.75507  1.0000
  H   H754      1.0  0.53514  0.91794  0.78121  1.0000
  H   H755      1.0  0.65692  0.74538  0.57207  1.0000
  H   H756      1.0  0.49649  0.97882  0.80916  1.0000
  C   C758      1.0  0.81013  0.70718  0.97395  1.0000
  C   C759      1.0  0.50875  0.96816  0.85230  1.0000
  H   H757      1.0  0.54602  0.98559  0.93757  1.0000
  C   C760      1.0  0.65246  0.99054  0.74508  1.0000
  H   H758      1.0  0.88402  0.67285  0.98041  1.0000
  H   H759      1.0  0.59459  0.90893  0.78042  1.0000
  N   N64       1.0  0.54643  0.94269  0.76481  1.0000
  C   C761      1.0  0.66663  0.99552  0.71639  1.0000
  H   H760      1.0  0.86296  0.70299  0.97625  1.0000
  C   C762      1.0  0.77824  0.70055  0.98020  1.0000
  H   H761      1.0  0.81294  0.71993  0.96519  1.0000
  S   S256      1.0  0.77691  0.66788  0.57231  1.0000
  H   H762      1.0  0.49844  0.94241  0.74609  1.0000
  C   C763      1.0  0.60463  0.94892  0.75402  1.0000
  H   H763      1.0  0.58608  0.74328  0.85418  1.0000
  C   C764      1.0  0.55243  0.98983  0.95989  1.0000
  C   C765      1.0  0.66947  0.99428  0.98351  1.0000
  H   H764      1.0  0.49798  0.94338  0.78707  1.0000
  H   H765      1.0  0.66989  0.97770  0.49984  1.0000
  H   H766      1.0  0.50826  0.96162  0.76470  1.0000
  H   H767      1.0  0.72981  0.72643  0.49332  1.0000
  C   C766      1.0  0.51503  0.77362  0.92255  1.0000
  C   C767      1.0  0.54767  0.77289  0.93244  1.0000
  C   C768      1.0  0.50588  0.76336  0.89899  1.0000
  H   H768      1.0  0.49698  0.78230  0.93270  1.0000
