data_image0
_chemical_formula_structural       FeS2CHSHCFeCHC2HC2S2H3S4HSC2NHCH3C2HFeC2SCH4CH2SCFeC3H2CHC2H2C2HCH2CHSH2FeSCHC5HCH2C2HFeHCFeH2CFeSCHC2NC3H2CH2FeH2CHC2H2CFeHNCSH3FeSCSH4C3HSCH3C2HCHCH2SCHC2FeH2SHC2HC5H3C2HC2HCHCHCSCHSCHNH3CHNC3SC3HNHSCFeHCFeHCHFeC2FeSCHCHC2H2CFeHCSCFeSC3HNFeCSC2HC2NHC2H5CHCHSCSH3SNHCFeH2C6HSFeHCH2SC2H2CHCNHC2HCFeCH2C2HCSCHCH2SFeCSCSC3H2C3H3SH3C3H2C3SHS2H2C3HSHN2S2HC2H4C2SC2HNCHCHCH2C2SHCHCSCHC2HSH2N2CH3CHCH4CFeHSHFeH2CSHC2H3C2H2C2H2SHCH4C2HC2FeC3H4C2HCH2SH4FeHC2HCHC2H3CFeSH2CHCHFeCHSHCH3CHCNS2HSFeS2FeS2FeSFeCS2C2HC2HFeSHS2HFe2SH2CFeS2HSH2SFeH4CSCFeSHFeSFeS2HCHSH2SH2SHCHSCHS2C4H5SC4H4C4HC4SHC2HCH2C2HCH2SHC2FeNC3HCFeHNH2NFeC8NHCH2CHC2NHCHNHC4H2FeHSHCH2SH2SC2HC2H2C6H4CSC4H3CH2NC5H6FeCHSCSC4HSH2C2NS2C2HC2NCHCH2CHCSC2SC2HC4H2C3FeHCHC3FeH2CFeHCH2C3H2NC5FeSH2SH3C3H3CS2H2CHSFe3CHC2HSCHCH2SHC2S2HC2H2SCHCH2FeHCH4CH2CH2C2HC2HCFeH2CHCSFeCSCSCS3H3C4H3FeCSCH3CSHS2H2SHC2H4C3HS2FeHNCHNCH2NSC2H2FeHC2HCHCHCFeC7FeC3HC2HCH3CFeHCH4CH2SCSH2SCH2SHCHCFe2SHNHC2HCFeNC2H2CHNHFeSCSC4NCHSC2HFeS2C4FeHFeS2FeSH2SFeS3FeS2FeS2FeCFeCS2FeS2CHCNFeSH2FeS2FeSCFeSFeS3FeHSFeHSCSHSNFeS2FeS2FeSFeS3HSCSHFeSCHC6H3C7H4C6H5CH3C4HCHCHFeC2HC2HC2H2FeHC6H4C6H5C5H2C9H6CNH3CHSC3H2CHCHC5H2C6H6CH2CNCHCH3C2HC2H2FeC3HC2NC2H2FeHSC4HNC6H8FeH3NCH2C3H4CHFeNCH3NH2NHCHFeHSH2C4HS2NCH2C2HSNHCH4CHC3HC2HC2HC2HSCH3SHCHSHC3HFeHC2H2CHC2HCHSCH3CH3SFeSHC2HS2HCH2CH3FeS3H3CHCSHC4H2SC3HCH2SHS2HS2HCH2CHCNHCH3CH3CFeSCHCHNC3H4CHNHCSCSH2CH2SH4C4SC2HCH2C2H3NSHC3H2C2H3C2HC4H3FeH2FeSC2SCHCHCHCHCH5C3HC4HSCHNC4HCNCFeSHFeS2FeSFeS3CSCSFeS2HSHFeSFeS3FeS2FeS2FeSFeS2H3C2H2NC2HCHFeHC2HCH2CNCFeCH2CHCHC2HCSH2SH2C2HC6H4C2HC3HCH2C6H4CHC6H3C2HNC3H6SH2CSC3H4CHC4FeCH2CFeC2HCS2CHFeHCH2S2C5HFeHC4HSHFeH3CH3NCHC3HC2SH4FeH2FeHS2H2CFeCNHCSHCSNC6H8NH2CNHCHC4HC2HC3FeC2HNC2HSCHCHC2HCSC2SC3HNCHSH5CH2CHSH4C2HFeHNCHC4HC2H3CFeSH3C2HFeS2FeS2FeHFeS3FeS2FeS2FeS2FeS2FeHFeCS2FeS2FeS2FeSFeNS2C3SH2CSH5CH2C2H5FeS2FeS2FeSFeS3H3C5H2C3HC2H3Fe2HC6H4C2H2SC3HC2H3FeC2HC3SH3C6H4C6H4CHC6H5C6H4CFeCH3C2HCH3CFeHNC3HCSC2HC3H3CHC2H2CHCHCH2CNCSHSH3CNC3HCNHCH4CHNHC2HNH2SHC5NHNCHNHC2HCHCHCHC2H3CSC3HS2CH2CHCHC2HCSCH2C2H2CH2NC7HCH2C4NCHC2HSCHC3SH4CHCHCH5CHCH2FeH3CHC4NCNHCH2C2FeS2CHCSNH3CNCHCH4FeS2FeS2FeSFeS3FeHSC2H2CSC2H4S2H2FeS2FeSHFeSFeS3NFeS2FeS2FeSFeS3FeS2FeS2FeSFeS3FeS2FeS2FeSFeHS2FeS2FeS2FeSFeS3FeS2FeS2FeSFeS3FeS2FeS2FeSFeS3HC2HCH2CH3C2H2C2HC2NH2C3HC7H4C6H4SC6H4C4HCHCH2CHC4HNH2C6H4C3HCHC6H4C6H4CFeC4H4C7H3C6H4C8H2SHCSH2C6H4CH2CHC3HC7H4C6H5NC5H2FeHSCHC2HC2HC2HSC8H4CH2CH2CNCHC5H2CH3C2H5C2H2NHCHCSH4C2HNC5H6FeH7CH4CH5C2H2SHCHCHCHNC6H8C3HC4H2NH6C2NC4H2SC4HC2H2CH2CH5C2HN2HCHC4HCH5NC5H2CHSHFeCH2CSH2CH2CH2CH2C2NH5CHCH3C4H2CH2CN2C3SC3H2CHCHC3H4C2HCH3C2HCHC3S2HC2H2NHNC4HSCHCHNCSCHS2H3Fe2HSH2C4NH2C2SCH6CFeH3Fe2HC5FeCH2CHCHNHCFeSCFeSHFeSFeS3FeS2FeS2C2Fe2S2CH2CSCHSFeS2FeCHCHC2H2C2H2C3HSHC2NH3SHSC6H5C5HCNC2N2HC2H4SCHCFeHCHCHFeH2SNC6H3C2H3C2SHCH3C2HCH2CH5CSCH3C6HCH2CH4SCSH2CHCHSHC2SFeS2H4C2HS2C2SCSCSCHFeH4CSHCFeS2FeS2FeSFeS3H3SHCHSHC2FeHFeCSFeH2FeHSCFeCSFeCSH2S4CHC3HSCNH2SC5HFeSC2HCHCFeCHSHNHC2H3C2HC3HFeCSHFeH2CFeSCHCHCHSC2H2NHNH2CHNHCHCHCHC2SHCHNH2SNCHSC6H5SHCFeHCS2C3H2CHCHC2HC4SFeCSHC8H4C2HSCH2CH2C2FeCHCHCH2CFeHCH3CHCHCHC7SH4FeC3H5FeSCHCH3SCNC3H2CHSH2CH5C2HCSFeC2HC3HC2HNC2SH2CHCH2SC3HFeSHC3H4CHCFeCH3CH2NC3H6CSCH2SC2H4CH3NC4HFeHCHSHCSFeC2HCHCSFeHNFeCSCHCHSH3CHCHSH2C3H2C2SHNHC2HCHSHNHCFeS3H2FeSFeSNCSC2FeH3CSFeH4FeS2FeS2FeSFeS3CH2NSHCHCSFeS2FeS2FeSFeS3FeS2FeSFeSFeS3FeS2FeHSHSFeS3HSH2SCH2CFe2C4H2CNSH2CHCH3CNH2CFeH2S2CH5C4H2SH2CHFeC3H4CHCSFeCHCHC2HC2H2CH2NH3FeC2H2SCH2NC3SC5SCHC4H2CSC3HC2SHC3HCH3CNC6H4C6H4C6H5C3FeC5SH3S2C2SH3CSC2H3C6HSHC2HCHC6HCH2CNC2HFeCHNSC3H6C3HSCHNC6H8FeSC2HSFeC2HCSHCH2CSC5HCHNH2CH2CH2CH4CSC2H2CHCH3C3FeNC6H5FeC2SNC6H8C3FeHSCFeCH3C3H2CH2SH3CH2CHC3H2SC2HNC2SNHC4HFeCSHC2H2FeHCH3CSCHCS2CH5FeHCH2C2H3CS2C2H3CHC2HNHC2H2CHNFeCH2SHC2SH3CSCSFeSNHCNC2SHCH2CS2C3HFeH3CSCSCFeC3H5CNC3HFeC4H2CHSHSC4H4CH4FeHCHSHCHCHSH2C2FeCH2SHC2HC2H3SFeHC4H2CFeS2FeSCFeSFeS3FeHSC2HNSH2FeNSFeHSFeSCS2FeSCHSFeHFeS3CH3NHSHC3H3SHCH6C8H4C2HC3FeCH2C6H4C6H3SHCHC2H2CHC7H4C4SHSC8HCHC3NC3SHCHC2S2CFeCHSNCH2C2NHSC4HC2H2CHNH2FeCHSCHCH2CHNH2C3H4NCHS2HC3SCH2S2H3SCFe2HCHCSC2H2C2H2NC6H8SH4C2H2C2H3CH2CSHSC3H3CSC3HFeNCFeC2HCHCH2C2HCS2CHC2H3SH4NC5SH2CHCH3FeH2CH2N2H2CH3FeCH2CH2SH2C3FeCHCH3CSHCFeSFeSCHS2CHFeS2FeS2FeCFeS3FeS2FeS2Fe3S3HNSHCFeHSH3CFeSHSNHC3S2CSHC2HSNFeCH3C2NC2HC3HC2H3C7H5C2HC6H4C6NH5C3H2CHCH2CHC2H2SH2C3HCH3SH4CHSNHCHCHC2HC3HC2HSHCHC2H3CHFeCSH3FeNH2C2SC2HC2H4C2H4C4HCH3FeCNCHCHCH6NH2C2Fe2CSNH4FeCSC2SC2FeH3C3SC2H2SHCH2C2H3C3H3C2H2CHC2HCHCHFeH2CHCSHNSFeC2HCHNCHCHCSNFeNCH2C2HCH2S2HSH3C5SH3C2HC2H2CHCHNCSHCSH2SCSH2C2H2C2HFeCH3CH2C2NSCHCHCNCSH2C2SH3CFeS2FeS2FeSFeS3C3FeSHCFeS2FeSHFeSH2SCFeSFeCHCSCHSH3C2NHNH3CHFeSHC2HC2H7S3C3HC4S3HNFeH2FeHC5SCHNH2SH3FeHCHCHCSH3SHCHC3HC2SHCHFeHSCHFeH3CSHC4FeC2HCH2CHFeHC6H4C6H4C7HCH2CHFeSC2HSHC7H6C2H4FeNC2SH3CHNH5C6H4SHSC3H5CNC2SFeH2SC3HCH3C3HC2HCSH3C3H2CH3CSHSHCH2FeH3S2FeC4SFeCHNH2NHSHFeH2C4HCH4FeC3FeSHFeSCFe2S3HNHCFeS2FeS2FeSFeS3FeS3FeSFeCFe2HFeS2HFeCS2HCHC5H2C6H4C4H2CH2CHC3H2C6H4SCHSC3H2CFeHC6H4SC2HC2SCHC2H2NCH2CHCHC5HC3HCHC2HSHC3SCHCHCSHFeH2C2H2CH3C6SCH4CSH2C3HC2FeS2H2CH4CH2C2HCNHCHNHCSCH3SH3SHFeCHFeH2C4HCH2S2HC2HFeC2NH3C3SH2CNSHFeH2CH2C3NS2C2H3C4H4CHCHSC2H4CH2CSCHC3H2SCNH2CSCHC2SCH2CHC2FeC2HCHC2HCH2CH3NH2NHCHSHCSHCHCFeHSHCH2SCHCFeS2FeS2FeSFeS3HSHCSFeSH3CFeS2FeS2FeSFeS3C2H3SH2C2H2C4NHCHCH3NHCH2CH2FeS2FeS2FeSFeS3FeS2FeS2FeSFeS3FeS2FeS2FeSFeS3FeS2FeS2FeSFeS3HC2HC3H4C6H4C6H4C6H4C6H4C6H4CH3C2H3C2H3FeHCHCFeCHSC6SH4FeSCH4NHC6HCH2CH4FeC7H6CHCH3NHC6HFeH2C4SC6H4C6H4C4S2H4C2HSHNSC2HC6H4CHCH3C3HSH3CHCSFeHNC3H5C2H4NC3HCH2FeCHC2NH3CH3FeHCSHCNC6H4SH3CSHCSHCSHCNC2NHSH3C2HCHC2FeH3C3H2C2SFeHCHNC2HCHCHCHSCHCHC2HCH5CHCNH3C2HCH2CHNSCNCH3NHCNCFeHCHC3NC2NC2HCSCSCFeC2HC2HCH3SC2HCH2CH6FeH3C2FeH2FeHC2H2C2HC2H3CH2SH2CHCHNCH2CFeH2SCSC2H2C2FeC3H2SHCHC2SHCH3C3HCH4CHSCH2CHSC5FeS2FeS2FeSFeS3N2C3HCHFeCSCHC2HCHCSC2H4SH3CH3CH2C6SHC3H3CSH4SHCFeHNSCH3C3HC3SH4FeH2CH3C8H4NCH3CSH5CSHCSC2HCHC2H2SC2HFeCHFeHC2H3SH4FeSHCHCFeS3H2SHCH2CS3FeHCHFeS2C6H2C2H4SHC2HCHCFeHCHCH2FeSHCNC4FeHS2CNH2FeSH4NCH2CH4CHC2HC2SHSHCHCH2CHC2SHCH2C2HCHNC2H3NC2H2C3H2CFeS2HCHFeS3FeS2HSH4CSH2FeSFeSCFeSFeS3CSHSCFeHSC3FeS2CFeCSFeS2HCHCS2FeS3CSCSCHFeSFeCSH2C2H3FeSC2HCNCSHC2FeHC2HFeHFeHCHCH2FeCFeH5FeC6H4SC2FeSH5CH3SHNSCHC6H4FeC5H2CH2C2FeSHFeH2C2H2C6H5C4SCH3NCHSC5HCSCHCHCHNC4FeC5SH2C6H2C3HC2SC3NH2C2HSCH4SC2NHC2H4Fe2HC2H2CH4CH2CHCNHC2NCSCHC3HNS2HNC6H10CHCH2SCHC2H2C2H2CNH4SH2FeSHFeCHC2SC2SHFeHCH3C2H2CHSC2SCHCH2NSHC2H2Fe2HSH2CSHFeNCHC3HCHC2H4CSHS2CHC2HC4HC5H2SHFeCH2CH3CH2SC3HCHFeCHCH2SC2SH3C4HCH2SCSH2CSCH4CHC2HC3NH2C2HC3H2C2H5CFeSC3H4C2H3CH3CNC3HC2FeCSCHFeC2FeS2FeSHFeSFeS3FeHSFeNSH2FeS2FeSCFeS2FeSFeS3CHFeS2H3SHCHSC2SCH2CH2CHC7SH3C2H2CH3FeC5HCH4C6H10C5H2S2C6H4C6H4C6H4CSC6H4FeH2CNCS2C3SCHCHCHC2H2FeN2H2CNCH2FeHCHCSH8CHCHSC3HC2NHCH2NCH2NCHCHCSCH5CHC3SH2CFe2H2CH4CHCHCH2C3HS2CFeSHC5HC2S2H6SC4HC2HSCHC2HC2NC3NH5SHNH2C3H4FeHCHSC2HSH3C3NSC2HCSCHCHFeC3FeNC2HCNSH2C2SHSCFeS2FeSFeSCSCHCFeHSCHC2SCSFe2S2FeSFeCS2CFeS2FeS2FeSFeS3HS2C2FeSCHC2FeS2FeS2FeSFeS3H3C2H3C2HC3HSH2C4HCHC4FeCHN2C6H4C6H5C4SNHC3HCSHC6H4CSCH2SH2C6H4CH2C3HCH2C6H3C2SCH3C6H4C2HC3H4CNH2CH2C5H2CH2FeC3H4SHC3NH2C2HC3HCSCHCHSFeHCNH3C2H5CHCNC5H2SHC3H4C2H3CFeCNH2CH2SCHC5HC2SHC3HCH2FeHCH4NH2CSCFeNCHC3SCH6CH2C3SCH2SNC2H2CHC4H2CH3FeH2CSC2NH3CH2CH6C2H2C2HNHFeC3SH2C2H2CFeNHFeH3CH4C5SCSHSHSHC2H4C2SH3CHC2S2C2HC2H2CHS2FeHSHSHCHCHCSC2H3FeHCH4C2H2CFeSFeCSFeCSFeS2FeC3SC2HSCHC3HC8H3C4H4CH2C2FeC3HCNC3FeC2HCH5CH2CHFeH3CNHC2FeSCNHNCH2FeHFeCSH2S2H4CH2SHCHSC2HC4HCHCHCHNC4HSC2H5SC2HC2H4CS2CSHS2FeCFeH2SCH3C2H2SCHC2SC3FeC2HCH2CSCNSHCHSC2SFeSC2SCSH4SCFeH2FeSCH2SCHNC3SC2HFeHSH2CH3SC2HNHFeSHCHC2FeH2C2HSH2C2H2CHFeC2H4NHC2H2C2H3CSH2SCHC2NSC3HFeC2HNCH3C3HCH3CFeHCHNHSC4HCHFeHC2H3SHC2HSH4FeHNS2HC2H2NH2SHCHCHFeC2H2S2CHSC2FeS2HSHFeSFeS3HFeS2FeS2FeSFeS3CFeS2FeSHFeCFeS2FeCSHFeHS2HC2H4SCFeHSHCSNC2H2S2H2C2H4C7HC2NH3C3HC2HC3HSH2C6HCH2C6H5C3HCH3C7H4C3HC2H5NH2C2HCHCSH4CH3NHC3HCH4SHNHC3FeHSHSH6CFeH3C2H2CHCHCH2SC3HNC2HFeCNC6HCSC2H2C4S2HSHCH2C2HCFeHNHC7SHCHCH3S3H2NH2CH2SCHSH2CNH2C3H2FeHCFeC3FeCH3CNSCHNFeCNH2C2HCHNFeC3H3C3S2FeCFeH2SC2HCH3CH4CH2CHCSCH2C2H3C4HCH2
_chemical_formula_sum              "Fe576 S1152 C3456 H3456 N288"
_cell_length_a       121.388
_cell_length_b       121.277
_cell_length_c       121.163
_cell_angle_alpha    73.9558
_cell_angle_beta     73.6297
_cell_angle_gamma    73.5381

_space_group_name_H-M_alt    "P 1"
_space_group_IT_number       1

loop_
  _space_group_symop_operation_xyz
  'x, y, z'

loop_
  _atom_site_type_symbol
  _atom_site_label
  _atom_site_symmetry_multiplicity
  _atom_site_fract_x
  _atom_site_fract_y
  _atom_site_fract_z
  _atom_site_occupancy
  Fe  Fe1       1.0  0.47166  0.28363  0.03137  1.0000
  S   S1        1.0  0.46340  0.28384  0.05034  1.0000
  S   S2        1.0  0.46203  0.28572  0.01743  1.0000
  C   C1        1.0  0.49415  0.03804  0.13058  1.0000
  H   H1        1.0  0.48607  0.99740  0.20099  1.0000
  S   S3        1.0  0.48262  0.05078  0.16510  1.0000
  H   H2        1.0  0.49651  0.14986  0.05674  1.0000
  C   C2        1.0  0.44827  0.19071  0.04000  1.0000
  Fe  Fe2       1.0  0.47651  0.29456  0.04846  1.0000
  C   C3        1.0  0.46018  0.24238  0.00605  1.0000
  H   H3        1.0  0.48727  0.28217  0.01157  1.0000
  C   C4        1.0  0.45824  0.24453  0.04515  1.0000
  C   C5        1.0  0.47095  0.22589  0.05180  1.0000
  H   H4        1.0  0.49279  0.08197  0.13661  1.0000
  C   C6        1.0  0.46258  0.23253  0.04519  1.0000
  C   C7        1.0  0.48252  0.04403  0.13418  1.0000
  S   S4        1.0  0.45846  0.22608  0.03609  1.0000
  S   S5        1.0  0.48532  0.26717  0.03497  1.0000
  H   H5        1.0  0.49156  0.01147  0.12974  1.0000
  H   H6        1.0  0.44484  0.21799  0.02230  1.0000
  H   H7        1.0  0.46037  0.27349  0.00110  1.0000
  S   S6        1.0  0.48366  0.29534  0.02917  1.0000
  S   S7        1.0  0.47742  0.19367  0.04285  1.0000
  S   S8        1.0  0.48652  0.04260  0.22177  1.0000
  S   S9        1.0  0.47796  0.17139  0.02367  1.0000
  H   H8        1.0  0.48503  0.00888  0.16542  1.0000
  S   S10       1.0  0.47718  0.25025  0.06488  1.0000
  C   C8        1.0  0.45655  0.31787  0.01767  1.0000
  C   C9        1.0  0.47279  0.27872  0.00707  1.0000
  N   N1        1.0  0.45086  0.18962  0.01988  1.0000
  H   H9        1.0  0.48643  0.16783  0.04464  1.0000
  C   C10       1.0  0.44610  0.20296  0.03670  1.0000
  H   H10       1.0  0.47631  0.04587  0.12866  1.0000
  H   H11       1.0  0.47430  0.21660  0.05195  1.0000
  H   H12       1.0  0.47566  0.31772  0.03000  1.0000
  C   C11       1.0  0.49336  0.13771  0.03596  1.0000
  C   C12       1.0  0.47103  0.24335  0.05788  1.0000
  H   H13       1.0  0.44752  0.18580  0.00515  1.0000
  Fe  Fe3       1.0  0.47365  0.21150  0.03111  1.0000
  C   C13       1.0  0.44946  0.31882  0.03816  1.0000
  C   C14       1.0  0.47891  0.04772  0.14493  1.0000
  S   S11       1.0  0.47171  0.31111  0.05549  1.0000
  C   C15       1.0  0.45059  0.18414  0.03143  1.0000
  H   H14       1.0  0.45953  0.25933  0.05094  1.0000
  H   H15       1.0  0.45136  0.00213  0.22315  1.0000
  H   H16       1.0  0.45999  0.31274  0.01086  1.0000
  H   H17       1.0  0.46995  0.05248  0.14763  1.0000
  C   C16       1.0  0.48479  0.15868  0.03246  1.0000
  H   H18       1.0  0.46556  0.00891  0.20483  1.0000
  H   H19       1.0  0.49219  0.05838  0.07301  1.0000
  S   S12       1.0  0.47690  0.20486  0.01471  1.0000
  C   C17       1.0  0.47499  0.23125  0.05832  1.0000
  Fe  Fe4       1.0  0.49559  0.20608  0.01202  1.0000
  C   C18       1.0  0.48278  0.24595  0.01955  1.0000
  C   C19       1.0  0.47479  0.32392  0.04525  1.0000
  C   C20       1.0  0.46717  0.23586  0.99771  1.0000
  H   H20       1.0  0.44913  0.20593  0.00737  1.0000
  H   H21       1.0  0.45167  0.24970  0.04020  1.0000
  C   C21       1.0  0.46267  0.24999  0.05125  1.0000
  H   H22       1.0  0.48138  0.22605  0.06349  1.0000
  C   C22       1.0  0.49399  0.14928  0.04908  1.0000
  C   C23       1.0  0.48826  0.15944  0.04225  1.0000
  H   H23       1.0  0.45454  0.17315  0.01469  1.0000
  H   H24       1.0  0.44752  0.31443  0.04738  1.0000
  C   C24       1.0  0.46956  0.27302  0.00033  1.0000
  C   C25       1.0  0.49205  0.07290  0.14145  1.0000
  H   H25       1.0  0.48244  0.23944  0.02805  1.0000
  C   C26       1.0  0.49128  0.00216  0.16989  1.0000
  H   H26       1.0  0.44450  0.20817  0.04322  1.0000
  H   H27       1.0  0.47791  0.10393  0.00076  1.0000
  C   C27       1.0  0.44627  0.20848  0.02493  1.0000
  H   H28       1.0  0.48949  0.06849  0.13594  1.0000
  S   S13       1.0  0.49061  0.27890  0.05395  1.0000
  H   H29       1.0  0.45068  0.24468  0.00724  1.0000
  H   H30       1.0  0.48424  0.14708  0.02207  1.0000
  Fe  Fe5       1.0  0.48236  0.18717  0.02610  1.0000
  S   S14       1.0  0.48831  0.02948  0.19451  1.0000
  C   C28       1.0  0.45404  0.18267  0.01082  1.0000
  H   H31       1.0  0.44844  0.18631  0.04908  1.0000
  C   C29       1.0  0.48471  0.27759  0.00657  1.0000
  C   C30       1.0  0.47937  0.23279  0.99645  1.0000
  C   C31       1.0  0.48688  0.04526  0.15217  1.0000
  C   C32       1.0  0.46552  0.24573  0.01304  1.0000
  C   C33       1.0  0.48709  0.14776  0.02949  1.0000
  H   H32       1.0  0.46004  0.25072  0.01957  1.0000
  C   C34       1.0  0.44871  0.20163  0.01657  1.0000
  H   H33       1.0  0.49090  0.01611  0.23108  1.0000
  H   H34       1.0  0.45263  0.17460  0.03403  1.0000
  C   C35       1.0  0.46838  0.00104  0.21118  1.0000
  C   C36       1.0  0.49276  0.00674  0.13873  1.0000
  H   H35       1.0  0.48400  0.00697  0.14487  1.0000
  Fe  Fe6       1.0  0.47821  0.26824  0.05384  1.0000
  H   H36       1.0  0.45404  0.30285  0.03176  1.0000
  C   C37       1.0  0.45332  0.31228  0.02942  1.0000
  Fe  Fe7       1.0  0.49430  0.04243  0.17811  1.0000
  H   H37       1.0  0.48943  0.10956  0.00260  1.0000
  H   H38       1.0  0.46286  0.18360  0.00519  1.0000
  C   C38       1.0  0.47826  0.26597  0.99331  1.0000
  Fe  Fe8       1.0  0.49509  0.03906  0.20372  1.0000
  S   S15       1.0  0.49181  0.21453  0.02734  1.0000
  C   C39       1.0  0.49393  0.04315  0.24093  1.0000
  H   H39       1.0  0.48476  0.07336  0.14943  1.0000
  C   C40       1.0  0.47673  0.32467  0.03317  1.0000
  C   C41       1.0  0.49016  0.26456  0.99309  1.0000
  N   N2        1.0  0.47747  0.24262  0.01183  1.0000
  C   C42       1.0  0.48440  0.23618  0.00370  1.0000
  C   C43       1.0  0.47999  0.99450  0.20905  1.0000
  C   C44       1.0  0.46044  0.99726  0.22146  1.0000
  H   H40       1.0  0.47789  0.25472  0.02143  1.0000
  H   H41       1.0  0.49166  0.15803  0.00273  1.0000
  C   C45       1.0  0.48528  0.10837  0.99603  1.0000
  H   H42       1.0  0.49546  0.24234  0.04334  1.0000
  H   H43       1.0  0.49544  0.12934  0.03343  1.0000
  Fe  Fe9       1.0  0.49597  0.19609  0.03776  1.0000
  H   H44       1.0  0.49205  0.24654  0.01539  1.0000
  H   H45       1.0  0.49390  0.23375  0.00266  1.0000
  C   C46       1.0  0.49340  0.27036  0.99973  1.0000
  H   H46       1.0  0.49000  0.20051  0.99287  1.0000
  C   C47       1.0  0.04780  0.22614  0.41450  1.0000
  C   C48       1.0  0.46627  0.02938  0.31654  1.0000
  H   H47       1.0  0.45925  0.99754  0.40734  1.0000
  H   H48       1.0  0.02352  0.26624  0.47292  1.0000
  C   C49       1.0  0.14378  0.02850  0.43797  1.0000
  Fe  Fe10      1.0  0.06455  0.20614  0.48150  1.0000
  H   H49       1.0  0.34339  0.01750  0.46364  1.0000
  N   N3        1.0  0.35987  0.02255  0.45842  1.0000
  C   C50       1.0  0.17329  0.01698  0.44958  1.0000
  S   S16       1.0  0.01725  0.29091  0.42830  1.0000
  H   H50       1.0  0.02666  0.19216  0.48897  1.0000
  H   H51       1.0  0.01376  0.31569  0.42655  1.0000
  H   H52       1.0  0.15229  0.03194  0.41956  1.0000
  Fe  Fe11      1.0  0.22059  0.01485  0.44136  1.0000
  S   S17       1.0  0.30534  0.01185  0.43296  1.0000
  C   C51       1.0  0.04510  0.11787  0.46834  1.0000
  S   S18       1.0  0.05875  0.29638  0.48805  1.0000
  H   H53       1.0  0.05953  0.26051  0.40054  1.0000
  H   H54       1.0  0.07003  0.24154  0.45643  1.0000
  H   H55       1.0  0.45995  0.03460  0.31128  1.0000
  H   H56       1.0  0.26914  0.02587  0.39659  1.0000
  C   C52       1.0  0.04213  0.20508  0.41474  1.0000
  C   C53       1.0  0.04977  0.21029  0.40495  1.0000
  C   C54       1.0  0.05271  0.22070  0.40490  1.0000
  H   H57       1.0  0.09275  0.29142  0.45826  1.0000
  S   S19       1.0  0.01561  0.17270  0.42889  1.0000
  C   C55       1.0  0.01032  0.21865  0.41854  1.0000
  H   H58       1.0  0.05340  0.20627  0.39738  1.0000
  H   H59       1.0  0.05865  0.22462  0.39731  1.0000
  H   H60       1.0  0.10915  0.25650  0.47551  1.0000
  C   C56       1.0  0.03749  0.21030  0.42449  1.0000
  C   C57       1.0  0.00245  0.22346  0.42783  1.0000
  H   H61       1.0  0.00551  0.21470  0.46514  1.0000
  C   C58       1.0  0.18417  0.02930  0.47306  1.0000
  H   H62       1.0  0.05370  0.15489  0.45883  1.0000
  C   C59       1.0  0.00142  0.23219  0.48335  1.0000
  H   H63       1.0  0.01368  0.10720  0.47662  1.0000
  H   H64       1.0  0.13888  0.03751  0.43786  1.0000
  S   S20       1.0  0.05125  0.23950  0.41404  1.0000
  C   C60       1.0  0.34551  0.00190  0.44078  1.0000
  H   H65       1.0  0.31893  0.00100  0.48232  1.0000
  C   C61       1.0  0.10383  0.23996  0.48097  1.0000
  C   C62       1.0  0.46237  0.02496  0.32859  1.0000
  Fe  Fe12      1.0  0.47791  0.99452  0.35563  1.0000
  H   H66       1.0  0.23239  0.00242  0.48338  1.0000
  H   H67       1.0  0.49567  0.01829  0.31405  1.0000
  S   S21       1.0  0.21958  0.01096  0.42470  1.0000
  H   H68       1.0  0.32553  0.02665  0.45203  1.0000
  C   C63       1.0  0.10187  0.25217  0.47953  1.0000
  C   C64       1.0  0.00434  0.12426  0.45401  1.0000
  H   H69       1.0  0.46254  0.01091  0.39722  1.0000
  C   C65       1.0  0.01669  0.31107  0.43460  1.0000
  C   C66       1.0  0.45196  0.00473  0.38125  1.0000
  C   C67       1.0  0.22006  0.99501  0.47956  1.0000
  C   C68       1.0  0.14302  0.02003  0.44851  1.0000
  C   C69       1.0  0.30138  0.01585  0.46788  1.0000
  H   H70       1.0  0.45306  0.02678  0.33261  1.0000
  H   H71       1.0  0.24039  0.04821  0.43033  1.0000
  H   H72       1.0  0.02644  0.10305  0.49075  1.0000
  C   C70       1.0  0.03575  0.12364  0.46274  1.0000
  C   C71       1.0  0.15703  0.00565  0.43881  1.0000
  H   H73       1.0  0.03475  0.22995  0.47103  1.0000
  C   C72       1.0  0.28613  0.04334  0.45888  1.0000
  C   C73       1.0  0.24628  0.02547  0.40408  1.0000
  H   H74       1.0  0.06724  0.26870  0.45883  1.0000
  C   C74       1.0  0.24897  0.01845  0.43376  1.0000
  H   H75       1.0  0.00481  0.22981  0.43101  1.0000
  C   C75       1.0  0.27427  0.03167  0.45093  1.0000
  H   H76       1.0  0.04564  0.30362  0.45800  1.0000
  C   C76       1.0  0.04628  0.26968  0.48789  1.0000
  S   S22       1.0  0.01274  0.19322  0.44330  1.0000
  C   C77       1.0  0.42955  0.00664  0.39562  1.0000
  H   H77       1.0  0.24556  0.00285  0.41265  1.0000
  S   S23       1.0  0.03797  0.19253  0.41421  1.0000
  C   C78       1.0  0.08667  0.08668  0.47879  1.0000
  H   H78       1.0  0.26625  0.02003  0.47822  1.0000
  N   N4        1.0  0.07443  0.29372  0.45881  1.0000
  H   H79       1.0  0.01390  0.20591  0.40789  1.0000
  H   H80       1.0  0.26151  0.04655  0.42035  1.0000
  H   H81       1.0  0.47991  0.00272  0.27545  1.0000
  C   C79       1.0  0.27728  0.00756  0.40112  1.0000
  H   H82       1.0  0.25882  0.02153  0.46680  1.0000
  N   N5        1.0  0.03296  0.27950  0.40130  1.0000
  C   C80       1.0  0.04142  0.26936  0.40037  1.0000
  C   C81       1.0  0.03567  0.28909  0.40288  1.0000
  C   C82       1.0  0.30638  0.02732  0.47856  1.0000
  S   S24       1.0  0.22860  0.99624  0.44908  1.0000
  C   C83       1.0  0.26758  0.01707  0.40026  1.0000
  C   C84       1.0  0.02094  0.28031  0.40044  1.0000
  C   C85       1.0  0.43104  0.00729  0.38363  1.0000
  H   H83       1.0  0.02893  0.29710  0.40372  1.0000
  N   N6        1.0  0.48303  0.99745  0.29288  1.0000
  H   H84       1.0  0.16367  0.01777  0.46729  1.0000
  S   S25       1.0  0.02078  0.25804  0.42656  1.0000
  C   C86       1.0  0.04011  0.22093  0.42425  1.0000
  Fe  Fe13      1.0  0.02697  0.18361  0.43068  1.0000
  H   H85       1.0  0.46068  0.00401  0.37554  1.0000
  C   C87       1.0  0.01915  0.29877  0.43757  1.0000
  Fe  Fe14      1.0  0.29061  0.01022  0.42633  1.0000
  H   H86       1.0  0.32862  0.00205  0.43821  1.0000
  C   C88       1.0  0.31807  0.02509  0.45918  1.0000
  H   H87       1.0  0.03162  0.20634  0.43210  1.0000
  Fe  Fe15      1.0  0.02340  0.27149  0.43454  1.0000
  C   C89       1.0  0.07575  0.28211  0.45887  1.0000
  C   C90       1.0  0.01818  0.31746  0.44192  1.0000
  Fe  Fe16      1.0  0.03920  0.24875  0.42809  1.0000
  S   S26       1.0  0.02522  0.14034  0.44634  1.0000
  C   C91       1.0  0.05409  0.29752  0.45811  1.0000
  H   H88       1.0  0.08224  0.08073  0.47695  1.0000
  C   C92       1.0  0.05641  0.15954  0.46373  1.0000
  H   H89       1.0  0.03934  0.26169  0.39917  1.0000
  C   C93       1.0  0.48090  0.00054  0.30344  1.0000
  C   C94       1.0  0.08577  0.22966  0.46072  1.0000
  H   H90       1.0  0.03612  0.22499  0.43164  1.0000
  H   H91       1.0  0.01746  0.27984  0.48670  1.0000
  C   C95       1.0  0.25803  0.03870  0.42413  1.0000
  Fe  Fe17      1.0  0.00215  0.18100  0.44283  1.0000
  H   H92       1.0  0.17566  0.02703  0.47560  1.0000
  C   C96       1.0  0.48248  0.01559  0.33006  1.0000
  S   S27       1.0  0.04252  0.26329  0.43396  1.0000
  C   C97       1.0  0.07659  0.23367  0.45476  1.0000
  Fe  Fe18      1.0  0.20171  0.00801  0.43459  1.0000
  S   S28       1.0  0.02373  0.31938  0.46173  1.0000
  C   C98       1.0  0.24612  0.03963  0.42979  1.0000
  C   C99       1.0  0.01941  0.22396  0.47148  1.0000
  C   C100      1.0  0.05290  0.26863  0.40115  1.0000
  H   H93       1.0  0.34186  0.00777  0.44683  1.0000
  N   N7        1.0  0.27146  0.03221  0.46257  1.0000
  Fe  Fe19      1.0  0.02229  0.15975  0.44398  1.0000
  C   C101      1.0  0.46070  0.00225  0.39796  1.0000
  S   S29       1.0  0.29264  0.00671  0.46748  1.0000
  C   C102      1.0  0.48639  0.02009  0.31805  1.0000
  C   C103      1.0  0.02530  0.23088  0.47427  1.0000
  H   H94       1.0  0.36112  0.03945  0.44734  1.0000
  C   C104      1.0  0.47045  0.01781  0.33529  1.0000
  C   C105      1.0  0.06624  0.23206  0.44072  1.0000
  N   N8        1.0  0.05598  0.15535  0.47551  1.0000
  H   H95       1.0  0.26654  0.00895  0.42760  1.0000
  C   C106      1.0  0.09420  0.21945  0.45879  1.0000
  C   C107      1.0  0.44230  0.00639  0.37637  1.0000
  H   H96       1.0  0.10168  0.06702  0.47367  1.0000
  H   H97       1.0  0.13745  0.02263  0.45652  1.0000
  H   H98       1.0  0.08320  0.21269  0.43927  1.0000
  H   H99       1.0  0.00096  0.30051  0.48181  1.0000
  H   H100      1.0  0.06275  0.22470  0.44022  1.0000
  C   C108      1.0  0.27714  0.03807  0.46655  1.0000
  H   H101      1.0  0.06052  0.17328  0.44852  1.0000
  C   C109      1.0  0.04049  0.20068  0.47803  1.0000
  H   H102      1.0  0.08268  0.29944  0.46879  1.0000
  S   S30       1.0  0.28032  0.02642  0.41654  1.0000
  C   C110      1.0  0.33801  0.99872  0.43585  1.0000
  S   S31       1.0  0.03495  0.16974  0.44465  1.0000
  H   H103      1.0  0.02751  0.12084  0.46594  1.0000
  H   H104      1.0  0.05870  0.23800  0.44536  1.0000
  H   H105      1.0  0.04871  0.14400  0.44156  1.0000
  S   S32       1.0  0.00779  0.16712  0.45780  1.0000
  N   N9        1.0  0.07576  0.22762  0.44713  1.0000
  H   H106      1.0  0.28615  0.00906  0.39815  1.0000
  C   C111      1.0  0.03702  0.13312  0.45315  1.0000
  Fe  Fe20      1.0  0.01967  0.17840  0.45711  1.0000
  H   H107      1.0  0.00240  0.16621  0.48999  1.0000
  H   H108      1.0  0.06944  0.23686  0.43165  1.0000
  C   C112      1.0  0.04769  0.13676  0.44907  1.0000
  C   C113      1.0  0.14908  0.00018  0.46005  1.0000
  C   C114      1.0  0.16565  0.02269  0.45836  1.0000
  C   C115      1.0  0.16086  0.03478  0.45558  1.0000
  C   C116      1.0  0.27542  0.99624  0.40626  1.0000
  C   C117      1.0  0.26241  0.02642  0.47096  1.0000
  H   H109      1.0  0.04405  0.11059  0.47580  1.0000
  S   S33       1.0  0.03426  0.23839  0.44627  1.0000
  Fe  Fe21      1.0  0.01600  0.24853  0.44524  1.0000
  H   H110      1.0  0.48568  0.99634  0.32020  1.0000
  C   C118      1.0  0.02315  0.29286  0.44788  1.0000
  H   H111      1.0  0.03515  0.19123  0.45232  1.0000
  H   H112      1.0  0.11260  0.23493  0.47802  1.0000
  S   S34       1.0  0.18568  0.01612  0.42717  1.0000
  C   C119      1.0  0.01896  0.23883  0.48143  1.0000
  C   C120      1.0  0.06377  0.30140  0.45844  1.0000
  H   H113      1.0  0.24292  0.02665  0.39611  1.0000
  H   H114      1.0  0.21050  0.02094  0.48038  1.0000
  C   C121      1.0  0.08399  0.21758  0.44517  1.0000
  H   H115      1.0  0.04899  0.29615  0.40542  1.0000
  C   C122      1.0  0.26544  0.02763  0.42350  1.0000
  N   N10       1.0  0.14950  0.00874  0.44880  1.0000
  H   H116      1.0  0.02431  0.21794  0.46575  1.0000
  C   C123      1.0  0.05534  0.28572  0.45818  1.0000
  C   C124      1.0  0.05718  0.13072  0.45444  1.0000
  H   H117      1.0  0.23906  0.02419  0.41203  1.0000
  C   C125      1.0  0.16344  0.04109  0.44396  1.0000
  Fe  Fe22      1.0  0.29685  0.00153  0.45009  1.0000
  C   C126      1.0  0.06624  0.27794  0.45854  1.0000
  H   H118      1.0  0.15978  0.05045  0.44182  1.0000
  H   H119      1.0  0.06450  0.27776  0.40377  1.0000
  C   C127      1.0  0.04721  0.20361  0.46670  1.0000
  C   C128      1.0  0.17582  0.02327  0.43796  1.0000
  H   H120      1.0  0.47424  0.01388  0.28399  1.0000
  C   C129      1.0  0.04960  0.26168  0.48055  1.0000
  S   S35       1.0  0.02066  0.18121  0.47416  1.0000
  C   C130      1.0  0.17082  0.03530  0.43511  1.0000
  H   H121      1.0  0.34660  0.03676  0.45210  1.0000
  C   C131      1.0  0.02195  0.31157  0.45234  1.0000
  H   H122      1.0  0.02522  0.28337  0.45020  1.0000
  H   H123      1.0  0.17291  0.04018  0.42613  1.0000
  S   S36       1.0  0.01682  0.26279  0.45323  1.0000
  Fe  Fe23      1.0  0.03577  0.25367  0.45220  1.0000
  C   C132      1.0  0.05585  0.12131  0.46410  1.0000
  S   S37       1.0  0.22661  0.03077  0.44103  1.0000
  C   C133      1.0  0.05568  0.27829  0.40297  1.0000
  S   S38       1.0  0.08361  0.19822  0.48078  1.0000
  C   C134      1.0  0.02443  0.29925  0.45530  1.0000
  C   C135      1.0  0.19707  0.04177  0.46028  1.0000
  C   C136      1.0  0.03659  0.19390  0.45951  1.0000
  H   H124      1.0  0.05002  0.20308  0.44844  1.0000
  H   H125      1.0  0.35726  0.02945  0.44111  1.0000
  C   C137      1.0  0.28921  0.04264  0.44705  1.0000
  C   C138      1.0  0.24158  0.02951  0.43453  1.0000
  C   C139      1.0  0.47826  0.02677  0.31123  1.0000
  H   H126      1.0  0.29634  0.04646  0.44106  1.0000
  H   H127      1.0  0.06551  0.13337  0.45115  1.0000
  H   H128      1.0  0.04532  0.14321  0.47786  1.0000
  S   S39       1.0  0.20213  0.01359  0.45057  1.0000
  H   H129      1.0  0.42349  0.00839  0.38000  1.0000
  H   H130      1.0  0.06733  0.18368  0.45958  1.0000
  H   H131      1.0  0.00386  0.11484  0.45654  1.0000
  C   C140      1.0  0.03035  0.19043  0.47104  1.0000
  C   C141      1.0  0.37532  0.00954  0.46765  1.0000
  C   C142      1.0  0.31092  0.01810  0.45859  1.0000
  H   H132      1.0  0.42087  0.00702  0.40142  1.0000
  H   H133      1.0  0.31305  0.01417  0.45110  1.0000
  C   C143      1.0  0.29906  0.02058  0.47783  1.0000
  C   C144      1.0  0.09330  0.21332  0.45099  1.0000
  C   C145      1.0  0.04499  0.20060  0.45731  1.0000
  S   S40       1.0  0.28136  0.00123  0.44379  1.0000
  H   H134      1.0  0.21439  0.03758  0.46382  1.0000
  S   S41       1.0  0.08862  0.27400  0.48165  1.0000
  S   S42       1.0  0.04619  0.25050  0.46575  1.0000
  H   H135      1.0  0.02342  0.24424  0.48363  1.0000
  H   H136      1.0  0.99951  0.28167  0.47841  1.0000
  C   C146      1.0  0.26092  0.01751  0.42837  1.0000
  C   C147      1.0  0.06038  0.16985  0.45783  1.0000
  C   C148      1.0  0.04146  0.26048  0.47505  1.0000
  H   H137      1.0  0.26973  0.02710  0.44771  1.0000
  S   S43       1.0  0.05865  0.21053  0.46451  1.0000
  H   H138      1.0  0.02723  0.29465  0.46342  1.0000
  N   N11       1.0  0.09671  0.07999  0.48408  1.0000
  N   N12       1.0  0.19288  0.02295  0.47891  1.0000
  S   S44       1.0  0.48278  0.03113  0.29596  1.0000
  S   S45       1.0  0.06741  0.11417  0.47124  1.0000
  H   H139      1.0  0.08627  0.23434  0.46694  1.0000
  C   C149      1.0  0.04701  0.28861  0.40386  1.0000
  C   C150      1.0  0.00983  0.10601  0.48595  1.0000
  H   H140      1.0  0.07991  0.09196  0.48477  1.0000
  H   H141      1.0  0.02795  0.31302  0.48630  1.0000
  H   H142      1.0  0.24549  0.01062  0.43730  1.0000
  H   H143      1.0  0.30469  0.03076  0.48637  1.0000
  C   C151      1.0  0.18612  0.03882  0.46368  1.0000
  C   C152      1.0  0.03469  0.27612  0.49026  1.0000
  S   S46       1.0  0.15196  0.04212  0.46663  1.0000
  C   C153      1.0  0.31591  0.02955  0.46925  1.0000
  C   C154      1.0  0.10371  0.07011  0.48030  1.0000
  H   H144      1.0  0.37749  0.02489  0.45400  1.0000
  N   N13       1.0  0.45046  0.00387  0.39305  1.0000
  C   C155      1.0  0.00760  0.21008  0.41473  1.0000
  H   H145      1.0  0.49486  0.02681  0.35785  1.0000
  C   C156      1.0  0.35605  0.03258  0.44927  1.0000
  H   H146      1.0  0.17920  0.04377  0.45902  1.0000
  C   C157      1.0  0.37131  0.01963  0.45958  1.0000
  H   H147      1.0  0.27496  0.03840  0.47580  1.0000
  H   H148      1.0  0.38446  0.00706  0.46839  1.0000
  C   C158      1.0  0.20584  0.03534  0.46639  1.0000
  C   C159      1.0  0.03201  0.19417  0.48022  1.0000
  S   S47       1.0  0.46546  0.01147  0.35010  1.0000
  H   H149      1.0  0.48502  0.04285  0.24580  1.0000
  C   C160      1.0  0.08425  0.29795  0.45976  1.0000
  H   H150      1.0  0.08412  0.27594  0.45944  1.0000
  C   C161      1.0  0.11343  0.06367  0.48514  1.0000
  S   S48       1.0  0.13304  0.01936  0.48263  1.0000
  C   C162      1.0  0.08126  0.25305  0.48871  1.0000
  H   H151      1.0  0.19174  0.00512  0.48424  1.0000
  C   C163      1.0  0.15129  0.02538  0.42771  1.0000
  C   C164      1.0  0.20362  0.02586  0.47569  1.0000
  H   H152      1.0  0.25503  0.03307  0.47483  1.0000
  S   S49       1.0  0.00081  0.23987  0.45105  1.0000
  H   H153      1.0  0.21829  0.00209  0.47216  1.0000
  H   H154      1.0  0.00782  0.12591  0.46081  1.0000
  N   N14       1.0  0.25635  0.01537  0.40464  1.0000
  N   N15       1.0  0.00768  0.22450  0.47620  1.0000
  C   C165      1.0  0.28318  0.03687  0.44301  1.0000
  H   H155      1.0  0.29089  0.04761  0.46218  1.0000
  H   H156      1.0  0.48705  0.03638  0.33392  1.0000
  H   H157      1.0  0.05921  0.15783  0.49096  1.0000
  C   C166      1.0  0.25445  0.00425  0.40938  1.0000
  H   H158      1.0  0.17724  0.00768  0.45180  1.0000
  C   C167      1.0  0.15796  0.01389  0.42811  1.0000
  H   H159      1.0  0.46863  0.99671  0.39325  1.0000
  H   H160      1.0  0.04783  0.28255  0.45814  1.0000
  H   H161      1.0  0.08961  0.09285  0.47046  1.0000
  H   H162      1.0  0.10124  0.21615  0.46355  1.0000
  C   C168      1.0  0.06417  0.17570  0.46402  1.0000
  Fe  Fe24      1.0  0.08217  0.21021  0.49246  1.0000
  H   H163      1.0  0.15552  0.00095  0.46459  1.0000
  S   S50       1.0  0.36691  0.00213  0.44371  1.0000
  H   H164      1.0  0.19883  0.04897  0.45287  1.0000
  Fe  Fe25      1.0  0.05942  0.10844  0.49026  1.0000
  H   H165      1.0  0.47384  0.00795  0.30555  1.0000
  H   H166      1.0  0.24873  0.03369  0.40395  1.0000
  C   C169      1.0  0.00209  0.21616  0.47426  1.0000
  S   S51       1.0  0.32582  0.03678  0.47076  1.0000
  H   H167      1.0  0.01953  0.27163  0.40046  1.0000
  C   C170      1.0  0.09927  0.08385  0.49247  1.0000
  C   C171      1.0  0.06376  0.17132  0.47600  1.0000
  H   H168      1.0  0.11878  0.05565  0.48236  1.0000
  H   H169      1.0  0.01065  0.12571  0.44538  1.0000
  H   H170      1.0  0.01859  0.22133  0.41449  1.0000
  C   C172      1.0  0.35227  0.01551  0.46497  1.0000
  C   C173      1.0  0.36760  0.00234  0.47436  1.0000
  H   H171      1.0  0.48882  0.01050  0.33526  1.0000
  H   H172      1.0  0.35004  0.99956  0.47781  1.0000
  C   C174      1.0  0.35602  0.00529  0.47297  1.0000
  C   C175      1.0  0.02988  0.26714  0.47711  1.0000
  H   H173      1.0  0.48677  0.02073  0.35140  1.0000
  H   H174      1.0  0.28549  0.03629  0.43382  1.0000
  S   S52       1.0  0.09738  0.21898  0.48755  1.0000
  H   H175      1.0  0.01906  0.28656  0.39221  1.0000
  C   C176      1.0  0.47570  0.00429  0.28446  1.0000
  H   H176      1.0  0.29166  0.01896  0.48504  1.0000
  H   H177      1.0  0.16428  0.01153  0.42031  1.0000
  H   H178      1.0  0.09965  0.20520  0.44967  1.0000
  H   H179      1.0  0.01448  0.28346  0.40811  1.0000
  C   C177      1.0  0.43942  0.00499  0.40021  1.0000
  C   C178      1.0  0.00692  0.23961  0.48588  1.0000
  H   H180      1.0  0.43819  0.00422  0.40959  1.0000
  C   C179      1.0  0.35772  0.99757  0.43782  1.0000
  C   C180      1.0  0.49572  0.02114  0.35174  1.0000
  Fe  Fe26      1.0  0.14564  0.02945  0.48294  1.0000
  C   C181      1.0  0.05954  0.16113  0.48165  1.0000
  C   C182      1.0  0.08320  0.24080  0.48997  1.0000
  C   C183      1.0  0.02644  0.27484  0.48490  1.0000
  H   H181      1.0  0.46705  0.00173  0.28727  1.0000
  H   H182      1.0  0.99935  0.14756  0.45041  1.0000
  H   H183      1.0  0.00396  0.20759  0.48054  1.0000
  H   H184      1.0  0.14017  0.00165  0.46595  1.0000
  C   C184      1.0  0.05246  0.14418  0.48138  1.0000
  C   C185      1.0  0.09065  0.25872  0.48357  1.0000
  H   H185      1.0  0.06262  0.31055  0.45869  1.0000
  C   C186      1.0  0.02761  0.31962  0.49096  1.0000
  H   H186      1.0  0.04163  0.20373  0.48507  1.0000
  H   H187      1.0  0.06681  0.17571  0.48088  1.0000
  S   S53       1.0  0.40071  0.99614  0.44211  1.0000
  H   H188      1.0  0.08518  0.30629  0.45325  1.0000
  H   H189      1.0  0.05856  0.25656  0.47896  1.0000
  H   H190      1.0  0.44360  0.00692  0.36700  1.0000
  H   H191      1.0  0.06014  0.13673  0.47987  1.0000
  Fe  Fe27      1.0  0.32850  0.02934  0.48910  1.0000
  H   H192      1.0  0.16264  0.99689  0.43913  1.0000
  C   C187      1.0  0.48763  0.99407  0.31172  1.0000
  C   C188      1.0  0.09453  0.23425  0.48622  1.0000
  H   H193      1.0  0.00194  0.24572  0.49148  1.0000
  C   C189      1.0  0.99768  0.10667  0.49001  1.0000
  H   H194      1.0  0.49281  0.99647  0.25367  1.0000
  C   C190      1.0  0.22796  0.99523  0.48596  1.0000
  C   C191      1.0  0.19087  0.01259  0.48824  1.0000
  H   H195      1.0  0.05274  0.27082  0.49173  1.0000
  H   H196      1.0  0.25504  0.99518  0.45639  1.0000
  H   H197      1.0  0.37067  0.99432  0.48041  1.0000
  C   C192      1.0  0.26395  0.99455  0.41033  1.0000
  Fe  Fe28      1.0  0.20992  0.99462  0.45673  1.0000
  S   S54       1.0  0.06344  0.21933  0.49178  1.0000
  H   H198      1.0  0.04920  0.14350  0.49104  1.0000
  H   H199      1.0  0.07254  0.25811  0.49160  1.0000
  C   C193      1.0  0.99732  0.30052  0.47460  1.0000
  H   H200      1.0  0.99740  0.26455  0.44027  1.0000
  C   C194      1.0  0.99658  0.28996  0.47264  1.0000
  H   H201      1.0  0.01667  0.32692  0.43934  1.0000
  Fe  Fe29      1.0  0.31432  0.99415  0.42868  1.0000
  C   C195      1.0  0.99688  0.20677  0.41991  1.0000
  H   H202      1.0  0.17891  0.04325  0.49223  1.0000
  S   S55       1.0  0.15688  0.01385  0.49246  1.0000
  H   H203      1.0  0.06775  0.32602  0.54019  1.0000
  C   C196      1.0  0.99907  0.31219  0.56920  1.0000
  H   H204      1.0  0.00533  0.29336  0.54275  1.0000
  H   H205      1.0  0.33822  0.00121  0.56549  1.0000
  H   H206      1.0  0.37327  0.03721  0.53888  1.0000
  C   C197      1.0  0.19178  0.03480  0.53875  1.0000
  H   H207      1.0  0.39748  0.00296  0.56840  1.0000
  C   C198      1.0  0.28749  0.03010  0.50922  1.0000
  N   N16       1.0  0.41568  0.00165  0.56747  1.0000
  S   S56       1.0  0.43726  0.00865  0.64622  1.0000
  S   S57       1.0  0.44709  0.00319  0.61282  1.0000
  H   H208      1.0  0.38572  0.02831  0.50161  1.0000
  S   S58       1.0  0.25782  0.03458  0.49802  1.0000
  Fe  Fe30      1.0  0.47538  0.04311  0.69031  1.0000
  S   S59       1.0  0.47628  0.02529  0.70204  1.0000
  S   S60       1.0  0.47740  0.05798  0.69683  1.0000
  Fe  Fe31      1.0  0.47073  0.03529  0.67049  1.0000
  S   S61       1.0  0.47085  0.01686  0.68081  1.0000
  S   S62       1.0  0.46971  0.03862  0.65159  1.0000
  Fe  Fe32      1.0  0.46049  0.02537  0.69591  1.0000
  S   S63       1.0  0.44607  0.01854  0.70994  1.0000
  Fe  Fe33      1.0  0.48648  0.01855  0.68587  1.0000
  C   C199      1.0  0.17690  0.01973  0.52138  1.0000
  S   S64       1.0  0.45871  0.04382  0.68519  1.0000
  S   S65       1.0  0.48731  0.03640  0.67452  1.0000
  C   C200      1.0  0.44745  0.03515  0.74188  1.0000
  C   C201      1.0  0.02752  0.16972  0.50805  1.0000
  H   H209      1.0  0.02614  0.14211  0.51266  1.0000
  C   C202      1.0  0.26333  0.01164  0.54307  1.0000
  C   C203      1.0  0.37801  0.99781  0.51121  1.0000
  H   H210      1.0  0.01217  0.15224  0.51152  1.0000
  Fe  Fe34      1.0  0.05915  0.20503  0.50761  1.0000
  S   S66       1.0  0.04390  0.20821  0.52291  1.0000
  H   H211      1.0  0.29250  0.99849  0.49450  1.0000
  S   S67       1.0  0.48177  0.99528  0.60056  1.0000
  S   S68       1.0  0.07790  0.19691  0.50922  1.0000
  H   H212      1.0  0.02004  0.31003  0.50789  1.0000
  Fe  Fe35      1.0  0.05261  0.11812  0.51220  1.0000
  Fe  Fe36      1.0  0.33637  0.02993  0.51026  1.0000
  S   S69       1.0  0.04898  0.13447  0.51921  1.0000
  H   H213      1.0  0.08385  0.05100  0.49502  1.0000
  H   H214      1.0  0.03946  0.31998  0.57005  1.0000
  C   C204      1.0  0.44241  0.99478  0.67630  1.0000
  Fe  Fe37      1.0  0.06455  0.09212  0.51274  1.0000
  S   S70       1.0  0.07815  0.07782  0.52103  1.0000
  S   S71       1.0  0.01651  0.31469  0.57816  1.0000
  H   H215      1.0  0.32280  0.99826  0.55698  1.0000
  S   S72       1.0  0.04816  0.10133  0.52371  1.0000
  H   H216      1.0  0.48803  0.02497  0.63711  1.0000
  H   H217      1.0  0.06386  0.04836  0.51839  1.0000
  S   S73       1.0  0.33316  0.01209  0.52017  1.0000
  Fe  Fe38      1.0  0.21722  0.02682  0.50604  1.0000
  H   H218      1.0  0.48353  0.01279  0.62624  1.0000
  H   H219      1.0  0.37135  0.02445  0.49299  1.0000
  H   H220      1.0  0.02495  0.15335  0.49958  1.0000
  H   H221      1.0  0.17626  0.01349  0.52972  1.0000
  C   C205      1.0  0.49610  0.99730  0.63221  1.0000
  S   S74       1.0  0.06188  0.27243  0.50922  1.0000
  C   C206      1.0  0.01707  0.10363  0.49395  1.0000
  Fe  Fe39      1.0  0.06018  0.30611  0.50061  1.0000
  S   S75       1.0  0.04733  0.29810  0.51581  1.0000
  H   H222      1.0  0.00739  0.28274  0.51109  1.0000
  Fe  Fe40      1.0  0.06336  0.28432  0.51971  1.0000
  S   S76       1.0  0.06748  0.27800  0.53757  1.0000
  Fe  Fe41      1.0  0.04720  0.28726  0.50361  1.0000
  S   S77       1.0  0.03066  0.28573  0.49992  1.0000
  S   S78       1.0  0.07624  0.29313  0.50535  1.0000
  H   H223      1.0  0.00871  0.27805  0.57550  1.0000
  C   C207      1.0  0.00782  0.28769  0.52666  1.0000
  H   H224      1.0  0.07604  0.23637  0.49392  1.0000
  S   S79       1.0  0.03716  0.24123  0.56827  1.0000
  H   H225      1.0  0.18109  0.05613  0.51709  1.0000
  H   H226      1.0  0.26345  0.01953  0.53612  1.0000
  S   S80       1.0  0.22524  0.03384  0.51648  1.0000
  H   H227      1.0  0.00999  0.31510  0.60294  1.0000
  H   H228      1.0  0.31968  0.03965  0.53553  1.0000
  S   S81       1.0  0.21712  0.00941  0.51855  1.0000
  H   H229      1.0  0.18186  0.02315  0.55181  1.0000
  C   C208      1.0  0.36017  0.03904  0.52922  1.0000
  H   H230      1.0  0.06837  0.26246  0.56024  1.0000
  S   S82       1.0  0.08604  0.16655  0.49760  1.0000
  C   C209      1.0  0.03459  0.19796  0.55381  1.0000
  H   H231      1.0  0.02792  0.23607  0.51036  1.0000
  S   S83       1.0  0.34332  0.04116  0.51738  1.0000
  S   S84       1.0  0.99859  0.17868  0.52736  1.0000
  C   C210      1.0  0.02012  0.32627  0.60459  1.0000
  C   C211      1.0  0.41329  0.00869  0.57533  1.0000
  C   C212      1.0  0.46488  0.00056  0.71376  1.0000
  C   C213      1.0  0.01221  0.10165  0.50606  1.0000
  H   H232      1.0  0.40615  0.00755  0.55387  1.0000
  H   H233      1.0  0.16062  0.03576  0.50126  1.0000
  H   H234      1.0  0.44051  0.06488  0.73347  1.0000
  H   H235      1.0  0.16342  0.02080  0.54926  1.0000
  H   H236      1.0  0.42781  0.00091  0.68981  1.0000
  S   S85       1.0  0.13209  0.00857  0.51084  1.0000
  C   C214      1.0  0.16805  0.03238  0.50543  1.0000
  C   C215      1.0  0.06157  0.26103  0.55698  1.0000
  C   C216      1.0  0.05937  0.26752  0.54601  1.0000
  C   C217      1.0  0.05064  0.26563  0.54177  1.0000
  H   H237      1.0  0.19984  0.03083  0.54193  1.0000
  H   H238      1.0  0.04883  0.27065  0.53336  1.0000
  H   H239      1.0  0.28268  0.00253  0.52100  1.0000
  H   H240      1.0  0.19951  0.04733  0.52435  1.0000
  C   C218      1.0  0.18160  0.03049  0.54429  1.0000
  C   C219      1.0  0.20037  0.00561  0.56019  1.0000
  C   C220      1.0  0.05688  0.05532  0.52168  1.0000
  C   C221      1.0  0.34088  0.00665  0.55656  1.0000
  H   H241      1.0  0.03811  0.19359  0.54644  1.0000
  C   C222      1.0  0.16099  0.03050  0.54598  1.0000
  C   C223      1.0  0.00882  0.30653  0.57422  1.0000
  C   C224      1.0  0.01229  0.29420  0.57645  1.0000
  C   C225      1.0  0.25317  0.00713  0.54757  1.0000
  S   S86       1.0  0.29989  0.01281  0.52398  1.0000
  H   H242      1.0  0.09826  0.05953  0.52550  1.0000
  C   C226      1.0  0.01150  0.20540  0.52270  1.0000
  C   C227      1.0  0.27213  0.01632  0.51026  1.0000
  H   H243      1.0  0.05652  0.24781  0.57229  1.0000
  C   C228      1.0  0.37142  0.02032  0.53807  1.0000
  H   H244      1.0  0.03202  0.18579  0.50798  1.0000
  H   H245      1.0  0.10857  0.04180  0.51716  1.0000
  C   C229      1.0  0.02897  0.17487  0.52538  1.0000
  C   C230      1.0  0.08540  0.06549  0.51474  1.0000
  H   H246      1.0  0.01983  0.28976  0.58032  1.0000
  C   C231      1.0  0.03543  0.21176  0.56442  1.0000
  H   H247      1.0  0.07391  0.06904  0.50291  1.0000
  H   H248      1.0  0.01946  0.32529  0.51845  1.0000
  S   S87       1.0  0.23459  0.02041  0.49436  1.0000
  H   H249      1.0  0.02789  0.17200  0.49866  1.0000
  C   C232      1.0  0.32206  0.00737  0.55245  1.0000
  C   C233      1.0  0.45013  0.03240  0.73085  1.0000
  Fe  Fe42      1.0  0.44533  0.99780  0.63239  1.0000
  N   N17       1.0  0.33052  0.01314  0.55167  1.0000
  C   C234      1.0  0.11600  0.06747  0.49380  1.0000
  C   C235      1.0  0.17840  0.03661  0.50033  1.0000
  C   C236      1.0  0.02186  0.15140  0.50931  1.0000
  H   H250      1.0  0.18191  0.01437  0.49392  1.0000
  C   C237      1.0  0.31244  0.01306  0.54726  1.0000
  Fe  Fe43      1.0  0.14324  0.00412  0.49370  1.0000
  H   H251      1.0  0.18377  0.00044  0.56804  1.0000
  N   N18       1.0  0.04927  0.06888  0.53466  1.0000
  H   H252      1.0  0.06368  0.16946  0.51431  1.0000
  H   H253      1.0  0.03979  0.21805  0.56529  1.0000
  N   N19       1.0  0.02544  0.20944  0.57247  1.0000
  Fe  Fe44      1.0  0.00712  0.25356  0.54402  1.0000
  C   C238      1.0  0.44302  0.05577  0.73267  1.0000
  C   C239      1.0  0.01155  0.20847  0.51070  1.0000
  C   C240      1.0  0.43355  0.00258  0.57714  1.0000
  C   C241      1.0  0.07613  0.15731  0.50425  1.0000
  C   C242      1.0  0.06556  0.16104  0.51195  1.0000
  C   C243      1.0  0.05750  0.15374  0.51682  1.0000
  C   C244      1.0  0.05981  0.14284  0.51381  1.0000
  C   C245      1.0  0.07045  0.13907  0.50618  1.0000
  N   N20       1.0  0.25306  0.99709  0.55620  1.0000
  H   H254      1.0  0.05057  0.06655  0.55229  1.0000
  C   C246      1.0  0.39773  0.01341  0.51700  1.0000
  H   H255      1.0  0.42015  0.01428  0.58704  1.0000
  H   H256      1.0  0.04343  0.08122  0.54598  1.0000
  C   C247      1.0  0.04008  0.20614  0.55491  1.0000
  H   H257      1.0  0.07637  0.30056  0.53381  1.0000
  C   C248      1.0  0.46729  0.06598  0.72902  1.0000
  C   C249      1.0  0.00011  0.24050  0.52190  1.0000
  N   N21       1.0  0.38884  0.01108  0.51242  1.0000
  H   H258      1.0  0.44632  0.07062  0.71236  1.0000
  C   C250      1.0  0.02061  0.21535  0.58242  1.0000
  H   H259      1.0  0.15592  0.03472  0.55349  1.0000
  N   N22       1.0  0.06073  0.31120  0.54190  1.0000
  H   H260      1.0  0.15522  0.03197  0.53977  1.0000
  C   C251      1.0  0.07865  0.14624  0.50151  1.0000
  C   C252      1.0  0.03112  0.20902  0.51841  1.0000
  C   C253      1.0  0.03112  0.21213  0.50643  1.0000
  C   C254      1.0  0.44737  0.00057  0.72946  1.0000
  H   H261      1.0  0.03871  0.21464  0.50004  1.0000
  H   H262      1.0  0.44050  0.99832  0.70371  1.0000
  Fe  Fe45      1.0  0.31657  0.01824  0.51349  1.0000
  H   H263      1.0  0.35799  0.04856  0.52753  1.0000
  S   S88       1.0  0.05986  0.32541  0.49493  1.0000
  H   H264      1.0  0.04787  0.20813  0.54837  1.0000
  C   C255      1.0  0.28895  0.01853  0.51580  1.0000
  H   H265      1.0  0.02523  0.16220  0.54160  1.0000
  H   H266      1.0  0.19445  0.02068  0.52059  1.0000
  S   S89       1.0  0.15451  0.01849  0.52256  1.0000
  H   H267      1.0  0.02174  0.14839  0.53190  1.0000
  H   H268      1.0  0.43833  0.00454  0.73300  1.0000
  S   S90       1.0  0.02116  0.09774  0.51634  1.0000
  C   C256      1.0  0.44919  0.04149  0.72088  1.0000
  C   C257      1.0  0.05260  0.30469  0.54839  1.0000
  H   H269      1.0  0.06436  0.30444  0.52652  1.0000
  C   C258      1.0  0.28138  0.01158  0.51616  1.0000
  C   C259      1.0  0.38602  0.00029  0.51600  1.0000
  H   H270      1.0  0.26663  0.01079  0.51022  1.0000
  H   H271      1.0  0.33640  0.02924  0.54501  1.0000
  C   C260      1.0  0.44610  0.01734  0.64739  1.0000
  C   C261      1.0  0.44412  0.02089  0.65798  1.0000
  C   C262      1.0  0.45145  0.02727  0.65936  1.0000
  C   C263      1.0  0.46041  0.03069  0.64992  1.0000
  C   C264      1.0  0.46204  0.02762  0.63914  1.0000
  C   C265      1.0  0.45513  0.02065  0.63797  1.0000
  H   H272      1.0  0.43692  0.01868  0.66517  1.0000
  H   H273      1.0  0.44998  0.02981  0.66763  1.0000
  H   H274      1.0  0.46867  0.03060  0.63170  1.0000
  H   H275      1.0  0.45655  0.01812  0.62969  1.0000
  C   C266      1.0  0.27019  0.02811  0.50429  1.0000
  S   S91       1.0  0.20118  0.03722  0.49884  1.0000
  C   C267      1.0  0.47655  0.04560  0.71991  1.0000
  C   C268      1.0  0.47462  0.05660  0.71220  1.0000
  C   C269      1.0  0.47021  0.06679  0.71680  1.0000
  C   C270      1.0  0.08144  0.06314  0.50604  1.0000
  H   H276      1.0  0.05200  0.29714  0.54566  1.0000
  H   H277      1.0  0.48014  0.03769  0.71650  1.0000
  H   H278      1.0  0.46882  0.07533  0.71091  1.0000
  C   C271      1.0  0.02457  0.19545  0.56219  1.0000
  H   H279      1.0  0.49615  0.02604  0.65230  1.0000
  H   H280      1.0  0.36660  0.00465  0.49902  1.0000
  N   N23       1.0  0.04219  0.23993  0.51460  1.0000
  C   C272      1.0  0.03802  0.23650  0.52645  1.0000
  C   C273      1.0  0.05290  0.24288  0.51040  1.0000
  C   C274      1.0  0.04470  0.23585  0.53442  1.0000
  C   C275      1.0  0.05988  0.24221  0.51810  1.0000
  C   C276      1.0  0.05570  0.23871  0.53019  1.0000
  H   H281      1.0  0.03061  0.18095  0.52951  1.0000
  H   H282      1.0  0.02946  0.23429  0.52979  1.0000
  H   H283      1.0  0.05607  0.24582  0.50104  1.0000
  H   H284      1.0  0.04127  0.23340  0.54382  1.0000
  H   H285      1.0  0.06839  0.24454  0.51473  1.0000
  H   H286      1.0  0.06090  0.23843  0.53629  1.0000
  Fe  Fe46      1.0  0.23510  0.00365  0.50796  1.0000
  C   C277      1.0  0.36876  0.03262  0.53567  1.0000
  H   H287      1.0  0.16323  0.04829  0.52726  1.0000
  S   S92       1.0  0.05869  0.19253  0.49723  1.0000
  C   C278      1.0  0.21120  0.00346  0.55225  1.0000
  S   S93       1.0  0.38244  0.01238  0.54581  1.0000
  C   C279      1.0  0.02396  0.15661  0.52662  1.0000
  C   C280      1.0  0.32013  0.03064  0.54048  1.0000
  C   C281      1.0  0.40627  0.00109  0.56239  1.0000
  C   C282      1.0  0.27319  0.99567  0.55635  1.0000
  H   H288      1.0  0.02106  0.20348  0.53590  1.0000
  S   S94       1.0  0.04250  0.11899  0.49904  1.0000
  H   H289      1.0  0.30471  0.99835  0.50033  1.0000
  H   H290      1.0  0.03834  0.30263  0.56367  1.0000
  C   C283      1.0  0.01015  0.32407  0.60272  1.0000
  C   C284      1.0  0.18120  0.04910  0.52490  1.0000
  N   N24       1.0  0.17152  0.03526  0.54011  1.0000
  S   S95       1.0  0.05536  0.09080  0.49962  1.0000
  S   S96       1.0  0.34630  0.02426  0.49335  1.0000
  C   C285      1.0  0.05795  0.06000  0.53057  1.0000
  C   C286      1.0  0.02979  0.17758  0.51326  1.0000
  H   H291      1.0  0.34684  0.00069  0.55076  1.0000
  C   C287      1.0  0.02118  0.20589  0.52661  1.0000
  C   C288      1.0  0.10105  0.04775  0.51402  1.0000
  N   N25       1.0  0.44588  0.05299  0.72185  1.0000
  C   C289      1.0  0.03938  0.07326  0.53014  1.0000
  H   H292      1.0  0.02343  0.22377  0.58050  1.0000
  C   C290      1.0  0.03808  0.06887  0.52115  1.0000
  H   H293      1.0  0.43685  0.99600  0.67026  1.0000
  H   H294      1.0  0.45179  0.05987  0.70355  1.0000
  C   C291      1.0  0.18731  0.02373  0.51614  1.0000
  H   H295      1.0  0.03246  0.08030  0.53334  1.0000
  C   C292      1.0  0.42216  0.00918  0.58036  1.0000
  S   S97       1.0  0.22020  0.01362  0.54785  1.0000
  C   C293      1.0  0.00228  0.28693  0.51835  1.0000
  C   C294      1.0  0.02314  0.31797  0.50310  1.0000
  S   S98       1.0  0.01371  0.23650  0.55562  1.0000
  C   C295      1.0  0.09692  0.04525  0.50552  1.0000
  C   C296      1.0  0.03490  0.24117  0.50633  1.0000
  H   H296      1.0  0.45124  0.03928  0.71235  1.0000
  C   C297      1.0  0.04485  0.30774  0.55861  1.0000
  C   C298      1.0  0.27808  0.03490  0.50350  1.0000
  C   C299      1.0  0.43724  0.99760  0.68734  1.0000
  C   C300      1.0  0.47392  0.04481  0.73213  1.0000
  H   H297      1.0  0.43610  0.06402  0.70932  1.0000
  H   H298      1.0  0.06588  0.05664  0.53404  1.0000
  C   C301      1.0  0.19158  0.04411  0.52895  1.0000
  C   C302      1.0  0.02016  0.20124  0.57157  1.0000
  C   C303      1.0  0.02134  0.21188  0.50263  1.0000
  Fe  Fe47      1.0  0.03930  0.10147  0.50971  1.0000
  H   H299      1.0  0.46939  0.00428  0.70510  1.0000
  C   C304      1.0  0.21434  0.99379  0.54698  1.0000
  H   H300      1.0  0.02358  0.20957  0.59038  1.0000
  C   C305      1.0  0.06888  0.30773  0.53132  1.0000
  C   C306      1.0  0.10890  0.07763  0.49750  1.0000
  C   C307      1.0  0.04603  0.25101  0.55958  1.0000
  Fe  Fe48      1.0  0.07347  0.28241  0.49443  1.0000
  H   H301      1.0  0.45297  0.02330  0.72997  1.0000
  H   H302      1.0  0.03056  0.25059  0.50373  1.0000
  C   C308      1.0  0.02285  0.32647  0.50901  1.0000
  Fe  Fe49      1.0  0.22625  0.01592  0.52831  1.0000
  H   H303      1.0  0.30596  0.00827  0.54764  1.0000
  C   C309      1.0  0.35440  0.03315  0.52496  1.0000
  H   H304      1.0  0.11066  0.08053  0.50441  1.0000
  H   H305      1.0  0.03758  0.25571  0.54501  1.0000
  C   C310      1.0  0.05061  0.07348  0.54409  1.0000
  C   C311      1.0  0.18815  0.03211  0.50556  1.0000
  C   C312      1.0  0.49263  0.01582  0.63777  1.0000
  H   H306      1.0  0.01243  0.19919  0.57810  1.0000
  H   H307      1.0  0.08687  0.14332  0.49558  1.0000
  N   N26       1.0  0.02473  0.15935  0.51473  1.0000
  C   C313      1.0  0.31149  0.02477  0.54121  1.0000
  C   C314      1.0  0.04690  0.05986  0.51690  1.0000
  C   C315      1.0  0.17116  0.04458  0.53066  1.0000
  C   C316      1.0  0.04406  0.25733  0.54851  1.0000
  C   C317      1.0  0.35721  0.02087  0.52720  1.0000
  Fe  Fe50      1.0  0.07774  0.18565  0.49735  1.0000
  S   S99       1.0  0.13500  0.03608  0.49907  1.0000
  H   H308      1.0  0.30424  0.02917  0.53684  1.0000
  H   H309      1.0  0.47529  0.03629  0.73805  1.0000
  S   S100      1.0  0.32478  0.01151  0.49706  1.0000
  H   H310      1.0  0.36754  0.00507  0.53562  1.0000
  H   H311      1.0  0.35296  0.01626  0.52382  1.0000
  H   H312      1.0  0.04034  0.23790  0.49834  1.0000
  C   C318      1.0  0.36554  0.01449  0.53390  1.0000
  C   C319      1.0  0.45320  0.00570  0.71831  1.0000
  C   C320      1.0  0.05493  0.25272  0.56375  1.0000
  H   H313      1.0  0.04949  0.15653  0.52296  1.0000
  H   H314      1.0  0.02757  0.31908  0.60625  1.0000
  H   H315      1.0  0.04556  0.32042  0.51851  1.0000
  C   C321      1.0  0.09519  0.05777  0.51874  1.0000
  S   S101      1.0  0.31885  0.03663  0.50515  1.0000
  S   S102      1.0  0.99968  0.20763  0.50561  1.0000
  H   H316      1.0  0.29336  0.03550  0.50886  1.0000
  H   H317      1.0  0.46390  0.99561  0.65567  1.0000
  C   C322      1.0  0.02599  0.16435  0.53215  1.0000
  H   H318      1.0  0.01080  0.21761  0.58431  1.0000
  S   S103      1.0  0.01156  0.25582  0.52451  1.0000
  Fe  Fe51      1.0  0.14510  0.01947  0.50871  1.0000
  Fe  Fe52      1.0  0.01937  0.24768  0.56390  1.0000
  Fe  Fe53      1.0  0.24270  0.02552  0.50617  1.0000
  C   C323      1.0  0.16733  0.02389  0.51597  1.0000
  H   H319      1.0  0.99872  0.20417  0.54779  1.0000
  C   C324      1.0  0.32964  0.02465  0.54580  1.0000
  C   C325      1.0  0.08707  0.05293  0.50158  1.0000
  H   H320      1.0  0.01722  0.28409  0.52582  1.0000
  S   S104      1.0  0.24432  0.00815  0.51909  1.0000
  C   C326      1.0  0.44490  0.06236  0.71128  1.0000
  H   H321      1.0  0.02019  0.18913  0.56140  1.0000
  C   C327      1.0  0.49008  0.00901  0.63157  1.0000
  H   H322      1.0  0.00589  0.23351  0.52672  1.0000
  H   H323      1.0  0.05906  0.07639  0.54148  1.0000
  S   S105      1.0  0.01416  0.26452  0.55124  1.0000
  H   H324      1.0  0.04603  0.05645  0.50987  1.0000
  C   C328      1.0  0.19233  0.99854  0.56222  1.0000
  C   C329      1.0  0.42687  0.99530  0.56411  1.0000
  S   S106      1.0  0.06984  0.10895  0.50255  1.0000
  S   S107      1.0  0.00253  0.25072  0.57743  1.0000
  H   H325      1.0  0.40587  0.01395  0.51001  1.0000
  C   C330      1.0  0.04549  0.31748  0.56219  1.0000
  C   C331      1.0  0.44434  0.99616  0.69512  1.0000
  H   H326      1.0  0.00404  0.20255  0.52893  1.0000
  H   H327      1.0  0.27674  0.04398  0.49875  1.0000
  S   S108      1.0  0.10367  0.03248  0.49987  1.0000
  C   C332      1.0  0.06148  0.32070  0.54543  1.0000
  H   H328      1.0  0.28140  0.00912  0.54396  1.0000
  C   C333      1.0  0.43597  0.99566  0.56890  1.0000
  H   H329      1.0  0.07238  0.13067  0.50385  1.0000
  H   H330      1.0  0.19799  0.01301  0.56438  1.0000
  Fe  Fe54      1.0  0.12297  0.02485  0.49958  1.0000
  H   H331      1.0  0.03029  0.07256  0.51745  1.0000
  C   C334      1.0  0.27340  0.00582  0.54748  1.0000
  H   H332      1.0  0.19725  0.01002  0.49403  1.0000
  H   H333      1.0  0.02151  0.21385  0.49343  1.0000
  H   H334      1.0  0.23513  0.99883  0.56529  1.0000
  H   H335      1.0  0.46363  0.07388  0.73251  1.0000
  C   C335      1.0  0.37553  0.01755  0.49936  1.0000
  H   H336      1.0  0.40004  0.00639  0.52464  1.0000
  H   H337      1.0  0.09369  0.09164  0.49554  1.0000
  C   C336      1.0  0.00117  0.29287  0.53610  1.0000
  H   H338      1.0  0.44039  0.00257  0.58131  1.0000
  H   H339      1.0  0.34592  0.01265  0.55735  1.0000
  C   C337      1.0  0.37280  0.00649  0.50279  1.0000
  C   C338      1.0  0.00600  0.28755  0.57372  1.0000
  H   H340      1.0  0.07228  0.31528  0.52507  1.0000
  C   C339      1.0  0.00006  0.10236  0.51011  1.0000
  C   C340      1.0  0.38364  0.01969  0.50428  1.0000
  H   H341      1.0  0.40442  0.01368  0.57804  1.0000
  C   C341      1.0  0.00100  0.25220  0.51980  1.0000
  Fe  Fe55      1.0  0.34165  0.00698  0.50288  1.0000
  H   H342      1.0  0.39429  0.02179  0.52015  1.0000
  H   H343      1.0  0.24536  0.01167  0.54410  1.0000
  C   C342      1.0  0.46912  0.05500  0.73672  1.0000
  H   H344      1.0  0.12337  0.06243  0.49778  1.0000
  C   C343      1.0  0.05381  0.32405  0.55556  1.0000
  S   S109      1.0  0.99684  0.18026  0.55992  1.0000
  Fe  Fe56      1.0  0.99674  0.26665  0.56387  1.0000
  C   C344      1.0  0.48301  0.30626  0.95796  1.0000
  S   S110      1.0  0.46365  0.25262  0.95343  1.0000
  C   C345      1.0  0.48675  0.12741  0.95489  1.0000
  S   S111      1.0  0.47783  0.27042  0.96510  1.0000
  C   C346      1.0  0.47925  0.23142  0.93555  1.0000
  S   S112      1.0  0.48229  0.04024  0.77867  1.0000
  S   S113      1.0  0.46292  0.14724  0.97653  1.0000
  S   S114      1.0  0.46454  0.05401  0.75204  1.0000
  H   H345      1.0  0.49592  0.12637  0.95087  1.0000
  H   H346      1.0  0.47780  0.01475  0.77705  1.0000
  H   H347      1.0  0.46269  0.11755  0.95644  1.0000
  C   C347      1.0  0.46803  0.12240  0.95819  1.0000
  C   C348      1.0  0.45573  0.30236  0.96249  1.0000
  C   C349      1.0  0.48460  0.22266  0.94389  1.0000
  C   C350      1.0  0.47332  0.99861  0.77735  1.0000
  H   H348      1.0  0.47576  0.21476  0.98003  1.0000
  H   H349      1.0  0.48393  0.06734  0.83178  1.0000
  H   H350      1.0  0.47280  0.05830  0.84917  1.0000
  Fe  Fe57      1.0  0.46768  0.18749  0.97406  1.0000
  C   C351      1.0  0.49482  0.07903  0.83048  1.0000
  S   S115      1.0  0.45774  0.20209  0.98356  1.0000
  C   C352      1.0  0.45174  0.22275  0.96806  1.0000
  H   H351      1.0  0.48105  0.24700  0.92196  1.0000
  H   H352      1.0  0.48599  0.07261  0.86442  1.0000
  H   H353      1.0  0.44834  0.02821  0.74966  1.0000
  C   C353      1.0  0.47415  0.14323  0.93142  1.0000
  S   S116      1.0  0.48792  0.16371  0.95682  1.0000
  H   H354      1.0  0.46406  0.00256  0.77783  1.0000
  S   S117      1.0  0.47658  0.16985  0.98328  1.0000
  S   S118      1.0  0.46096  0.18038  0.96257  1.0000
  H   H355      1.0  0.48472  0.28930  0.96991  1.0000
  H   H356      1.0  0.47790  0.23481  0.96861  1.0000
  S   S119      1.0  0.47888  0.32076  0.99021  1.0000
  H   H357      1.0  0.48546  0.00151  0.74937  1.0000
  C   C354      1.0  0.48034  0.32291  0.96668  1.0000
  C   C355      1.0  0.48049  0.31534  0.97771  1.0000
  H   H358      1.0  0.45750  0.15721  0.95192  1.0000
  H   H359      1.0  0.47275  0.16857  0.93843  1.0000
  H   H360      1.0  0.47572  0.26096  0.98872  1.0000
  H   H361      1.0  0.44197  0.04916  0.75133  1.0000
  C   C356      1.0  0.46242  0.23843  0.96171  1.0000
  C   C357      1.0  0.48146  0.31838  0.95684  1.0000
  C   C358      1.0  0.48570  0.14120  0.92473  1.0000
  H   H362      1.0  0.44434  0.21948  0.96801  1.0000
  S   S120      1.0  0.48578  0.11244  0.94188  1.0000
  S   S121      1.0  0.48384  0.30080  0.94568  1.0000
  Fe  Fe58      1.0  0.48051  0.04768  0.75982  1.0000
  H   H363      1.0  0.48704  0.13980  0.96449  1.0000
  N   N27       1.0  0.48396  0.06942  0.84871  1.0000
  C   C359      1.0  0.49286  0.00012  0.77725  1.0000
  H   H364      1.0  0.45369  0.13109  0.97026  1.0000
  N   N28       1.0  0.45365  0.29246  0.96089  1.0000
  C   C360      1.0  0.46946  0.22011  0.97481  1.0000
  H   H365      1.0  0.45661  0.31157  0.97504  1.0000
  H   H366      1.0  0.44744  0.29528  0.94541  1.0000
  N   N29       1.0  0.46972  0.15283  0.93647  1.0000
  S   S122      1.0  0.49246  0.06001  0.75605  1.0000
  C   C361      1.0  0.49372  0.99506  0.74809  1.0000
  C   C362      1.0  0.48107  0.00548  0.77698  1.0000
  H   H367      1.0  0.48116  0.05334  0.86031  1.0000
  H   H368      1.0  0.45009  0.29642  0.99241  1.0000
  Fe  Fe59      1.0  0.49579  0.05118  0.77415  1.0000
  H   H369      1.0  0.47982  0.21612  0.94962  1.0000
  C   C363      1.0  0.47067  0.23145  0.96836  1.0000
  C   C364      1.0  0.47991  0.12124  0.95243  1.0000
  H   H370      1.0  0.45754  0.28124  0.94876  1.0000
  C   C365      1.0  0.45766  0.15486  0.94361  1.0000
  H   H371      1.0  0.47043  0.23167  0.93495  1.0000
  C   C366      1.0  0.49112  0.04277  0.81893  1.0000
  H   H372      1.0  0.44661  0.23934  0.95642  1.0000
  C   C367      1.0  0.45546  0.29076  0.94893  1.0000
  Fe  Fe60      1.0  0.47961  0.25858  0.95319  1.0000
  C   C368      1.0  0.48166  0.13513  0.96260  1.0000
  C   C369      1.0  0.48520  0.24002  0.92829  1.0000
  C   C370      1.0  0.47618  0.06133  0.85519  1.0000
  C   C371      1.0  0.49469  0.19436  0.92843  1.0000
  C   C372      1.0  0.45301  0.23401  0.96154  1.0000
  C   C373      1.0  0.48195  0.30324  0.97883  1.0000
  C   C374      1.0  0.48342  0.29868  0.96894  1.0000
  Fe  Fe61      1.0  0.47816  0.18177  0.94976  1.0000
  C   C375      1.0  0.46295  0.13003  0.96601  1.0000
  C   C376      1.0  0.45993  0.21579  0.97472  1.0000
  C   C377      1.0  0.49198  0.04704  0.80676  1.0000
  H   H373      1.0  0.44518  0.27903  0.98937  1.0000
  C   C378      1.0  0.44958  0.28430  0.97039  1.0000
  C   C379      1.0  0.48825  0.07454  0.85487  1.0000
  H   H374      1.0  0.46307  0.29433  0.94297  1.0000
  C   C380      1.0  0.46969  0.13667  0.96793  1.0000
  H   H375      1.0  0.48927  0.13339  0.92104  1.0000
  H   H376      1.0  0.45186  0.16213  0.93862  1.0000
  H   H377      1.0  0.48110  0.32428  0.94835  1.0000
  C   C381      1.0  0.44813  0.28565  0.98186  1.0000
  Fe  Fe62      1.0  0.47124  0.16286  0.97070  1.0000
  H   H378      1.0  0.45401  0.14685  0.94621  1.0000
  C   C382      1.0  0.48713  0.07159  0.83667  1.0000
  H   H379      1.0  0.48668  0.04465  0.80234  1.0000
  H   H380      1.0  0.44778  0.27651  0.96911  1.0000
  H   H381      1.0  0.48354  0.10789  0.97482  1.0000
  H   H382      1.0  0.46854  0.06566  0.86127  1.0000
  C   C383      1.0  0.47638  0.16082  0.93466  1.0000
  H   H383      1.0  0.48212  0.29737  0.98735  1.0000
  H   H384      1.0  0.45880  0.30892  0.95497  1.0000
  S   S123      1.0  0.48175  0.18968  0.93045  1.0000
  C   C384      1.0  0.45078  0.29545  0.98357  1.0000
  S   S124      1.0  0.48378  0.19056  0.96048  1.0000
  H   H385      1.0  0.46891  0.13685  0.93280  1.0000
  H   H386      1.0  0.48513  0.03709  0.82386  1.0000
  S   S125      1.0  0.49431  0.03329  0.75251  1.0000
  C   C385      1.0  0.45444  0.30395  0.97384  1.0000
  H   H387      1.0  0.48170  0.11736  0.99121  1.0000
  H   H388      1.0  0.49532  0.21487  0.96309  1.0000
  S   S126      1.0  0.49571  0.04131  0.84021  1.0000
  H   H389      1.0  0.48492  0.22771  0.99001  1.0000
  C   C386      1.0  0.49161  0.10227  0.97716  1.0000
  H   H390      1.0  0.49135  0.18457  0.98345  1.0000
  C   C387      1.0  0.48797  0.15907  0.92803  1.0000
  Fe  Fe63      1.0  0.48785  0.28107  0.94947  1.0000
  Fe  Fe64      1.0  0.49231  0.17241  0.96854  1.0000
  S   S127      1.0  0.48786  0.27039  0.93703  1.0000
  H   H391      1.0  0.46310  0.23313  0.99231  1.0000
  N   N30       1.0  0.49383  0.10145  0.98785  1.0000
  H   H392      1.0  0.48967  0.21071  0.91642  1.0000
  C   C388      1.0  0.44377  0.04690  0.74283  1.0000
  C   C389      1.0  0.49267  0.14915  0.92311  1.0000
  H   H393      1.0  0.49326  0.16537  0.92678  1.0000
  C   C390      1.0  0.49588  0.08212  0.84896  1.0000
  Fe  Fe65      1.0  0.49556  0.25958  0.96768  1.0000
  N   N31       1.0  0.49554  0.22250  0.94500  1.0000
  C   C391      1.0  0.49614  0.20538  0.92146  1.0000
  C   C392      1.0  0.49646  0.23967  0.92931  1.0000
  H   H394      1.0  0.09934  0.48532  0.10398  1.0000
  H   H395      1.0  0.28216  0.38010  0.99666  1.0000
  C   C393      1.0  0.19944  0.44632  0.05786  1.0000
  H   H396      1.0  0.28076  0.45639  0.01442  1.0000
  N   N32       1.0  0.28346  0.45974  0.02975  1.0000
  H   H397      1.0  0.02923  0.54132  0.21315  1.0000
  Fe  Fe66      1.0  0.05085  0.49053  0.13511  1.0000
  S   S128      1.0  0.24678  0.48262  0.02087  1.0000
  C   C394      1.0  0.40782  0.57921  0.00859  1.0000
  S   S129      1.0  0.48480  0.35636  0.01871  1.0000
  C   C395      1.0  0.10547  0.52368  0.22810  1.0000
  C   C396      1.0  0.41457  0.63774  0.02367  1.0000
  C   C397      1.0  0.42072  0.63037  0.03215  1.0000
  C   C398      1.0  0.27065  0.40613  0.00544  1.0000
  N   N33       1.0  0.99905  0.48229  0.23963  1.0000
  C   C399      1.0  0.34874  0.53656  0.00897  1.0000
  H   H398      1.0  0.10627  0.51254  0.21667  1.0000
  S   S130      1.0  0.28986  0.42531  0.01066  1.0000
  C   C400      1.0  0.45046  0.34924  0.02021  1.0000
  C   C401      1.0  0.35184  0.53191  0.01985  1.0000
  H   H399      1.0  0.21659  0.45024  0.05139  1.0000
  Fe  Fe67      1.0  0.30811  0.42436  0.01219  1.0000
  S   S131      1.0  0.31173  0.42279  0.02979  1.0000
  S   S132      1.0  0.00024  0.49700  0.19954  1.0000
  C   C402      1.0  0.24898  0.52110  0.99945  1.0000
  C   C403      1.0  0.00468  0.49919  0.11222  1.0000
  C   C404      1.0  0.09741  0.47708  0.10344  1.0000
  C   C405      1.0  0.21188  0.47152  0.03765  1.0000
  Fe  Fe68      1.0  0.29383  0.43897  0.99430  1.0000
  H   H400      1.0  0.45825  0.33427  0.00562  1.0000
  Fe  Fe69      1.0  0.30582  0.49095  0.04424  1.0000
  S   S133      1.0  0.30704  0.47466  0.03832  1.0000
  S   S134      1.0  0.29610  0.49406  0.06210  1.0000
  Fe  Fe70      1.0  0.31986  0.50208  0.02122  1.0000
  S   S135      1.0  0.32261  0.48678  0.01301  1.0000
  H   H401      1.0  0.01639  0.50075  0.17053  1.0000
  H   H402      1.0  0.03658  0.48541  0.18683  1.0000
  S   S136      1.0  0.04171  0.44406  0.18770  1.0000
  Fe  Fe71      1.0  0.32587  0.47575  0.03039  1.0000
  S   S137      1.0  0.33956  0.45893  0.03134  1.0000
  S   S138      1.0  0.07016  0.51915  0.17325  1.0000
  S   S139      1.0  0.32505  0.49102  0.03790  1.0000
  Fe  Fe72      1.0  0.23342  0.50139  0.05592  1.0000
  S   S140      1.0  0.24168  0.50829  0.03713  1.0000
  S   S141      1.0  0.24118  0.49957  0.07122  1.0000
  Fe  Fe73      1.0  0.21195  0.49822  0.04981  1.0000
  S   S142      1.0  0.21836  0.50493  0.03054  1.0000
  S   S143      1.0  0.19541  0.49134  0.05773  1.0000
  Fe  Fe74      1.0  0.23587  0.49389  0.03357  1.0000
  C   C406      1.0  0.27405  0.46912  0.03046  1.0000
  Fe  Fe75      1.0  0.22340  0.51865  0.03610  1.0000
  C   C407      1.0  0.00119  0.46798  0.22844  1.0000
  S   S144      1.0  0.22916  0.48604  0.05245  1.0000
  S   S145      1.0  0.21545  0.51291  0.05523  1.0000
  Fe  Fe76      1.0  0.07047  0.49289  0.21251  1.0000
  S   S146      1.0  0.08133  0.50608  0.20237  1.0000
  S   S147      1.0  0.07761  0.47349  0.21415  1.0000
  C   C408      1.0  0.27936  0.41262  0.04049  1.0000
  H   H403      1.0  0.24328  0.52507  0.00665  1.0000
  C   C409      1.0  0.18771  0.52872  0.04098  1.0000
  N   N34       1.0  0.15988  0.43437  0.02675  1.0000
  Fe  Fe77      1.0  0.07043  0.51649  0.21600  1.0000
  S   S148      1.0  0.07676  0.52660  0.22498  1.0000
  H   H404      1.0  0.15427  0.45281  0.02027  1.0000
  H   H405      1.0  0.00344  0.50866  0.10951  1.0000
  Fe  Fe78      1.0  0.22577  0.42878  0.03008  1.0000
  S   S149      1.0  0.22310  0.41048  0.03405  1.0000
  S   S150      1.0  0.23572  0.43241  0.04122  1.0000
  Fe  Fe79      1.0  0.21256  0.43722  0.01040  1.0000
  S   S151      1.0  0.20914  0.41951  0.01248  1.0000
  C   C410      1.0  0.29961  0.52938  0.03308  1.0000
  Fe  Fe80      1.0  0.20478  0.41937  0.03172  1.0000
  S   S152      1.0  0.18901  0.41329  0.04396  1.0000
  Fe  Fe81      1.0  0.22779  0.41255  0.01448  1.0000
  S   S153      1.0  0.24024  0.39823  0.00585  1.0000
  S   S154      1.0  0.20698  0.43765  0.02956  1.0000
  S   S155      1.0  0.23170  0.43031  0.01057  1.0000
  Fe  Fe82      1.0  0.06862  0.46965  0.12647  1.0000
  H   H406      1.0  0.06385  0.50446  0.14223  1.0000
  S   S156      1.0  0.08333  0.45413  0.13005  1.0000
  Fe  Fe83      1.0  0.06460  0.49299  0.10957  1.0000
  H   H407      1.0  0.40358  0.57897  0.01777  1.0000
  S   S157      1.0  0.07634  0.50375  0.09549  1.0000
  C   C411      1.0  0.99974  0.54954  0.21758  1.0000
  S   S158      1.0  0.05657  0.52620  0.20568  1.0000
  H   H408      1.0  0.35402  0.42721  0.02291  1.0000
  S   S159      1.0  0.07014  0.48740  0.12688  1.0000
  N   N35       1.0  0.01119  0.54559  0.21216  1.0000
  Fe  Fe84      1.0  0.12182  0.48663  0.03988  1.0000
  S   S160      1.0  0.13178  0.46886  0.03611  1.0000
  S   S161      1.0  0.10226  0.48791  0.04706  1.0000
  Fe  Fe85      1.0  0.14416  0.49568  0.03358  1.0000
  S   S162      1.0  0.15570  0.47854  0.02999  1.0000
  S   S163      1.0  0.15442  0.50943  0.03029  1.0000
  Fe  Fe86      1.0  0.14241  0.47885  0.02022  1.0000
  S   S164      1.0  0.15159  0.47367  0.00283  1.0000
  Fe  Fe87      1.0  0.14402  0.47038  0.04607  1.0000
  S   S165      1.0  0.14927  0.45541  0.06060  1.0000
  S   S166      1.0  0.13140  0.49659  0.02286  1.0000
  S   S167      1.0  0.13360  0.48751  0.05077  1.0000
  H   H409      1.0  0.25271  0.39671  0.03377  1.0000
  S   S168      1.0  0.04308  0.41549  0.19416  1.0000
  C   C412      1.0  0.06183  0.51378  0.16700  1.0000
  S   S169      1.0  0.05079  0.42734  0.21148  1.0000
  H   H410      1.0  0.20261  0.43765  0.06291  1.0000
  Fe  Fe88      1.0  0.05496  0.42743  0.19223  1.0000
  S   S170      1.0  0.07360  0.42394  0.18179  1.0000
  C   C413      1.0  0.28483  0.45907  0.04934  1.0000
  H   H411      1.0  0.29362  0.38968  0.02707  1.0000
  C   C414      1.0  0.08075  0.44614  0.14458  1.0000
  C   C415      1.0  0.08832  0.43530  0.14771  1.0000
  C   C416      1.0  0.08610  0.42858  0.15921  1.0000
  C   C417      1.0  0.07631  0.43268  0.16759  1.0000
  C   C418      1.0  0.06892  0.44368  0.16452  1.0000
  C   C419      1.0  0.07113  0.45040  0.15302  1.0000
  H   H412      1.0  0.09583  0.43201  0.14121  1.0000
  H   H413      1.0  0.09192  0.42013  0.16158  1.0000
  H   H414      1.0  0.06171  0.44717  0.17105  1.0000
  C   C420      1.0  0.10570  0.46606  0.07553  1.0000
  C   C421      1.0  0.08354  0.49909  0.08216  1.0000
  C   C422      1.0  0.07842  0.49307  0.07736  1.0000
  C   C423      1.0  0.08418  0.48983  0.06651  1.0000
  C   C424      1.0  0.09524  0.49230  0.06056  1.0000
  C   C425      1.0  0.10047  0.49810  0.06551  1.0000
  C   C426      1.0  0.09456  0.50162  0.07619  1.0000
  H   H415      1.0  0.06986  0.49122  0.08182  1.0000
  H   H416      1.0  0.08006  0.48541  0.06271  1.0000
  H   H417      1.0  0.10891  0.50016  0.06094  1.0000
  H   H418      1.0  0.09852  0.50637  0.07981  1.0000
  C   C427      1.0  0.17817  0.42514  0.04853  1.0000
  C   C428      1.0  0.17702  0.43638  0.04119  1.0000
  C   C429      1.0  0.16797  0.44569  0.04473  1.0000
  C   C430      1.0  0.16034  0.44385  0.05578  1.0000
  C   C431      1.0  0.16159  0.43267  0.06318  1.0000
  C   C432      1.0  0.17038  0.42327  0.05947  1.0000
  H   H419      1.0  0.18282  0.43781  0.03260  1.0000
  H   H420      1.0  0.16701  0.45429  0.03895  1.0000
  H   H421      1.0  0.15569  0.43122  0.07174  1.0000
  H   H422      1.0  0.17124  0.41459  0.06515  1.0000
  H   H423      1.0  0.12275  0.46375  0.06369  1.0000
  C   C433      1.0  0.40900  0.63291  0.01813  1.0000
  H   H424      1.0  0.28112  0.41927  0.04379  1.0000
  H   H425      1.0  0.00118  0.40453  0.20814  1.0000
  H   H426      1.0  0.18506  0.41679  0.01506  1.0000
  C   C434      1.0  0.49269  0.57984  0.99739  1.0000
  C   C435      1.0  0.00804  0.50210  0.20654  1.0000
  C   C436      1.0  0.06518  0.46835  0.21535  1.0000
  C   C437      1.0  0.05419  0.47385  0.22121  1.0000
  H   H427      1.0  0.13212  0.47018  0.07586  1.0000
  C   C438      1.0  0.00608  0.55038  0.23444  1.0000
  H   H428      1.0  0.44590  0.33595  0.04185  1.0000
  C   C439      1.0  0.06601  0.45948  0.20964  1.0000
  H   H429      1.0  0.39817  0.56752  0.00670  1.0000
  Fe  Fe89      1.0  0.06641  0.51437  0.19306  1.0000
  C   C440      1.0  0.04464  0.50653  0.16850  1.0000
  C   C441      1.0  0.04473  0.46230  0.21492  1.0000
  H   H430      1.0  0.44104  0.64095  0.00906  1.0000
  C   C442      1.0  0.28896  0.45480  0.03895  1.0000
  C   C443      1.0  0.28641  0.39595  0.03120  1.0000
  H   H431      1.0  0.24179  0.46704  0.00994  1.0000
  C   C444      1.0  0.16100  0.44488  0.01913  1.0000
  C   C445      1.0  0.00891  0.51617  0.21698  1.0000
  H   H432      1.0  0.04710  0.51362  0.18188  1.0000
  H   H433      1.0  0.01712  0.41487  0.19671  1.0000
  Fe  Fe90      1.0  0.04546  0.47904  0.11849  1.0000
  H   H434      1.0  0.34490  0.42121  0.01788  1.0000
  C   C446      1.0  0.24464  0.46831  0.02626  1.0000
  C   C447      1.0  0.24207  0.46268  0.01899  1.0000
  C   C448      1.0  0.23939  0.45158  0.02354  1.0000
  C   C449      1.0  0.23966  0.44597  0.03524  1.0000
  C   C450      1.0  0.24268  0.45143  0.04239  1.0000
  C   C451      1.0  0.24504  0.46266  0.03793  1.0000
  H   H435      1.0  0.29436  0.46058  0.01262  1.0000
  H   H436      1.0  0.23706  0.44746  0.01799  1.0000
  H   H437      1.0  0.24288  0.44711  0.05146  1.0000
  H   H438      1.0  0.24717  0.46694  0.04354  1.0000
  C   C452      1.0  0.18441  0.49578  0.04963  1.0000
  C   C453      1.0  0.18637  0.50211  0.03797  1.0000
  C   C454      1.0  0.17727  0.50588  0.03184  1.0000
  C   C455      1.0  0.16621  0.50334  0.03736  1.0000
  C   C456      1.0  0.16443  0.49652  0.04881  1.0000
  C   C457      1.0  0.17351  0.49278  0.05495  1.0000
  H   H439      1.0  0.19477  0.50430  0.03372  1.0000
  H   H440      1.0  0.17874  0.51096  0.02289  1.0000
  H   H441      1.0  0.15592  0.49447  0.05309  1.0000
  H   H442      1.0  0.17201  0.48774  0.06392  1.0000
  H   H443      1.0  0.24970  0.41250  0.03086  1.0000
  C   C458      1.0  0.18749  0.45042  0.05779  1.0000
  C   C459      1.0  0.03953  0.43760  0.14888  1.0000
  C   C460      1.0  0.01393  0.54288  0.20048  1.0000
  C   C461      1.0  0.28871  0.40428  0.03571  1.0000
  C   C462      1.0  0.44797  0.63837  0.02434  1.0000
  H   H444      1.0  0.47789  0.62388  0.00935  1.0000
  H   H445      1.0  0.29774  0.40445  0.03525  1.0000
  C   C463      1.0  0.20835  0.53542  0.00088  1.0000
  C   C464      1.0  0.37318  0.50482  0.01915  1.0000
  C   C465      1.0  0.26780  0.41248  0.04073  1.0000
  C   C466      1.0  0.28093  0.49530  0.06439  1.0000
  C   C467      1.0  0.27378  0.49627  0.07550  1.0000
  C   C468      1.0  0.26160  0.49757  0.07748  1.0000
  C   C469      1.0  0.25647  0.49804  0.06833  1.0000
  C   C470      1.0  0.26360  0.49719  0.05714  1.0000
  C   C471      1.0  0.27585  0.49574  0.05518  1.0000
  H   H446      1.0  0.27768  0.49597  0.08263  1.0000
  H   H447      1.0  0.25611  0.49822  0.08614  1.0000
  H   H448      1.0  0.25970  0.49758  0.05005  1.0000
  H   H449      1.0  0.28132  0.49499  0.04657  1.0000
  H   H450      1.0  0.08783  0.47912  0.10383  1.0000
  H   H451      1.0  0.09931  0.46997  0.11116  1.0000
  C   C472      1.0  0.18359  0.46147  0.05102  1.0000
  N   N36       1.0  0.42134  0.61850  0.03499  1.0000
  H   H452      1.0  0.20755  0.48102  0.03589  1.0000
  H   H453      1.0  0.27005  0.47332  0.02297  1.0000
  H   H454      1.0  0.21881  0.47058  0.04240  1.0000
  C   C473      1.0  0.06642  0.51135  0.15572  1.0000
  H   H455      1.0  0.06551  0.45895  0.15077  1.0000
  S   S171      1.0  0.06433  0.47484  0.10872  1.0000
  C   C474      1.0  0.27912  0.39663  0.00163  1.0000
  C   C475      1.0  0.25389  0.50902  0.00151  1.0000
  C   C476      1.0  0.00798  0.47473  0.11889  1.0000
  H   H456      1.0  0.33294  0.51345  0.03200  1.0000
  H   H457      1.0  0.01032  0.49418  0.23546  1.0000
  C   C477      1.0  0.27474  0.39594  0.03176  1.0000
  H   H458      1.0  0.36532  0.44159  0.00800  1.0000
  C   C478      1.0  0.00631  0.50734  0.13837  1.0000
  H   H459      1.0  0.43540  0.56661  0.01810  1.0000
  C   C479      1.0  0.25513  0.39751  0.00472  1.0000
  C   C480      1.0  0.25866  0.40649  0.00708  1.0000
  C   C481      1.0  0.47538  0.33351  0.04920  1.0000
  C   C482      1.0  0.28236  0.52003  0.99474  1.0000
  C   C483      1.0  0.48721  0.62411  0.00850  1.0000
  H   H460      1.0  0.25220  0.41383  0.00997  1.0000
  H   H461      1.0  0.40438  0.63848  0.01139  1.0000
  C   C484      1.0  0.31988  0.43266  0.02981  1.0000
  C   C485      1.0  0.32698  0.42969  0.03797  1.0000
  C   C486      1.0  0.33339  0.43758  0.03819  1.0000
  C   C487      1.0  0.33244  0.44859  0.03047  1.0000
  C   C488      1.0  0.32522  0.45163  0.02242  1.0000
  C   C489      1.0  0.31908  0.44362  0.02198  1.0000
  H   H462      1.0  0.32756  0.42127  0.04412  1.0000
  H   H463      1.0  0.33881  0.43529  0.04457  1.0000
  H   H464      1.0  0.32437  0.46017  0.01648  1.0000
  H   H465      1.0  0.31350  0.44612  0.01581  1.0000
  H   H466      1.0  0.18868  0.47674  0.03891  1.0000
  H   H467      1.0  0.26055  0.41912  0.04425  1.0000
  C   C490      1.0  0.48059  0.34410  0.02897  1.0000
  H   H468      1.0  0.01406  0.47780  0.22612  1.0000
  H   H469      1.0  0.26758  0.52578  0.04591  1.0000
  C   C491      1.0  0.18334  0.53291  0.03072  1.0000
  N   N37       1.0  0.29172  0.53299  0.02595  1.0000
  C   C492      1.0  0.47829  0.34360  0.04107  1.0000
  H   H470      1.0  0.02351  0.48811  0.20439  1.0000
  C   C493      1.0  0.20732  0.45347  0.05127  1.0000
  H   H471      1.0  0.06859  0.42672  0.14675  1.0000
  H   H472      1.0  0.21006  0.52906  0.99554  1.0000
  H   H473      1.0  0.17431  0.46475  0.05092  1.0000
  C   C494      1.0  0.27655  0.52697  0.04239  1.0000
  C   C495      1.0  0.28801  0.45542  0.01880  1.0000
  H   H474      1.0  0.48100  0.33511  0.01578  1.0000
  C   C496      1.0  0.11602  0.47357  0.08901  1.0000
  C   C497      1.0  0.09916  0.46956  0.08600  1.0000
  H   H475      1.0  0.26214  0.48099  0.04118  1.0000
  H   H476      1.0  0.16291  0.52174  0.05998  1.0000
  Fe  Fe91      1.0  0.43680  0.60117  0.00490  1.0000
  C   C498      1.0  0.12284  0.46999  0.07867  1.0000
  C   C499      1.0  0.19175  0.46826  0.04433  1.0000
  C   C500      1.0  0.05087  0.51144  0.17334  1.0000
  H   H477      1.0  0.01010  0.41340  0.22513  1.0000
  C   C501      1.0  0.26966  0.47359  0.04071  1.0000
  C   C502      1.0  0.47963  0.33468  0.02506  1.0000
  N   N38       1.0  0.20340  0.46434  0.04473  1.0000
  C   C503      1.0  0.99663  0.48176  0.11853  1.0000
  C   C504      1.0  0.06040  0.43164  0.14417  1.0000
  H   H478      1.0  0.00429  0.46827  0.19163  1.0000
  H   H479      1.0  0.29245  0.44595  0.02048  1.0000
  Fe  Fe92      1.0  0.30367  0.48696  0.02152  1.0000
  H   H480      1.0  0.45392  0.63876  0.03936  1.0000
  S   S172      1.0  0.05633  0.50042  0.20229  1.0000
  C   C505      1.0  0.48013  0.64433  0.02917  1.0000
  C   C506      1.0  0.07877  0.51871  0.23901  1.0000
  C   C507      1.0  0.43957  0.65750  0.01338  1.0000
  C   C508      1.0  0.01433  0.46647  0.17417  1.0000
  H   H481      1.0  0.21610  0.46874  0.02915  1.0000
  N   N39       1.0  0.08332  0.47751  0.17517  1.0000
  C   C509      1.0  0.08242  0.47835  0.16395  1.0000
  C   C510      1.0  0.08714  0.46680  0.18203  1.0000
  C   C511      1.0  0.08560  0.46829  0.15923  1.0000
  C   C512      1.0  0.09026  0.45654  0.17764  1.0000
  C   C513      1.0  0.08959  0.45733  0.16614  1.0000
  C   C514      1.0  0.07981  0.48817  0.17990  1.0000
  H   H482      1.0  0.07926  0.48685  0.15858  1.0000
  H   H483      1.0  0.08778  0.46615  0.19096  1.0000
  H   H484      1.0  0.08494  0.46895  0.15029  1.0000
  H   H485      1.0  0.09317  0.44802  0.18313  1.0000
  H   H486      1.0  0.09210  0.44945  0.16260  1.0000
  H   H487      1.0  0.07015  0.49160  0.18105  1.0000
  H   H488      1.0  0.08204  0.48655  0.18860  1.0000
  H   H489      1.0  0.08431  0.49509  0.17381  1.0000
  Fe  Fe93      1.0  0.04775  0.51140  0.21582  1.0000
  H   H490      1.0  0.08986  0.46951  0.08870  1.0000
  H   H491      1.0  0.08131  0.45349  0.23383  1.0000
  H   H492      1.0  0.45486  0.40916  0.01218  1.0000
  N   N40       1.0  0.26562  0.40413  0.03649  1.0000
  C   C515      1.0  0.35268  0.42525  0.01502  1.0000
  H   H493      1.0  0.42258  0.60514  0.05052  1.0000
  H   H494      1.0  0.35296  0.50055  0.01863  1.0000
  C   C516      1.0  0.34244  0.43830  0.99973  1.0000
  C   C517      1.0  0.02099  0.47305  0.18770  1.0000
  C   C518      1.0  0.11139  0.50250  0.23287  1.0000
  H   H495      1.0  0.26096  0.38099  0.99920  1.0000
  H   H496      1.0  0.25191  0.50384  0.01034  1.0000
  H   H497      1.0  0.18375  0.52094  0.05952  1.0000
  H   H498      1.0  0.03454  0.49561  0.21383  1.0000
  C   C519      1.0  0.01774  0.54668  0.22871  1.0000
  H   H499      1.0  0.10462  0.53238  0.24161  1.0000
  Fe  Fe94      1.0  0.03641  0.44299  0.20707  1.0000
  N   N41       1.0  0.45136  0.33648  0.02337  1.0000
  C   C520      1.0  0.01236  0.46922  0.18511  1.0000
  H   H500      1.0  0.49234  0.61485  0.00934  1.0000
  H   H501      1.0  0.29665  0.44759  0.03827  1.0000
  H   H502      1.0  0.18127  0.44499  0.06289  1.0000
  N   N42       1.0  0.03128  0.47417  0.17961  1.0000
  H   H503      1.0  0.20228  0.55802  0.02031  1.0000
  H   H504      1.0  0.10148  0.46356  0.07009  1.0000
  N   N43       1.0  0.37068  0.49331  0.02059  1.0000
  H   H505      1.0  0.03547  0.47502  0.22563  1.0000
  C   C521      1.0  0.02055  0.51047  0.21749  1.0000
  H   H506      1.0  0.36052  0.41874  0.01160  1.0000
  Fe  Fe95      1.0  0.48799  0.35327  0.00056  1.0000
  H   H507      1.0  0.27307  0.38949  0.02811  1.0000
  S   S173      1.0  0.43678  0.62036  0.00231  1.0000
  H   H508      1.0  0.30874  0.52994  0.02945  1.0000
  H   H509      1.0  0.28929  0.45525  0.05657  1.0000
  C   C522      1.0  0.04972  0.42403  0.16395  1.0000
  C   C523      1.0  0.27508  0.46850  0.05022  1.0000
  C   C524      1.0  0.25343  0.40432  0.03675  1.0000
  C   C525      1.0  0.11761  0.46630  0.07186  1.0000
  H   H510      1.0  0.12012  0.47655  0.09418  1.0000
  S   S174      1.0  0.06086  0.50247  0.22707  1.0000
  S   S175      1.0  0.31133  0.43908  0.99682  1.0000
  N   N44       1.0  0.10431  0.47342  0.09248  1.0000
  C   C526      1.0  0.44717  0.65631  0.03020  1.0000
  H   H511      1.0  0.07482  0.51330  0.15071  1.0000
  H   H512      1.0  0.24791  0.40419  0.04581  1.0000
  C   C527      1.0  0.02579  0.50038  0.21290  1.0000
  C   C528      1.0  0.00319  0.41352  0.23308  1.0000
  H   H513      1.0  0.24409  0.55790  0.00765  1.0000
  S   S176      1.0  0.44905  0.59528  0.01735  1.0000
  N   N45       1.0  0.00591  0.50878  0.15788  1.0000
  H   H514      1.0  0.47890  0.35093  0.04415  1.0000
  C   C529      1.0  0.06025  0.50629  0.15094  1.0000
  H   H515      1.0  0.00656  0.46299  0.22187  1.0000
  H   H516      1.0  0.43601  0.60509  0.03915  1.0000
  H   H517      1.0  0.06625  0.45780  0.24165  1.0000
  H   H518      1.0  0.02343  0.49622  0.11046  1.0000
  C   C530      1.0  0.02482  0.46767  0.16594  1.0000
  H   H519      1.0  0.11286  0.49404  0.23067  1.0000
  C   C531      1.0  0.29612  0.52452  0.04507  1.0000
  C   C532      1.0  0.47956  0.63905  0.02049  1.0000
  C   C533      1.0  0.36583  0.47146  0.02355  1.0000
  H   H520      1.0  0.35997  0.40387  0.99700  1.0000
  C   C534      1.0  0.01950  0.49613  0.20754  1.0000
  C   C535      1.0  0.28033  0.53181  0.03045  1.0000
  H   H521      1.0  0.08279  0.50166  0.23479  1.0000
  C   C536      1.0  0.41643  0.58588  0.00309  1.0000
  C   C537      1.0  0.17830  0.42474  0.01603  1.0000
  H   H522      1.0  0.03116  0.43735  0.15514  1.0000
  C   C538      1.0  0.34016  0.53276  0.00627  1.0000
  C   C539      1.0  0.04938  0.50379  0.15737  1.0000
  H   H523      1.0  0.34823  0.52023  0.03679  1.0000
  S   S177      1.0  0.04515  0.49784  0.11788  1.0000
  C   C540      1.0  0.27561  0.38750  0.99955  1.0000
  H   H524      1.0  0.22677  0.45674  0.99881  1.0000
  H   H525      1.0  0.02094  0.50944  0.14359  1.0000
  H   H526      1.0  0.00573  0.51401  0.17342  1.0000
  S   S178      1.0  0.38512  0.46426  0.99722  1.0000
  H   H527      1.0  0.22101  0.52484  0.01110  1.0000
  C   C541      1.0  0.44699  0.39359  0.99373  1.0000
  H   H528      1.0  0.34853  0.48115  0.02120  1.0000
  S   S179      1.0  0.30058  0.50323  0.02815  1.0000
  H   H529      1.0  0.02143  0.53511  0.19973  1.0000
  C   C542      1.0  0.00588  0.42889  0.18688  1.0000
  C   C543      1.0  0.01765  0.47993  0.11611  1.0000
  C   C544      1.0  0.00534  0.47652  0.23079  1.0000
  H   H530      1.0  0.30354  0.54101  0.01119  1.0000
  Fe  Fe96      1.0  0.02946  0.43223  0.19119  1.0000
  H   H531      1.0  0.27204  0.50082  0.02536  1.0000
  C   C545      1.0  0.33732  0.51990  0.02557  1.0000
  C   C546      1.0  0.33468  0.52419  0.01442  1.0000
  H   H532      1.0  0.22852  0.55896  0.01058  1.0000
  H   H533      1.0  0.38267  0.50477  0.01533  1.0000
  C   C547      1.0  0.19770  0.55410  0.00606  1.0000
  H   H534      1.0  0.05350  0.48063  0.22575  1.0000
  C   C548      1.0  0.40472  0.57272  0.00234  1.0000
  C   C549      1.0  0.00277  0.51216  0.21125  1.0000
  H   H535      1.0  0.45465  0.57220  0.00868  1.0000
  C   C550      1.0  0.29569  0.53718  0.01324  1.0000
  H   H536      1.0  0.42711  0.55695  0.00784  1.0000
  S   S180      1.0  0.21975  0.53797  0.02803  1.0000
  C   C551      1.0  0.34590  0.52380  0.02831  1.0000
  H   H537      1.0  0.00783  0.46320  0.17216  1.0000
  H   H538      1.0  0.03613  0.50486  0.17344  1.0000
  H   H539      1.0  0.14607  0.44225  0.03951  1.0000
  C   C552      1.0  0.45005  0.64397  0.03200  1.0000
  H   H540      1.0  0.22106  0.55565  0.99392  1.0000
  H   H541      1.0  0.47336  0.65189  0.03150  1.0000
  H   H542      1.0  0.48362  0.38094  0.00223  1.0000
  S   S181      1.0  0.04982  0.47209  0.13623  1.0000
  Fe  Fe97      1.0  0.03756  0.41701  0.21306  1.0000
  S   S182      1.0  0.32492  0.51880  0.01015  1.0000
  H   H543      1.0  0.00470  0.52377  0.22084  1.0000
  C   C553      1.0  0.40966  0.62080  0.02111  1.0000
  C   C554      1.0  0.46929  0.39446  0.00862  1.0000
  H   H544      1.0  0.07449  0.45510  0.20521  1.0000
  S   S183      1.0  0.31714  0.41048  0.00165  1.0000
  S   S184      1.0  0.04161  0.49702  0.15189  1.0000
  H   H545      1.0  0.00925  0.46525  0.12139  1.0000
  C   C555      1.0  0.44020  0.56472  0.00957  1.0000
  H   H546      1.0  0.29809  0.52970  0.00877  1.0000
  H   H547      1.0  0.47377  0.33306  0.05855  1.0000
  C   C556      1.0  0.04397  0.47076  0.22108  1.0000
  H   H548      1.0  0.38789  0.48380  0.02288  1.0000
  H   H549      1.0  0.44853  0.35308  0.01131  1.0000
  H   H550      1.0  0.26289  0.52218  0.02089  1.0000
  Fe  Fe98      1.0  0.45039  0.61415  0.01322  1.0000
  S   S185      1.0  0.29100  0.48638  0.01158  1.0000
  S   S186      1.0  0.36409  0.53516  0.02217  1.0000
  S   S187      1.0  0.45150  0.62287  0.02702  1.0000
  H   H551      1.0  0.35314  0.54299  0.00254  1.0000
  H   H552      1.0  0.05053  0.45063  0.12071  1.0000
  H   H553      1.0  0.18754  0.43601  0.00142  1.0000
  C   C557      1.0  0.17968  0.43549  0.00842  1.0000
  H   H554      1.0  0.38379  0.46430  0.02526  1.0000
  C   C558      1.0  0.44279  0.64517  0.01496  1.0000
  S   S188      1.0  0.03500  0.40133  0.22770  1.0000
  H   H555      1.0  0.17479  0.53760  0.01215  1.0000
  C   C559      1.0  0.44858  0.33099  0.03497  1.0000
  C   C560      1.0  0.21448  0.53297  0.00978  1.0000
  C   C561      1.0  0.38404  0.48763  0.99410  1.0000
  C   C562      1.0  0.03328  0.47150  0.16885  1.0000
  H   H556      1.0  0.04451  0.47026  0.18924  1.0000
  H   H557      1.0  0.02646  0.46551  0.15742  1.0000
  S   S189      1.0  0.39580  0.53522  0.00146  1.0000
  C   C563      1.0  0.05576  0.45656  0.20931  1.0000
  C   C564      1.0  0.35840  0.44350  0.00325  1.0000
  C   C565      1.0  0.10676  0.52396  0.23912  1.0000
  H   H558      1.0  0.01877  0.51498  0.16200  1.0000
  C   C566      1.0  0.43554  0.55930  0.00368  1.0000
  H   H559      1.0  0.03532  0.42187  0.23497  1.0000
  H   H560      1.0  0.01103  0.50733  0.12932  1.0000
  S   S190      1.0  0.02277  0.43273  0.21028  1.0000
  H   H561      1.0  0.10216  0.53174  0.22220  1.0000
  S   S191      1.0  0.01703  0.43649  0.17929  1.0000
  S   S192      1.0  0.03187  0.45942  0.21372  1.0000
  H   H562      1.0  0.05639  0.45011  0.20441  1.0000
  S   S193      1.0  0.03174  0.47091  0.11657  1.0000
  S   S194      1.0  0.02846  0.51600  0.22389  1.0000
  H   H563      1.0  0.14244  0.43191  0.03358  1.0000
  C   C567      1.0  0.02015  0.54443  0.21745  1.0000
  H   H564      1.0  0.16215  0.54674  0.01985  1.0000
  H   H565      1.0  0.16196  0.53190  0.01968  1.0000
  C   C568      1.0  0.16749  0.53761  0.02015  1.0000
  H   H566      1.0  0.40564  0.61686  0.01665  1.0000
  C   C569      1.0  0.01598  0.49217  0.11281  1.0000
  N   N46       1.0  0.17191  0.53322  0.03101  1.0000
  H   H567      1.0  0.18921  0.53564  0.02248  1.0000
  C   C570      1.0  0.05034  0.44512  0.12949  1.0000
  H   H568      1.0  0.27332  0.41316  0.00714  1.0000
  H   H569      1.0  0.42516  0.63419  0.03627  1.0000
  H   H570      1.0  0.15551  0.52959  0.04161  1.0000
  C   C571      1.0  0.16451  0.52959  0.04143  1.0000
  H   H571      1.0  0.27182  0.47195  0.05820  1.0000
  H   H572      1.0  0.19684  0.52837  0.04064  1.0000
  H   H573      1.0  0.04148  0.47226  0.16248  1.0000
  C   C572      1.0  0.18033  0.52468  0.05159  1.0000
  Fe  Fe99      1.0  0.37604  0.53951  0.00442  1.0000
  S   S195      1.0  0.20632  0.45157  0.99589  1.0000
  C   C573      1.0  0.28354  0.50103  0.00814  1.0000
  H   H574      1.0  0.06922  0.43918  0.12670  1.0000
  C   C574      1.0  0.42807  0.61076  0.04364  1.0000
  H   H575      1.0  0.41669  0.60424  0.03159  1.0000
  N   N47       1.0  0.35100  0.43602  0.00589  1.0000
  C   C575      1.0  0.06797  0.42440  0.23979  1.0000
  C   C576      1.0  0.03961  0.44463  0.13756  1.0000
  C   C577      1.0  0.35716  0.48171  0.02163  1.0000
  H   H576      1.0  0.27414  0.53450  0.02475  1.0000
  H   H577      1.0  0.47223  0.64260  0.01615  1.0000
  H   H578      1.0  0.45885  0.35117  0.02027  1.0000
  H   H579      1.0  0.02486  0.54536  0.23304  1.0000
  C   C578      1.0  0.14949  0.43381  0.03647  1.0000
  H   H580      1.0  0.04095  0.42195  0.16835  1.0000
  N   N48       1.0  0.48806  0.62950  0.01760  1.0000
  H   H581      1.0  0.05191  0.42890  0.16927  1.0000
  C   C579      1.0  0.00830  0.41847  0.19524  1.0000
  S   S196      1.0  0.42042  0.59353  0.01141  1.0000
  C   C580      1.0  0.45091  0.56801  0.00422  1.0000
  S   S197      1.0  0.47276  0.35319  0.99369  1.0000
  H   H582      1.0  0.36398  0.46295  0.02448  1.0000
  H   H583      1.0  0.44322  0.35376  0.02651  1.0000
  C   C581      1.0  0.35973  0.49263  0.02021  1.0000
  H   H584      1.0  0.01944  0.47499  0.19629  1.0000
  H   H585      1.0  0.37062  0.50745  0.02778  1.0000
  S   S198      1.0  0.39820  0.42987  1.00000  1.0000
  H   H586      1.0  0.28176  0.51939  0.05898  1.0000
  H   H587      1.0  0.36820  0.51169  0.01304  1.0000
  H   H588      1.0  0.41434  0.64711  0.02127  1.0000
  H   H589      1.0  0.16752  0.41601  0.03130  1.0000
  C   C582      1.0  0.01187  0.50856  0.14650  1.0000
  C   C583      1.0  0.06081  0.43865  0.13282  1.0000
  C   C584      1.0  0.16863  0.52514  0.05185  1.0000
  C   C585      1.0  0.19991  0.54594  0.99906  1.0000
  S   S199      1.0  0.47824  0.57769  0.00076  1.0000
  C   C586      1.0  0.27478  0.50616  0.01674  1.0000
  C   C587      1.0  0.16829  0.42434  0.02519  1.0000
  H   H590      1.0  0.03143  0.44975  0.13505  1.0000
  C   C588      1.0  0.37918  0.48328  0.02266  1.0000
  H   H591      1.0  0.28865  0.54409  0.00954  1.0000
  H   H592      1.0  0.12679  0.48208  0.00152  1.0000
  C   C589      1.0  0.37691  0.47222  0.02409  1.0000
  C   C590      1.0  0.21226  0.54108  0.01681  1.0000
  H   H593      1.0  0.06790  0.44181  0.22923  1.0000
  H   H594      1.0  0.44530  0.39174  0.00324  1.0000
  H   H595      1.0  0.19121  0.56227  0.00462  1.0000
  N   N49       1.0  0.04985  0.43111  0.15199  1.0000
  S   S200      1.0  0.46592  0.61184  0.99820  1.0000
  H   H596      1.0  0.99714  0.42975  0.21512  1.0000
  C   C591      1.0  0.04043  0.47761  0.18279  1.0000
  C   C592      1.0  0.27366  0.52524  0.00330  1.0000
  C   C593      1.0  0.41596  0.61368  0.02956  1.0000
  H   H597      1.0  0.17192  0.45402  0.00405  1.0000
  H   H598      1.0  0.05631  0.41553  0.16387  1.0000
  C   C594      1.0  0.26364  0.38798  0.00100  1.0000
  C   C595      1.0  0.26971  0.51825  0.01426  1.0000
  H   H599      1.0  0.04741  0.48002  0.17498  1.0000
  H   H600      1.0  0.30244  0.52131  0.05067  1.0000
  H   H601      1.0  0.48826  0.59586  0.00371  1.0000
  C   C596      1.0  0.45555  0.33005  0.01478  1.0000
  C   C597      1.0  0.20399  0.55173  0.01487  1.0000
  H   H602      1.0  0.47060  0.64451  0.99640  1.0000
  C   C598      1.0  0.28451  0.52335  0.04973  1.0000
  C   C599      1.0  0.10775  0.51287  0.22499  1.0000
  C   C600      1.0  0.17096  0.44562  0.00993  1.0000
  C   C601      1.0  0.03802  0.40303  0.24038  1.0000
  H   H603      1.0  0.43120  0.61584  0.04805  1.0000
  H   H604      1.0  0.15172  0.42691  0.04423  1.0000
  H   H605      1.0  0.25846  0.48674  0.99520  1.0000
  Fe  Fe100     1.0  0.46345  0.59369  0.00120  1.0000
  H   H606      1.0  0.00634  0.54060  0.19887  1.0000
  H   H607      1.0  0.46852  0.38988  0.01778  1.0000
  Fe  Fe101     1.0  0.29913  0.41254  0.99883  1.0000
  S   S201      1.0  0.29413  0.39599  0.99932  1.0000
  C   C602      1.0  0.99929  0.41260  0.20170  1.0000
  C   C603      1.0  0.26558  0.49105  0.99478  1.0000
  S   S202      1.0  0.26800  0.54052  0.00031  1.0000
  C   C604      1.0  0.99701  0.55193  0.22882  1.0000
  H   H608      1.0  0.33676  0.43224  0.00161  1.0000
  C   C605      1.0  0.08200  0.50640  0.24144  1.0000
  H   H609      1.0  0.01218  0.39704  0.24234  1.0000
  C   C606      1.0  0.01199  0.50968  0.16638  1.0000
  H   H610      1.0  0.49048  0.62927  0.99962  1.0000
  C   C607      1.0  0.06986  0.43578  0.23724  1.0000
  H   H611      1.0  0.06460  0.42164  0.23381  1.0000
  C   C608      1.0  0.23715  0.55557  0.00497  1.0000
  H   H612      1.0  0.26845  0.48780  0.00327  1.0000
  H   H613      1.0  0.23879  0.54583  0.00691  1.0000
  H   H614      1.0  0.01625  0.55056  0.19356  1.0000
  H   H615      1.0  0.33802  0.53628  0.99771  1.0000
  H   H616      1.0  0.20603  0.48256  0.99454  1.0000
  C   C609      1.0  0.03769  0.41422  0.24168  1.0000
  C   C610      1.0  0.46171  0.40527  0.00550  1.0000
  C   C611      1.0  0.28721  0.50794  0.99710  1.0000
  H   H617      1.0  0.37458  0.48856  0.99648  1.0000
  C   C612      1.0  0.49529  0.58947  0.99968  1.0000
  C   C613      1.0  0.07489  0.45163  0.24231  1.0000
  C   C614      1.0  0.47777  0.38941  0.99986  1.0000
  C   C615      1.0  0.48953  0.63985  0.03479  1.0000
  H   H618      1.0  0.49007  0.64384  0.04157  1.0000
  S   S203      1.0  0.43141  0.41466  0.99560  1.0000
  C   C616      1.0  0.35724  0.45366  0.99434  1.0000
  H   H619      1.0  0.25862  0.43977  0.99304  1.0000
  N   N50       1.0  0.44133  0.55736  0.99269  1.0000
  C   C617      1.0  0.13204  0.48051  0.99302  1.0000
  C   C618      1.0  0.46267  0.41086  0.99361  1.0000
  C   C619      1.0  0.45674  0.56603  0.99301  1.0000
  C   C620      1.0  0.39144  0.47653  0.99349  1.0000
  H   H620      1.0  0.00072  0.63606  0.46982  1.0000
  C   C621      1.0  0.03952  0.63316  0.39310  1.0000
  N   N51       1.0  0.03147  0.33807  0.49075  1.0000
  C   C622      1.0  0.04440  0.48727  0.25988  1.0000
  Fe  Fe102     1.0  0.02788  0.45010  0.26429  1.0000
  S   S204      1.0  0.02224  0.43489  0.27791  1.0000
  H   H621      1.0  0.05793  0.49396  0.26233  1.0000
  Fe  Fe103     1.0  0.04849  0.44815  0.27427  1.0000
  S   S205      1.0  0.04508  0.43243  0.28847  1.0000
  S   S206      1.0  0.06309  0.45643  0.27311  1.0000
  Fe  Fe104     1.0  0.04137  0.42627  0.27437  1.0000
  S   S207      1.0  0.04693  0.40736  0.27290  1.0000
  Fe  Fe105     1.0  0.02638  0.44264  0.29057  1.0000
  S   S208      1.0  0.01375  0.44446  0.30775  1.0000
  S   S209      1.0  0.04673  0.44105  0.25985  1.0000
  S   S210      1.0  0.02996  0.45889  0.27724  1.0000
  C   C623      1.0  0.03375  0.49013  0.25638  1.0000
  S   S211      1.0  0.04603  0.52971  0.37095  1.0000
  C   C624      1.0  0.03983  0.46942  0.35129  1.0000
  S   S212      1.0  0.01278  0.54160  0.38485  1.0000
  Fe  Fe106     1.0  0.02332  0.61414  0.44322  1.0000
  S   S213      1.0  0.03127  0.61671  0.42385  1.0000
  S   S214      1.0  0.03511  0.61210  0.45531  1.0000
  H   H622      1.0  0.03928  0.47815  0.36484  1.0000
  S   S215      1.0  0.00460  0.62076  0.42010  1.0000
  H   H623      1.0  0.07505  0.41473  0.26656  1.0000
  Fe  Fe107     1.0  0.01963  0.60541  0.42332  1.0000
  S   S216      1.0  0.02717  0.59052  0.41338  1.0000
  Fe  Fe108     1.0  0.01567  0.63173  0.42237  1.0000
  S   S217      1.0  0.01659  0.64933  0.41015  1.0000
  S   S218      1.0  0.01312  0.60143  0.44300  1.0000
  S   S219      1.0  0.00844  0.63000  0.44171  1.0000
  Fe  Fe109     1.0  0.07674  0.50586  0.28869  1.0000
  S   S220      1.0  0.05848  0.51449  0.28614  1.0000
  S   S221      1.0  0.08945  0.49888  0.27350  1.0000
  Fe  Fe110     1.0  0.07024  0.50786  0.31437  1.0000
  S   S222      1.0  0.05137  0.51650  0.31378  1.0000
  S   S223      1.0  0.07728  0.50327  0.33074  1.0000
  Fe  Fe111     1.0  0.05288  0.50304  0.30369  1.0000
  S   S224      1.0  0.04013  0.49155  0.30753  1.0000
  Fe  Fe112     1.0  0.05923  0.52690  0.29645  1.0000
  S   S225      1.0  0.07114  0.49354  0.30562  1.0000
  S   S226      1.0  0.07807  0.51925  0.29756  1.0000
  H   H624      1.0  0.01865  0.38906  0.40477  1.0000
  H   H625      1.0  0.08792  0.49076  0.25393  1.0000
  H   H626      1.0  0.02092  0.43498  0.24655  1.0000
  C   C625      1.0  0.01486  0.57479  0.30678  1.0000
  C   C626      1.0  0.08398  0.63063  0.48751  1.0000
  H   H627      1.0  0.00728  0.47299  0.40798  1.0000
  H   H628      1.0  0.00768  0.58086  0.43845  1.0000
  N   N52       1.0  0.04473  0.61220  0.39486  1.0000
  C   C627      1.0  0.04698  0.62219  0.39606  1.0000
  C   C628      1.0  0.04129  0.45981  0.33544  1.0000
  H   H629      1.0  0.04856  0.47813  0.26277  1.0000
  C   C629      1.0  0.08045  0.51863  0.25852  1.0000
  H   H630      1.0  0.07827  0.43498  0.26168  1.0000
  Fe  Fe113     1.0  0.00642  0.36269  0.44485  1.0000
  H   H631      1.0  0.01969  0.62403  0.38474  1.0000
  C   C630      1.0  0.01934  0.56992  0.28778  1.0000
  C   C631      1.0  0.99874  0.41501  0.31172  1.0000
  H   H632      1.0  0.00962  0.48438  0.24969  1.0000
  C   C632      1.0  0.99732  0.39441  0.42898  1.0000
  H   H633      1.0  0.00546  0.51194  0.34849  1.0000
  H   H634      1.0  0.99831  0.46683  0.40291  1.0000
  C   C633      1.0  0.03057  0.44222  0.40881  1.0000
  N   N53       1.0  0.01085  0.45412  0.41163  1.0000
  C   C634      1.0  0.02969  0.63386  0.38892  1.0000
  Fe  Fe114     1.0  0.02747  0.53860  0.36909  1.0000
  C   C635      1.0  0.01230  0.49165  0.33207  1.0000
  H   H635      1.0  0.01623  0.48457  0.29450  1.0000
  H   H636      1.0  0.01823  0.48932  0.32409  1.0000
  C   C636      1.0  0.02985  0.60540  0.49076  1.0000
  H   H637      1.0  0.06823  0.40799  0.25257  1.0000
  C   C637      1.0  0.02392  0.65910  0.41213  1.0000
  H   H638      1.0  0.01469  0.51297  0.38154  1.0000
  C   C638      1.0  0.00833  0.63613  0.47278  1.0000
  C   C639      1.0  0.11130  0.51434  0.25842  1.0000
  H   H639      1.0  0.02887  0.64884  0.42835  1.0000
  C   C640      1.0  0.99790  0.41234  0.41366  1.0000
  S   S227      1.0  0.00059  0.43319  0.37381  1.0000
  H   H640      1.0  0.01817  0.54849  0.30923  1.0000
  H   H641      1.0  0.04615  0.34581  0.48230  1.0000
  S   S228      1.0  0.01199  0.37278  0.42621  1.0000
  H   H642      1.0  0.05733  0.51389  0.26019  1.0000
  H   H643      1.0  0.00310  0.60304  0.48920  1.0000
  C   C641      1.0  0.01245  0.43715  0.25235  1.0000
  C   C642      1.0  0.07387  0.42051  0.25817  1.0000
  H   H644      1.0  0.07985  0.52340  0.26510  1.0000
  C   C643      1.0  0.05414  0.52111  0.36060  1.0000
  C   C644      1.0  0.04937  0.52073  0.35152  1.0000
  C   C645      1.0  0.05630  0.51485  0.34261  1.0000
  C   C646      1.0  0.06810  0.50944  0.34260  1.0000
  C   C647      1.0  0.07279  0.50940  0.35193  1.0000
  C   C648      1.0  0.06582  0.51525  0.36091  1.0000
  H   H645      1.0  0.04048  0.52532  0.35108  1.0000
  H   H646      1.0  0.05247  0.51464  0.33575  1.0000
  H   H647      1.0  0.08190  0.50513  0.35205  1.0000
  H   H648      1.0  0.06956  0.51549  0.36793  1.0000
  C   C649      1.0  0.01859  0.63840  0.46459  1.0000
  C   C650      1.0  0.04484  0.55295  0.27006  1.0000
  H   H649      1.0  0.03209  0.42345  0.41461  1.0000
  C   C651      1.0  0.02018  0.58705  0.40415  1.0000
  C   C652      1.0  0.02532  0.57680  0.39964  1.0000
  C   C653      1.0  0.01986  0.57351  0.39259  1.0000
  H   H650      1.0  0.03122  0.40874  0.29508  1.0000
  C   C654      1.0  0.99704  0.49753  0.35245  1.0000
  H   H651      1.0  0.03350  0.57126  0.40174  1.0000
  H   H652      1.0  0.02381  0.56549  0.38933  1.0000
  C   C655      1.0  0.05744  0.46539  0.28349  1.0000
  C   C656      1.0  0.04740  0.46370  0.29238  1.0000
  C   C657      1.0  0.04201  0.47175  0.29975  1.0000
  C   C658      1.0  0.04677  0.48140  0.29836  1.0000
  C   C659      1.0  0.05701  0.48286  0.28971  1.0000
  C   C660      1.0  0.06237  0.47485  0.28233  1.0000
  H   H653      1.0  0.04377  0.45618  0.29361  1.0000
  H   H654      1.0  0.03418  0.47045  0.30649  1.0000
  H   H655      1.0  0.06080  0.49023  0.28852  1.0000
  H   H656      1.0  0.07017  0.47617  0.27555  1.0000
  C   C661      1.0  0.03394  0.51071  0.25248  1.0000
  H   H657      1.0  0.01955  0.51684  0.33128  1.0000
  C   C662      1.0  0.02820  0.43477  0.34088  1.0000
  C   C663      1.0  0.01619  0.43922  0.34123  1.0000
  C   C664      1.0  0.01195  0.44233  0.33095  1.0000
  C   C665      1.0  0.01969  0.44105  0.32020  1.0000
  C   C666      1.0  0.03178  0.43684  0.31971  1.0000
  C   C667      1.0  0.03604  0.43363  0.33008  1.0000
  H   H658      1.0  0.04678  0.45092  0.33823  1.0000
  H   H659      1.0  0.00262  0.44563  0.33135  1.0000
  H   H660      1.0  0.03785  0.43599  0.31142  1.0000
  C   C668      1.0  0.00807  0.63379  0.48477  1.0000
  C   C669      1.0  0.02744  0.62363  0.38774  1.0000
  H   H661      1.0  0.07798  0.45353  0.24927  1.0000
  N   N54       1.0  0.04431  0.50782  0.25606  1.0000
  C   C670      1.0  0.01015  0.50641  0.38173  1.0000
  C   C671      1.0  0.03905  0.64040  0.45953  1.0000
  C   C672      1.0  0.05184  0.47532  0.33249  1.0000
  H   H662      1.0  0.11493  0.49498  0.25011  1.0000
  H   H663      1.0  0.02527  0.39724  0.28423  1.0000
  H   H664      1.0  0.02567  0.56841  0.27972  1.0000
  H   H665      1.0  0.01113  0.41046  0.39774  1.0000
  H   H666      1.0  0.02026  0.51100  0.31899  1.0000
  H   H667      1.0  0.02588  0.49264  0.38062  1.0000
  S   S229      1.0  0.02351  0.55719  0.35885  1.0000
  H   H668      1.0  0.01049  0.42521  0.42151  1.0000
  H   H669      1.0  0.03407  0.46383  0.35718  1.0000
  C   C673      1.0  0.04349  0.54662  0.28173  1.0000
  S   S230      1.0  0.05289  0.54625  0.29042  1.0000
  C   C674      1.0  0.01714  0.60678  0.47419  1.0000
  C   C675      1.0  0.02866  0.60847  0.47038  1.0000
  C   C676      1.0  0.03503  0.60770  0.47868  1.0000
  H   H670      1.0  0.01608  0.56415  0.42835  1.0000
  H   H671      1.0  0.05146  0.55815  0.26646  1.0000
  H   H672      1.0  0.01218  0.60737  0.46782  1.0000
  H   H673      1.0  0.04394  0.60898  0.47577  1.0000
  C   C677      1.0  0.05506  0.48336  0.33668  1.0000
  H   H674      1.0  0.01829  0.41164  0.27709  1.0000
  C   C678      1.0  0.04330  0.40573  0.26048  1.0000
  C   C679      1.0  0.04019  0.41558  0.25178  1.0000
  C   C680      1.0  0.00623  0.42836  0.25871  1.0000
  C   C681      1.0  0.07000  0.41674  0.25032  1.0000
  Fe  Fe115     1.0  0.00211  0.53657  0.37534  1.0000
  C   C682      1.0  0.04363  0.39452  0.25920  1.0000
  H   H675      1.0  0.03973  0.42427  0.25276  1.0000
  H   H676      1.0  0.05301  0.49057  0.35172  1.0000
  C   C683      1.0  0.02910  0.65693  0.42177  1.0000
  Fe  Fe116     1.0  0.00820  0.53276  0.26915  1.0000
  C   C684      1.0  0.03511  0.61281  0.39075  1.0000
  C   C685      1.0  0.04280  0.47745  0.35571  1.0000
  H   H677      1.0  0.06120  0.48863  0.33100  1.0000
  C   C686      1.0  0.01149  0.39393  0.41044  1.0000
  S   S231      1.0  0.00162  0.57642  0.38167  1.0000
  S   S232      1.0  0.01890  0.47187  0.38134  1.0000
  C   C687      1.0  0.01403  0.43305  0.41776  1.0000
  H   H678      1.0  0.07589  0.62710  0.48998  1.0000
  Fe  Fe117     1.0  0.00027  0.43708  0.39092  1.0000
  H   H679      1.0  0.02569  0.41696  0.31295  1.0000
  C   C688      1.0  0.03518  0.53965  0.28628  1.0000
  H   H680      1.0  0.04114  0.38450  0.24822  1.0000
  H   H681      1.0  0.03188  0.45938  0.33902  1.0000
  S   S233      1.0  0.02027  0.35421  0.45554  1.0000
  S   S234      1.0  0.03327  0.43111  0.35393  1.0000
  C   C689      1.0  0.01646  0.49486  0.38128  1.0000
  C   C690      1.0  0.00924  0.58053  0.38987  1.0000
  C   C691      1.0  0.00751  0.56974  0.42742  1.0000
  C   C692      1.0  0.07568  0.43197  0.25534  1.0000
  C   C693      1.0  0.04961  0.49628  0.25965  1.0000
  H   H682      1.0  0.03919  0.55676  0.25375  1.0000
  Fe  Fe118     1.0  0.01198  0.55069  0.35154  1.0000
  H   H683      1.0  0.01880  0.64005  0.45529  1.0000
  C   C694      1.0  0.01065  0.48625  0.38174  1.0000
  C   C695      1.0  0.02850  0.50192  0.25261  1.0000
  C   C696      1.0  0.01796  0.63384  0.48843  1.0000
  C   C697      1.0  0.00726  0.41734  0.31587  1.0000
  H   H684      1.0  0.05320  0.52144  0.24638  1.0000
  S   S235      1.0  0.00471  0.49167  0.27186  1.0000
  H   H685      1.0  0.04537  0.43028  0.32972  1.0000
  Fe  Fe119     1.0  0.01316  0.33803  0.45965  1.0000
  H   H686      1.0  0.05438  0.62168  0.39968  1.0000
  H   H687      1.0  0.02189  0.53354  0.28276  1.0000
  H   H688      1.0  0.01002  0.40040  0.28362  1.0000
  C   C698      1.0  0.01158  0.54391  0.31511  1.0000
  H   H689      1.0  0.09330  0.64861  0.48632  1.0000
  H   H690      1.0  0.04473  0.63177  0.45794  1.0000
  H   H691      1.0  0.03017  0.50345  0.32874  1.0000
  N   N55       1.0  0.01257  0.50139  0.33551  1.0000
  C   C699      1.0  0.02807  0.63616  0.48000  1.0000
  H   H692      1.0  0.01007  0.44012  0.34945  1.0000
  C   C700      1.0  0.00964  0.59415  0.40133  1.0000
  C   C701      1.0  0.02825  0.53894  0.27916  1.0000
  C   C702      1.0  0.01695  0.40413  0.28465  1.0000
  H   H693      1.0  0.00753  0.46800  0.29611  1.0000
  C   C703      1.0  0.02209  0.41033  0.29980  1.0000
  C   C704      1.0  0.04085  0.39318  0.24922  1.0000
  S   S236      1.0  0.01721  0.53195  0.36060  1.0000
  H   H694      1.0  0.00410  0.47688  0.33602  1.0000
  H   H695      1.0  0.04276  0.46193  0.32567  1.0000
  H   H696      1.0  0.03997  0.44156  0.40555  1.0000
  H   H697      1.0  0.03420  0.53463  0.29527  1.0000
  Fe  Fe120     1.0  0.00798  0.55987  0.37402  1.0000
  H   H698      1.0  0.05091  0.59370  0.39536  1.0000
  H   H699      1.0  0.03317  0.60488  0.39000  1.0000
  Fe  Fe121     1.0  0.01813  0.43819  0.36751  1.0000
  H   H700      1.0  0.01757  0.57683  0.31367  1.0000
  S   S237      1.0  0.01767  0.45815  0.25039  1.0000
  S   S238      1.0  0.01345  0.55412  0.33191  1.0000
  H   H701      1.0  0.05010  0.59818  0.40852  1.0000
  H   H702      1.0  0.03706  0.64595  0.45104  1.0000
  C   C705      1.0  0.00208  0.41046  0.30155  1.0000
  Fe  Fe122     1.0  0.00591  0.35937  0.47075  1.0000
  C   C706      1.0  0.04986  0.51723  0.25568  1.0000
  N   N56       1.0  0.01363  0.40820  0.29571  1.0000
  H   H703      1.0  0.06173  0.60107  0.39563  1.0000
  C   C707      1.0  0.00724  0.40605  0.40644  1.0000
  S   S239      1.0  0.01870  0.43996  0.38525  1.0000
  H   H704      1.0  0.03584  0.63586  0.48291  1.0000
  C   C708      1.0  0.02274  0.45324  0.40774  1.0000
  S   S240      1.0  0.02138  0.54355  0.25848  1.0000
  N   N57       1.0  0.05471  0.54445  0.32740  1.0000
  C   C709      1.0  0.05570  0.54573  0.33793  1.0000
  C   C710      1.0  0.06424  0.53897  0.32012  1.0000
  C   C711      1.0  0.06648  0.54157  0.34135  1.0000
  C   C712      1.0  0.07513  0.53460  0.32331  1.0000
  C   C713      1.0  0.07623  0.53591  0.33401  1.0000
  C   C714      1.0  0.04317  0.54810  0.32436  1.0000
  H   H705      1.0  0.04803  0.54956  0.34398  1.0000
  H   H706      1.0  0.06338  0.53777  0.31188  1.0000
  H   H707      1.0  0.06707  0.54219  0.34993  1.0000
  H   H708      1.0  0.08255  0.52983  0.31775  1.0000
  H   H709      1.0  0.08450  0.53215  0.33681  1.0000
  H   H710      1.0  0.03775  0.55601  0.32780  1.0000
  H   H711      1.0  0.04399  0.55035  0.31466  1.0000
  H   H712      1.0  0.03839  0.54086  0.32822  1.0000
  N   N58       1.0  0.02823  0.63851  0.46824  1.0000
  H   H713      1.0  0.09176  0.62365  0.48492  1.0000
  H   H714      1.0  0.02986  0.51985  0.24940  1.0000
  C   C715      1.0  0.00424  0.59093  0.39418  1.0000
  N   N59       1.0  0.04423  0.46855  0.33977  1.0000
  H   H715      1.0  0.04107  0.64105  0.39443  1.0000
  C   C716      1.0  0.00645  0.44420  0.41648  1.0000
  H   H716      1.0  0.11258  0.50549  0.26439  1.0000
  C   C717      1.0  0.00519  0.50429  0.34565  1.0000
  C   C718      1.0  0.02972  0.54501  0.26743  1.0000
  C   C719      1.0  0.00818  0.44860  0.25430  1.0000
  C   C720      1.0  0.05228  0.60074  0.39874  1.0000
  H   H717      1.0  0.04393  0.64505  0.46260  1.0000
  C   C721      1.0  0.03796  0.55211  0.26287  1.0000
  C   C722      1.0  0.08497  0.50025  0.25222  1.0000
  H   H718      1.0  0.00471  0.42128  0.32351  1.0000
  C   C723      1.0  0.08437  0.50638  0.26069  1.0000
  C   C724      1.0  0.01201  0.60435  0.48629  1.0000
  C   C725      1.0  0.00161  0.49249  0.30690  1.0000
  Fe  Fe123     1.0  0.01009  0.45885  0.37931  1.0000
  C   C726      1.0  0.00794  0.54476  0.32698  1.0000
  C   C727      1.0  0.99845  0.48915  0.38277  1.0000
  H   H719      1.0  0.05550  0.47452  0.32340  1.0000
  N   N60       1.0  0.11018  0.51374  0.24687  1.0000
  C   C728      1.0  0.02616  0.43207  0.41387  1.0000
  C   C729      1.0  0.00674  0.53713  0.31080  1.0000
  H   H720      1.0  0.04339  0.52401  0.26019  1.0000
  S   S241      1.0  0.01092  0.45732  0.36121  1.0000
  C   C730      1.0  0.02292  0.57299  0.29631  1.0000
  H   H721      1.0  0.00956  0.53653  0.30166  1.0000
  C   C731      1.0  0.05048  0.48444  0.34835  1.0000
  H   H722      1.0  0.04604  0.38686  0.26590  1.0000
  C   C732      1.0  0.99735  0.45144  0.26191  1.0000
  C   C733      1.0  0.00439  0.40417  0.24279  1.0000
  H   H723      1.0  0.02955  0.48324  0.25662  1.0000
  C   C734      1.0  0.01904  0.41492  0.30993  1.0000
  S   S242      1.0  0.01180  0.51606  0.28268  1.0000
  C   C735      1.0  0.02106  0.50852  0.32833  1.0000
  C   C736      1.0  0.00776  0.48387  0.30044  1.0000
  S   S243      1.0  0.00042  0.34595  0.44787  1.0000
  C   C737      1.0  0.03638  0.34837  0.48426  1.0000
  C   C738      1.0  0.00655  0.38806  0.42171  1.0000
  C   C739      1.0  0.00019  0.57012  0.30000  1.0000
  H   H724      1.0  0.10307  0.51973  0.26287  1.0000
  N   N61       1.0  0.00809  0.56857  0.28967  1.0000
  C   C740      1.0  0.00267  0.46567  0.41021  1.0000
  H   H725      1.0  0.02366  0.64230  0.38693  1.0000
  S   S244      1.0  0.00020  0.34235  0.47593  1.0000
  H   H726      1.0  0.00992  0.41936  0.25773  1.0000
  H   H727      1.0  0.03334  0.35224  0.47589  1.0000
  H   H728      1.0  0.03196  0.57366  0.29491  1.0000
  H   H729      1.0  0.00643  0.55472  0.28336  1.0000
  H   H730      1.0  0.00560  0.60207  0.40472  1.0000
  C   C741      1.0  0.00341  0.57340  0.30864  1.0000
  H   H731      1.0  0.08304  0.63806  0.47978  1.0000
  H   H732      1.0  0.99701  0.44484  0.41924  1.0000
  C   C742      1.0  0.07784  0.52480  0.24761  1.0000
  H   H733      1.0  0.02623  0.46107  0.40358  1.0000
  S   S245      1.0  0.00976  0.36747  0.48350  1.0000
  H   H734      1.0  0.11885  0.51824  0.25742  1.0000
  H   H735      1.0  0.99728  0.57424  0.31701  1.0000
  H   H736      1.0  0.03528  0.33099  0.47546  1.0000
  H   H737      1.0  0.01006  0.56707  0.27197  1.0000
  C   C743      1.0  0.00282  0.57920  0.43304  1.0000
  C   C744      1.0  0.00434  0.48461  0.33875  1.0000
  H   H738      1.0  0.00094  0.46830  0.27765  1.0000
  Fe  Fe124     1.0  0.99880  0.61759  0.43981  1.0000
  H   H739      1.0  0.00531  0.49989  0.30613  1.0000
  N   N62       1.0  0.07363  0.43944  0.24498  1.0000
  C   C745      1.0  0.00480  0.56446  0.28102  1.0000
  H   H740      1.0  0.99682  0.53908  0.34377  1.0000
  C   C746      1.0  0.99972  0.53846  0.33460  1.0000
  C   C747      1.0  0.99663  0.48762  0.34897  1.0000
  C   C748      1.0  0.99838  0.53098  0.31838  1.0000
  C   C749      1.0  0.00277  0.47450  0.30137  1.0000
  H   H741      1.0  0.00521  0.56065  0.41563  1.0000
  C   C750      1.0  0.03176  0.32980  0.48489  1.0000
  C   C751      1.0  0.99796  0.50938  0.38274  1.0000
  H   H742      1.0  0.07521  0.53432  0.24579  1.0000
  H   H743      1.0  0.03351  0.35542  0.48937  1.0000
  H   H744      1.0  0.02028  0.50424  0.24976  1.0000
  C   C752      1.0  0.00133  0.56785  0.42021  1.0000
  Fe  Fe125     1.0  0.00046  0.50983  0.27507  1.0000
  S   S246      1.0  0.99884  0.52553  0.26024  1.0000
  H   H745      1.0  0.99759  0.49686  0.24706  1.0000
  H   H746      1.0  0.00032  0.63167  0.49124  1.0000
  H   H747      1.0  0.00408  0.55200  0.24324  1.0000
  C   C753      1.0  0.11255  0.50310  0.24385  1.0000
  C   C754      1.0  0.00437  0.48986  0.24311  1.0000
  H   H748      1.0  0.04614  0.52145  0.72518  1.0000
  Fe  Fe126     1.0  0.02757  0.40671  0.61364  1.0000
  S   S247      1.0  0.01405  0.42385  0.61224  1.0000
  S   S248      1.0  0.03277  0.39370  0.60153  1.0000
  Fe  Fe127     1.0  0.03723  0.41239  0.63188  1.0000
  S   S249      1.0  0.02440  0.42962  0.63214  1.0000
  S   S250      1.0  0.05157  0.40901  0.64171  1.0000
  Fe  Fe128     1.0  0.01116  0.42014  0.63194  1.0000
  H   H749      1.0  0.01768  0.55842  0.60110  1.0000
  Fe  Fe129     1.0  0.02827  0.43218  0.61258  1.0000
  S   S251      1.0  0.03131  0.44937  0.60036  1.0000
  S   S252      1.0  0.02367  0.40230  0.63355  1.0000
  S   S253      1.0  0.04214  0.41554  0.61215  1.0000
  Fe  Fe130     1.0  0.04604  0.42373  0.70075  1.0000
  S   S254      1.0  0.05214  0.44072  0.69440  1.0000
  S   S255      1.0  0.03314  0.41972  0.69295  1.0000
  Fe  Fe131     1.0  0.06962  0.42928  0.69729  1.0000
  S   S256      1.0  0.08701  0.43115  0.68517  1.0000
  S   S257      1.0  0.06388  0.41221  0.70219  1.0000
  Fe  Fe132     1.0  0.04126  0.61452  0.52145  1.0000
  S   S258      1.0  0.02212  0.62153  0.52154  1.0000
  S   S259      1.0  0.05298  0.62616  0.50861  1.0000
  Fe  Fe133     1.0  0.03673  0.59220  0.53985  1.0000
  S   S260      1.0  0.01719  0.59771  0.54115  1.0000
  S   S261      1.0  0.04601  0.57640  0.55163  1.0000
  Fe  Fe134     1.0  0.02206  0.60319  0.52140  1.0000
  H   H750      1.0  0.06214  0.45419  0.59024  1.0000
  Fe  Fe135     1.0  0.01926  0.61554  0.54108  1.0000
  C   C755      1.0  0.02043  0.33779  0.60420  1.0000
  S   S262      1.0  0.04153  0.59636  0.51997  1.0000
  S   S263      1.0  0.03846  0.60976  0.54115  1.0000
  Fe  Fe136     1.0  0.04209  0.52656  0.61893  1.0000
  S   S264      1.0  0.02338  0.53532  0.61799  1.0000
  S   S265      1.0  0.05383  0.53779  0.61920  1.0000
  Fe  Fe137     1.0  0.03975  0.50313  0.61631  1.0000
  S   S266      1.0  0.02106  0.51021  0.61444  1.0000
  S   S267      1.0  0.04780  0.48366  0.62005  1.0000
  Fe  Fe138     1.0  0.02720  0.52643  0.60293  1.0000
  S   S268      1.0  0.01993  0.53742  0.58707  1.0000
  Fe  Fe139     1.0  0.01904  0.51846  0.62947  1.0000
  N   N63       1.0  0.00876  0.43742  0.73175  1.0000
  S   S269      1.0  0.04626  0.51845  0.60327  1.0000
  S   S270      1.0  0.03742  0.51061  0.63200  1.0000
  C   C756      1.0  0.06459  0.43366  0.63469  1.0000
  C   C757      1.0  0.04958  0.52128  0.73256  1.0000
  C   C758      1.0  0.09311  0.39455  0.72817  1.0000
  S   S271      1.0  0.01852  0.33695  0.54877  1.0000
  H   H751      1.0  0.04369  0.58504  0.57656  1.0000
  H   H752      1.0  0.02747  0.51845  0.65636  1.0000
  C   C759      1.0  0.03473  0.56238  0.59765  1.0000
  S   S272      1.0  0.01254  0.36523  0.54898  1.0000
  H   H753      1.0  0.06875  0.45487  0.62293  1.0000
  H   H754      1.0  0.01530  0.40769  0.73634  1.0000
  H   H755      1.0  0.00584  0.44880  0.67115  1.0000
  H   H756      1.0  0.00587  0.44928  0.71565  1.0000
  H   H757      1.0  0.09741  0.50232  0.71088  1.0000
  C   C760      1.0  0.03356  0.43009  0.58187  1.0000
  H   H758      1.0  0.01095  0.35591  0.60164  1.0000
  H   H759      1.0  0.00226  0.46326  0.63693  1.0000
  C   C761      1.0  0.08572  0.49556  0.65000  1.0000
  C   C762      1.0  0.03747  0.41894  0.57924  1.0000
  H   H760      1.0  0.02339  0.52804  0.69347  1.0000
  H   H761      1.0  0.03341  0.53140  0.74133  1.0000
  H   H762      1.0  0.05953  0.42479  0.61952  1.0000
  H   H763      1.0  0.03259  0.40490  0.57557  1.0000
  H   H764      1.0  0.07752  0.38930  0.71710  1.0000
  Fe  Fe140     1.0  0.06665  0.50770  0.70550  1.0000
  S   S273      1.0  0.06582  0.49047  0.70266  1.0000
  S   S274      1.0  0.07011  0.50660  0.72308  1.0000
  Fe  Fe141     1.0  0.06705  0.51983  0.67983  1.0000
  S   S275      1.0  0.06653  0.50358  0.67490  1.0000
  S   S276      1.0  0.06808  0.53632  0.66594  1.0000
  Fe  Fe142     1.0  0.05299  0.50159  0.69169  1.0000
  S   S277      1.0  0.03657  0.49725  0.69120  1.0000
  Fe  Fe143     1.0  0.07946  0.49425  0.68619  1.0000
  S   S278      1.0  0.09576  0.48146  0.67967  1.0000
  S   S279      1.0  0.05245  0.51864  0.69596  1.0000
  S   S280      1.0  0.08136  0.51067  0.68970  1.0000
  H   H765      1.0  0.99842  0.55526  0.65043  1.0000
  H   H766      1.0  0.03600  0.64137  0.56063  1.0000
  H   H767      1.0  0.01875  0.43740  0.67390  1.0000
  C   C763      1.0  0.01972  0.51102  0.71980  1.0000
  C   C764      1.0  0.02853  0.50557  0.71147  1.0000
  C   C765      1.0  0.02556  0.50280  0.70235  1.0000
  C   C766      1.0  0.01380  0.50534  0.70166  1.0000
  C   C767      1.0  0.05566  0.33265  0.50668  1.0000
  H   H768      1.0  0.02205  0.51344  0.72666  1.0000
  H   H769      1.0  0.03763  0.50359  0.71204  1.0000
  C   C768      1.0  0.99708  0.45710  0.64271  1.0000
  C   C769      1.0  0.01262  0.41955  0.71994  1.0000
  C   C770      1.0  0.00885  0.48808  0.66294  1.0000
  H   H770      1.0  0.01369  0.40466  0.57483  1.0000
  C   C771      1.0  0.00737  0.56193  0.72846  1.0000
  C   C772      1.0  0.00294  0.64687  0.56067  1.0000
  H   H771      1.0  0.00947  0.43351  0.70497  1.0000
  H   H772      1.0  0.05939  0.35649  0.51373  1.0000
  H   H773      1.0  0.01199  0.46850  0.69739  1.0000
  Fe  Fe144     1.0  0.04861  0.44074  0.71361  1.0000
  Fe  Fe145     1.0  0.00899  0.35971  0.56880  1.0000
  H   H774      1.0  0.01745  0.59909  0.57600  1.0000
  C   C773      1.0  0.05712  0.53739  0.63252  1.0000
  C   C774      1.0  0.05414  0.52898  0.64270  1.0000
  C   C775      1.0  0.05708  0.52884  0.65317  1.0000
  C   C776      1.0  0.06335  0.53686  0.65334  1.0000
  C   C777      1.0  0.06631  0.54524  0.64314  1.0000
  C   C778      1.0  0.06321  0.54550  0.63276  1.0000
  H   H775      1.0  0.04961  0.52257  0.64251  1.0000
  H   H776      1.0  0.05438  0.52262  0.66109  1.0000
  H   H777      1.0  0.07111  0.55149  0.64322  1.0000
  H   H778      1.0  0.06559  0.55199  0.62489  1.0000
  C   C779      1.0  0.04471  0.48046  0.73139  1.0000
  C   C780      1.0  0.04859  0.32826  0.51739  1.0000
  H   H779      1.0  0.00256  0.57017  0.73159  1.0000
  H   H780      1.0  0.05536  0.43426  0.63987  1.0000
  S   S281      1.0  0.04087  0.42486  0.71981  1.0000
  C   C781      1.0  0.05309  0.63816  0.51400  1.0000
  C   C782      1.0  0.04881  0.63826  0.52595  1.0000
  C   C783      1.0  0.04952  0.64749  0.53036  1.0000
  H   H781      1.0  0.01793  0.63172  0.49772  1.0000
  C   C784      1.0  0.02715  0.33649  0.50267  1.0000
  C   C785      1.0  0.05794  0.64749  0.50641  1.0000
  H   H782      1.0  0.04495  0.63123  0.53186  1.0000
  H   H783      1.0  0.09169  0.40855  0.70033  1.0000
  H   H784      1.0  0.05414  0.33187  0.55804  1.0000
  Fe  Fe146     1.0  0.01433  0.33361  0.56834  1.0000
  C   C786      1.0  0.01085  0.63702  0.55690  1.0000
  C   C787      1.0  0.01054  0.48845  0.67378  1.0000
  H   H785      1.0  0.01073  0.42374  0.65873  1.0000
  C   C788      1.0  0.01164  0.39007  0.59992  1.0000
  C   C789      1.0  0.02677  0.64293  0.56064  1.0000
  C   C790      1.0  0.02277  0.63505  0.55693  1.0000
  S   S282      1.0  0.06670  0.43095  0.71588  1.0000
  H   H786      1.0  0.00457  0.48656  0.72546  1.0000
  H   H787      1.0  0.01582  0.54327  0.69130  1.0000
  H   H788      1.0  0.02893  0.62744  0.55420  1.0000
  C   C791      1.0  0.03889  0.56515  0.56076  1.0000
  C   C792      1.0  0.04477  0.55625  0.56867  1.0000
  C   C793      1.0  0.03911  0.54762  0.57668  1.0000
  C   C794      1.0  0.02754  0.54775  0.57674  1.0000
  C   C795      1.0  0.02174  0.55649  0.56863  1.0000
  C   C796      1.0  0.02736  0.56520  0.56071  1.0000
  H   H789      1.0  0.05371  0.55612  0.56872  1.0000
  H   H790      1.0  0.04369  0.54089  0.58282  1.0000
  H   H791      1.0  0.01282  0.55657  0.56856  1.0000
  H   H792      1.0  0.02279  0.57192  0.55456  1.0000
  C   C797      1.0  0.08922  0.44526  0.68341  1.0000
  C   C798      1.0  0.10031  0.44768  0.67783  1.0000
  C   C799      1.0  0.10225  0.45885  0.67664  1.0000
  C   C800      1.0  0.09306  0.46767  0.68086  1.0000
  C   C801      1.0  0.08191  0.46532  0.68627  1.0000
  C   C802      1.0  0.08003  0.45408  0.68767  1.0000
  H   H793      1.0  0.10743  0.44087  0.67454  1.0000
  H   H794      1.0  0.11089  0.46063  0.67247  1.0000
  H   H795      1.0  0.07473  0.47211  0.68944  1.0000
  H   H796      1.0  0.07144  0.45228  0.69199  1.0000
  C   C803      1.0  0.00500  0.42330  0.66744  1.0000
  H   H797      1.0  0.01860  0.44438  0.58498  1.0000
  C   C804      1.0  0.03411  0.45956  0.60664  1.0000
  C   C805      1.0  0.03499  0.47084  0.59988  1.0000
  C   C806      1.0  0.03846  0.47863  0.60425  1.0000
  C   C807      1.0  0.04124  0.47509  0.61533  1.0000
  C   C808      1.0  0.03994  0.46400  0.62226  1.0000
  C   C809      1.0  0.03639  0.45627  0.61794  1.0000
  H   H798      1.0  0.03323  0.47348  0.59114  1.0000
  H   H799      1.0  0.03946  0.48719  0.59883  1.0000
  H   H800      1.0  0.04208  0.46122  0.63084  1.0000
  H   H801      1.0  0.03598  0.44759  0.62315  1.0000
  H   H802      1.0  0.09963  0.48499  0.70235  1.0000
  C   C810      1.0  0.04664  0.41140  0.65619  1.0000
  C   C811      1.0  0.03523  0.41066  0.66255  1.0000
  C   C812      1.0  0.03138  0.41275  0.67402  1.0000
  C   C813      1.0  0.03873  0.41604  0.67902  1.0000
  C   C814      1.0  0.05021  0.41664  0.67274  1.0000
  C   C815      1.0  0.05422  0.41413  0.66142  1.0000
  H   H803      1.0  0.02949  0.40818  0.65872  1.0000
  H   H804      1.0  0.10198  0.51144  0.64888  1.0000
  H   H805      1.0  0.05601  0.41902  0.67659  1.0000
  H   H806      1.0  0.06316  0.41441  0.65670  1.0000
  C   C816      1.0  0.01418  0.46962  0.70498  1.0000
  Fe  Fe147     1.0  0.05929  0.41498  0.72069  1.0000
  C   C817      1.0  0.09321  0.40680  0.70912  1.0000
  H   H807      1.0  0.01629  0.56288  0.72322  1.0000
  H   H808      1.0  0.02272  0.41175  0.67911  1.0000
  H   H809      1.0  0.01470  0.44126  0.65982  1.0000
  C   C818      1.0  0.06091  0.43862  0.60398  1.0000
  C   C819      1.0  0.02393  0.38763  0.59639  1.0000
  H   H810      1.0  0.00817  0.53229  0.69215  1.0000
  C   C820      1.0  0.07750  0.51119  0.63102  1.0000
  H   H811      1.0  0.02712  0.34293  0.50736  1.0000
  H   H812      1.0  0.09346  0.50468  0.66255  1.0000
  H   H813      1.0  0.03802  0.55478  0.60404  1.0000
  C   C821      1.0  0.08861  0.48058  0.73157  1.0000
  Fe  Fe148     1.0  0.02812  0.34987  0.54946  1.0000
  H   H814      1.0  0.02207  0.51731  0.67782  1.0000
  N   N64       1.0  0.00831  0.55185  0.73844  1.0000
  C   C822      1.0  0.09683  0.41524  0.71230  1.0000
  C   C823      1.0  0.01980  0.65246  0.52556  1.0000
  C   C824      1.0  0.00802  0.44018  0.72021  1.0000
  H   H815      1.0  0.03962  0.43422  0.58351  1.0000
  C   C825      1.0  0.08505  0.46607  0.72361  1.0000
  S   S283      1.0  0.04026  0.45563  0.72284  1.0000
  C   C826      1.0  0.01004  0.47986  0.72073  1.0000
  C   C827      1.0  0.01060  0.37821  0.58694  1.0000
  H   H816      1.0  0.10882  0.49276  0.71840  1.0000
  C   C828      1.0  0.00563  0.36184  0.49871  1.0000
  C   C829      1.0  0.01893  0.65297  0.56406  1.0000
  C   C830      1.0  0.06689  0.45008  0.61757  1.0000
  H   H817      1.0  0.05103  0.56818  0.59169  1.0000
  H   H818      1.0  0.02216  0.48908  0.74031  1.0000
  H   H819      1.0  0.05408  0.48045  0.72708  1.0000
  C   C831      1.0  0.99752  0.35495  0.52318  1.0000
  H   H820      1.0  0.01625  0.44836  0.73702  1.0000
  C   C832      1.0  0.00747  0.44680  0.73777  1.0000
  C   C833      1.0  0.09141  0.64791  0.50462  1.0000
  H   H821      1.0  0.01565  0.64527  0.53078  1.0000
  H   H822      1.0  0.00470  0.43457  0.58187  1.0000
  C   C834      1.0  0.08182  0.62859  0.50867  1.0000
  H   H823      1.0  0.00627  0.53996  0.72947  1.0000
  C   C835      1.0  0.06320  0.44981  0.59910  1.0000
  H   H824      1.0  0.07135  0.49697  0.62906  1.0000
  C   C836      1.0  0.06110  0.51509  0.73328  1.0000
  H   H825      1.0  0.09805  0.42338  0.70601  1.0000
  H   H826      1.0  0.03002  0.45593  0.70381  1.0000
  C   C837      1.0  0.01937  0.57407  0.58753  1.0000
  N   N65       1.0  0.06461  0.43910  0.62228  1.0000
  C   C838      1.0  0.02378  0.65370  0.51340  1.0000
  S   S284      1.0  0.00189  0.37236  0.58140  1.0000
  H   H827      1.0  0.09169  0.46760  0.70489  1.0000
  S   S285      1.0  0.00561  0.62744  0.55204  1.0000
  H   H828      1.0  0.08897  0.48934  0.65737  1.0000
  H   H829      1.0  0.05811  0.43424  0.59890  1.0000
  H   H830      1.0  0.09123  0.38670  0.73459  1.0000
  C   C839      1.0  0.02289  0.37572  0.58348  1.0000
  N   N66       1.0  0.01828  0.48571  0.65390  1.0000
  C   C840      1.0  0.02953  0.48351  0.65540  1.0000
  C   C841      1.0  0.04205  0.56991  0.59069  1.0000
  C   C842      1.0  0.03153  0.48377  0.66616  1.0000
  H   H831      1.0  0.01550  0.47580  0.64338  1.0000
  C   C843      1.0  0.02195  0.48621  0.67539  1.0000
  N   N67       1.0  0.00404  0.43124  0.67397  1.0000
  H   H832      1.0  0.03699  0.48156  0.64823  1.0000
  C   C844      1.0  0.02226  0.59146  0.57186  1.0000
  H   H833      1.0  0.04042  0.48207  0.66740  1.0000
  H   H834      1.0  0.08914  0.38904  0.70400  1.0000
  H   H835      1.0  0.02334  0.48630  0.68383  1.0000
  H   H836      1.0  0.09511  0.50036  0.72639  1.0000
  C   C845      1.0  0.04237  0.52689  0.74171  1.0000
  H   H837      1.0  0.04608  0.64755  0.53961  1.0000
  N   N68       1.0  0.09409  0.48563  0.72057  1.0000
  H   H838      1.0  0.01145  0.50315  0.69468  1.0000
  C   C846      1.0  0.08261  0.63244  0.51823  1.0000
  C   C847      1.0  0.02751  0.46425  0.71817  1.0000
  H   H839      1.0  0.02731  0.37020  0.57715  1.0000
  N   N69       1.0  0.01786  0.41926  0.57834  1.0000
  H   H840      1.0  0.01631  0.58923  0.56773  1.0000
  H   H841      1.0  0.08790  0.64541  0.52349  1.0000
  S   S286      1.0  0.00464  0.51510  0.64548  1.0000
  H   H842      1.0  0.04013  0.33042  0.53499  1.0000
  C   C848      1.0  0.01394  0.43020  0.58094  1.0000
  C   C849      1.0  0.99667  0.43072  0.68489  1.0000
  C   C850      1.0  0.04527  0.33411  0.52670  1.0000
  C   C851      1.0  0.03784  0.57942  0.58219  1.0000
  C   C852      1.0  0.02948  0.41367  0.57737  1.0000
  N   N70       1.0  0.08698  0.50694  0.64715  1.0000
  H   H843      1.0  0.01501  0.37214  0.50306  1.0000
  N   N71       1.0  0.02664  0.58135  0.58066  1.0000
  C   C853      1.0  0.09860  0.41320  0.72366  1.0000
  H   H844      1.0  0.08405  0.52373  0.63546  1.0000
  N   N72       1.0  0.04011  0.48798  0.74003  1.0000
  H   H845      1.0  0.07927  0.62803  0.52717  1.0000
  C   C854      1.0  0.08307  0.51469  0.63772  1.0000
  C   C855      1.0  0.01684  0.53478  0.68891  1.0000
  H   H846      1.0  0.00724  0.39558  0.60626  1.0000
  C   C856      1.0  0.06163  0.43337  0.61566  1.0000
  H   H847      1.0  0.09531  0.65540  0.50290  1.0000
  C   C857      1.0  0.09291  0.51083  0.65391  1.0000
  H   H848      1.0  0.06920  0.43791  0.63851  1.0000
  C   C858      1.0  0.08721  0.38803  0.71371  1.0000
  H   H849      1.0  0.07789  0.62111  0.51035  1.0000
  C   C859      1.0  0.02445  0.46256  0.70856  1.0000
  C   C860      1.0  0.01631  0.48486  0.64279  1.0000
  H   H850      1.0  0.09144  0.37888  0.71751  1.0000
  H   H851      1.0  0.06771  0.42083  0.74039  1.0000
  H   H852      1.0  0.07887  0.48283  0.64604  1.0000
  C   C861      1.0  0.00106  0.34444  0.59995  1.0000
  S   S287      1.0  0.04575  0.35124  0.53734  1.0000
  C   C862      1.0  0.07587  0.49970  0.63407  1.0000
  C   C863      1.0  0.05939  0.34295  0.50532  1.0000
  C   C864      1.0  0.08004  0.49180  0.64359  1.0000
  H   H853      1.0  0.06910  0.42419  0.63567  1.0000
  S   S288      1.0  0.02539  0.34531  0.56919  1.0000
  S   S289      1.0  0.01153  0.60133  0.50965  1.0000
  C   C865      1.0  0.06627  0.45558  0.60591  1.0000
  H   H854      1.0  0.07975  0.46675  0.74202  1.0000
  H   H855      1.0  0.07425  0.51743  0.62365  1.0000
  C   C866      1.0  0.01327  0.41680  0.73174  1.0000
  H   H856      1.0  0.08795  0.51959  0.65581  1.0000
  C   C867      1.0  0.00929  0.36598  0.50649  1.0000
  H   H857      1.0  0.01431  0.41261  0.71523  1.0000
  C   C868      1.0  0.04916  0.34429  0.52545  1.0000
  C   C869      1.0  0.02950  0.38041  0.58818  1.0000
  H   H858      1.0  0.02231  0.47374  0.73207  1.0000
  C   C870      1.0  0.02019  0.47274  0.72438  1.0000
  S   S290      1.0  0.06286  0.40014  0.73602  1.0000
  C   C871      1.0  0.05630  0.34865  0.51475  1.0000
  H   H859      1.0  0.02285  0.64742  0.50906  1.0000
  H   H860      1.0  0.03900  0.37845  0.58540  1.0000
  C   C872      1.0  0.09526  0.48103  0.71108  1.0000
  C   C873      1.0  0.09076  0.47119  0.71245  1.0000
  H   H861      1.0  0.02811  0.33967  0.60558  1.0000
  H   H862      1.0  0.06755  0.46450  0.60238  1.0000
  C   C874      1.0  0.00698  0.65486  0.56419  1.0000
  H   H863      1.0  0.03968  0.48355  0.72432  1.0000
  H   H864      1.0  0.06487  0.34640  0.49706  1.0000
  N   N73       1.0  0.02067  0.53559  0.67617  1.0000
  C   C875      1.0  0.02292  0.52568  0.67186  1.0000
  C   C876      1.0  0.02162  0.54619  0.66865  1.0000
  C   C877      1.0  0.02602  0.52626  0.65973  1.0000
  C   C878      1.0  0.02486  0.54706  0.65647  1.0000
  C   C879      1.0  0.02693  0.53705  0.65200  1.0000
  C   C880      1.0  0.01081  0.34692  0.60196  1.0000
  C   C881      1.0  0.05457  0.65666  0.52287  1.0000
  H   H865      1.0  0.01956  0.55411  0.67202  1.0000
  C   C882      1.0  0.00796  0.51372  0.71897  1.0000
  H   H866      1.0  0.02549  0.55549  0.65052  1.0000
  H   H867      1.0  0.02916  0.53768  0.64256  1.0000
  C   C883      1.0  0.00704  0.47836  0.71101  1.0000
  C   C884      1.0  0.02331  0.56446  0.59607  1.0000
  C   C885      1.0  0.00757  0.54110  0.73753  1.0000
  C   C886      1.0  0.09919  0.49573  0.71898  1.0000
  N   N74       1.0  0.09147  0.39658  0.71700  1.0000
  C   C887      1.0  0.05883  0.65667  0.51086  1.0000
  H   H868      1.0  0.02961  0.59408  0.56459  1.0000
  C   C888      1.0  0.02174  0.43581  0.58267  1.0000
  C   C889      1.0  0.01122  0.44009  0.66950  1.0000
  H   H869      1.0  0.09781  0.40122  0.74061  1.0000
  S   S291      1.0  0.99709  0.52154  0.72862  1.0000
  C   C890      1.0  0.08739  0.64221  0.51617  1.0000
  H   H870      1.0  0.03478  0.60496  0.49708  1.0000
  C   C891      1.0  0.00995  0.43130  0.71414  1.0000
  C   C892      1.0  0.01134  0.42591  0.73754  1.0000
  C   C893      1.0  0.08396  0.47077  0.73325  1.0000
  S   S292      1.0  0.99762  0.34750  0.56955  1.0000
  H   H871      1.0  0.02362  0.48707  0.63526  1.0000
  H   H872      1.0  0.08153  0.45843  0.72478  1.0000
  H   H873      1.0  0.04387  0.47131  0.73578  1.0000
  H   H874      1.0  0.00811  0.49114  0.64078  1.0000
  C   C894      1.0  0.00943  0.41356  0.57672  1.0000
  H   H875      1.0  0.00187  0.45516  0.73389  1.0000
  C   C895      1.0  0.00501  0.51076  0.70999  1.0000
  H   H876      1.0  0.04656  0.41423  0.57897  1.0000
  C   C896      1.0  0.09677  0.40277  0.73165  1.0000
  H   H877      1.0  0.08771  0.48420  0.73911  1.0000
  H   H878      1.0  0.00224  0.56088  0.72266  1.0000
  H   H879      1.0  0.00244  0.41242  0.58489  1.0000
  H   H880      1.0  0.00800  0.36594  0.52462  1.0000
  H   H881      1.0  0.00534  0.41896  0.56926  1.0000
  C   C897      1.0  0.00537  0.36244  0.51870  1.0000
  H   H882      1.0  0.01058  0.57545  0.58617  1.0000
  C   C898      1.0  0.99835  0.41468  0.67172  1.0000
  H   H883      1.0  0.00256  0.44534  0.63075  1.0000
  H   H884      1.0  0.05711  0.48805  0.74179  1.0000
  Fe  Fe149     1.0  0.00269  0.35178  0.54978  1.0000
  H   H885      1.0  0.00307  0.49046  0.68091  1.0000
  H   H886      1.0  0.00391  0.54001  0.63859  1.0000
  H   H887      1.0  0.10121  0.41974  0.72632  1.0000
  C   C899      1.0  0.00502  0.38538  0.59520  1.0000
  H   H888      1.0  0.06108  0.64758  0.49710  1.0000
  C   C900      1.0  0.00109  0.53764  0.64805  1.0000
  C   C901      1.0  0.00051  0.52602  0.65363  1.0000
  C   C902      1.0  0.99791  0.54626  0.65474  1.0000
  C   C903      1.0  0.09029  0.64398  0.49526  1.0000
  N   N75       1.0  0.08531  0.63456  0.49738  1.0000
  C   C904      1.0  0.01833  0.60372  0.49459  1.0000
  N   N76       1.0  0.00085  0.33312  0.60028  1.0000
  H   H889      1.0  0.99996  0.48986  0.66173  1.0000
  C   C905      1.0  0.99831  0.35381  0.50321  1.0000
  H   H890      1.0  0.01815  0.65971  0.54043  1.0000
  H   H891      1.0  0.99893  0.40865  0.66631  1.0000
  C   C906      1.0  0.99657  0.52305  0.66586  1.0000
  C   C907      1.0  0.99737  0.44687  0.63925  1.0000
  Fe  Fe150     1.0  0.40673  0.44127  0.96651  1.0000
  S   S293      1.0  0.38812  0.44536  0.97662  1.0000
  S   S294      1.0  0.41255  0.44848  0.94723  1.0000
  C   C908      1.0  0.47971  0.64887  0.97832  1.0000
  H   H892      1.0  0.42840  0.59127  0.98684  1.0000
  C   C909      1.0  0.00743  0.55283  0.80884  1.0000
  S   S295      1.0  0.40990  0.42192  0.97445  1.0000
  N   N77       1.0  0.00900  0.47312  0.81887  1.0000
  H   H893      1.0  0.00821  0.46966  0.80283  1.0000
  H   H894      1.0  0.32467  0.53330  0.98649  1.0000
  H   H895      1.0  0.47271  0.64354  0.95521  1.0000
  C   C910      1.0  0.02621  0.42994  0.78318  1.0000
  N   N78       1.0  0.26116  0.50385  0.99257  1.0000
  C   C911      1.0  0.03647  0.42532  0.78750  1.0000
  H   H896      1.0  0.32176  0.58980  0.97483  1.0000
  C   C912      1.0  0.04785  0.43116  0.76792  1.0000
  H   H897      1.0  0.10702  0.49437  0.75807  1.0000
  H   H898      1.0  0.02410  0.52368  0.82186  1.0000
  H   H899      1.0  0.42602  0.48282  0.95660  1.0000
  H   H900      1.0  0.45646  0.41907  0.99126  1.0000
  Fe  Fe151     1.0  0.35680  0.46834  0.92317  1.0000
  S   S296      1.0  0.34593  0.48263  0.93249  1.0000
  S   S297      1.0  0.37591  0.46711  0.91461  1.0000
  Fe  Fe152     1.0  0.33656  0.45746  0.92620  1.0000
  S   S298      1.0  0.32343  0.47055  0.93600  1.0000
  S   S299      1.0  0.33304  0.44257  0.92103  1.0000
  Fe  Fe153     1.0  0.33233  0.48400  0.92263  1.0000
  S   S300      1.0  0.32087  0.50179  0.91714  1.0000
  Fe  Fe154     1.0  0.33757  0.46856  0.94544  1.0000
  S   S301      1.0  0.33231  0.47057  0.96424  1.0000
  S   S302      1.0  0.34412  0.47115  0.91175  1.0000
  S   S303      1.0  0.34990  0.45388  0.93711  1.0000
  Fe  Fe155     1.0  0.37592  0.54655  0.97855  1.0000
  H   H901      1.0  0.38298  0.50601  0.99207  1.0000
  S   S304      1.0  0.36535  0.55054  0.96471  1.0000
  C   C913      1.0  0.33964  0.50175  0.96933  1.0000
  C   C914      1.0  0.25012  0.41802  0.97910  1.0000
  H   H902      1.0  0.01661  0.48134  0.89857  1.0000
  H   H903      1.0  0.32623  0.53673  0.97076  1.0000
  C   C915      1.0  0.03118  0.50109  0.75742  1.0000
  S   S305      1.0  0.39566  0.54290  0.97337  1.0000
  C   C916      1.0  0.15306  0.45936  0.90344  1.0000
  C   C917      1.0  0.25161  0.52794  0.98813  1.0000
  H   H904      1.0  0.15505  0.44601  0.91918  1.0000
  H   H905      1.0  0.30220  0.41968  0.92872  1.0000
  H   H906      1.0  0.29767  0.49550  0.91619  1.0000
  H   H907      1.0  0.38731  0.51279  0.95437  1.0000
  S   S306      1.0  0.99725  0.45565  0.87939  1.0000
  S   S307      1.0  0.49034  0.65365  0.98188  1.0000
  H   H908      1.0  0.47908  0.33228  0.96577  1.0000
  H   H909      1.0  0.29371  0.47515  0.99168  1.0000
  Fe  Fe156     1.0  0.30002  0.53974  0.96430  1.0000
  S   S308      1.0  0.30128  0.55795  0.95424  1.0000
  S   S309      1.0  0.31225  0.52272  0.96173  1.0000
  Fe  Fe157     1.0  0.27960  0.54783  0.98349  1.0000
  S   S310      1.0  0.27895  0.56689  0.97532  1.0000
  H   H910      1.0  0.04608  0.44557  0.74753  1.0000
  Fe  Fe158     1.0  0.28142  0.56122  0.95842  1.0000
  S   S311      1.0  0.27041  0.57091  0.94511  1.0000
  Fe  Fe159     1.0  0.29878  0.56174  0.97203  1.0000
  S   S312      1.0  0.31017  0.57001  0.97769  1.0000
  S   S313      1.0  0.28057  0.54257  0.96692  1.0000
  S   S314      1.0  0.29902  0.54320  0.98174  1.0000
  N   N79       1.0  0.33995  0.58748  0.96614  1.0000
  Fe  Fe160     1.0  0.20547  0.52158  0.95947  1.0000
  S   S315      1.0  0.20577  0.51830  0.97855  1.0000
  S   S316      1.0  0.19882  0.50899  0.95376  1.0000
  Fe  Fe161     1.0  0.22139  0.53921  0.95206  1.0000
  S   S317      1.0  0.22282  0.53749  0.97044  1.0000
  S   S318      1.0  0.23139  0.55052  0.93679  1.0000
  Fe  Fe162     1.0  0.22494  0.51826  0.97210  1.0000
  S   S319      1.0  0.23987  0.50475  0.97848  1.0000
  Fe  Fe163     1.0  0.20350  0.53790  0.97500  1.0000
  S   S320      1.0  0.19232  0.54889  0.98793  1.0000
  S   S321      1.0  0.22493  0.51987  0.95330  1.0000
  S   S322      1.0  0.20171  0.54133  0.95631  1.0000
  Fe  Fe164     1.0  0.08831  0.44617  0.77243  1.0000
  S   S323      1.0  0.09936  0.42886  0.77965  1.0000
  S   S324      1.0  0.09705  0.45835  0.75702  1.0000
  Fe  Fe165     1.0  0.06612  0.44141  0.78999  1.0000
  S   S325      1.0  0.07528  0.42367  0.79849  1.0000
  S   S326      1.0  0.04705  0.44708  0.79823  1.0000
  Fe  Fe166     1.0  0.08944  0.43269  0.79738  1.0000
  S   S327      1.0  0.09774  0.42924  0.81289  1.0000
  Fe  Fe167     1.0  0.08408  0.42173  0.77996  1.0000
  S   S328      1.0  0.08615  0.40473  0.77472  1.0000
  S   S329      1.0  0.07962  0.45060  0.79017  1.0000
  S   S330      1.0  0.07372  0.43880  0.77149  1.0000
  Fe  Fe168     1.0  0.04748  0.50126  0.79971  1.0000
  S   S331      1.0  0.03659  0.51964  0.79823  1.0000
  S   S332      1.0  0.03876  0.48653  0.80997  1.0000
  Fe  Fe169     1.0  0.06946  0.50917  0.78485  1.0000
  S   S333      1.0  0.06060  0.52835  0.78257  1.0000
  S   S334      1.0  0.08853  0.50380  0.77618  1.0000
  Fe  Fe170     1.0  0.05218  0.52345  0.80175  1.0000
  S   S335      1.0  0.04783  0.53466  0.81506  1.0000
  Fe  Fe171     1.0  0.04600  0.52266  0.77926  1.0000
  H   H911      1.0  0.28707  0.53350  0.94515  1.0000
  S   S336      1.0  0.06246  0.50475  0.80439  1.0000
  S   S337      1.0  0.05526  0.50378  0.78039  1.0000
  Fe  Fe172     1.0  0.14429  0.49165  0.91578  1.0000
  S   S338      1.0  0.14723  0.47548  0.93020  1.0000
  S   S339      1.0  0.13844  0.49368  0.89880  1.0000
  Fe  Fe173     1.0  0.15366  0.50605  0.92680  1.0000
  S   S340      1.0  0.15725  0.49115  0.94191  1.0000
  S   S341      1.0  0.15755  0.52308  0.92702  1.0000
  Fe  Fe174     1.0  0.16452  0.48001  0.92851  1.0000
  S   S342      1.0  0.18147  0.46645  0.93021  1.0000
  Fe  Fe175     1.0  0.13981  0.48805  0.94251  1.0000
  S   S343      1.0  0.12693  0.48560  0.96008  1.0000
  S   S344      1.0  0.16228  0.49517  0.91315  1.0000
  S   S345      1.0  0.13551  0.50393  0.92827  1.0000
  Fe  Fe176     1.0  0.09514  0.47251  0.87400  1.0000
  S   S346      1.0  0.07538  0.47857  0.87849  1.0000
  S   S347      1.0  0.10380  0.46787  0.88966  1.0000
  Fe  Fe177     1.0  0.09525  0.47387  0.84841  1.0000
  S   S348      1.0  0.07573  0.48040  0.85091  1.0000
  S   S349      1.0  0.10424  0.47118  0.83007  1.0000
  Fe  Fe178     1.0  0.07791  0.49178  0.86146  1.0000
  S   S350      1.0  0.06747  0.51030  0.86125  1.0000
  Fe  Fe179     1.0  0.07503  0.46663  0.86750  1.0000
  S   S351      1.0  0.06206  0.45541  0.87080  1.0000
  S   S352      1.0  0.09765  0.48666  0.85756  1.0000
  S   S353      1.0  0.09452  0.45918  0.86443  1.0000
  Fe  Fe180     1.0  0.26326  0.48607  0.92702  1.0000
  S   S354      1.0  0.26102  0.48234  0.91084  1.0000
  S   S355      1.0  0.26947  0.50137  0.92793  1.0000
  Fe  Fe181     1.0  0.25514  0.46451  0.94292  1.0000
  S   S356      1.0  0.25216  0.45857  0.92822  1.0000
  S   S357      1.0  0.25510  0.45517  0.96155  1.0000
  Fe  Fe182     1.0  0.26930  0.46368  0.91820  1.0000
  S   S358      1.0  0.28409  0.45238  0.90750  1.0000
  Fe  Fe183     1.0  0.24405  0.47777  0.92227  1.0000
  S   S359      1.0  0.22755  0.48674  0.91542  1.0000
  S   S360      1.0  0.27282  0.46790  0.93349  1.0000
  S   S361      1.0  0.24569  0.48321  0.93788  1.0000
  H   H912      1.0  0.01508  0.43580  0.90421  1.0000
  C   C918      1.0  0.15093  0.47401  0.98051  1.0000
  C   C919      1.0  0.27307  0.41860  0.97799  1.0000
  H   H913      1.0  0.24792  0.53732  0.98640  1.0000
  C   C920      1.0  0.25936  0.40920  0.97507  1.0000
  H   H914      1.0  0.99683  0.47712  0.90724  1.0000
  H   H915      1.0  0.20959  0.50707  0.92339  1.0000
  C   C921      1.0  0.21924  0.45426  0.98580  1.0000
  H   H916      1.0  0.02069  0.47272  0.91220  1.0000
  H   H917      1.0  0.31539  0.49722  0.99076  1.0000
  H   H918      1.0  0.05328  0.49182  0.83541  1.0000
  C   C922      1.0  0.25903  0.52263  0.97905  1.0000
  C   C923      1.0  0.30022  0.42538  0.93486  1.0000
  H   H919      1.0  0.46502  0.56871  0.98878  1.0000
  H   H920      1.0  0.01255  0.54484  0.76618  1.0000
  C   C924      1.0  0.24089  0.45626  0.97033  1.0000
  C   C925      1.0  0.40840  0.48534  0.98779  1.0000
  H   H921      1.0  0.39620  0.46912  0.95922  1.0000
  C   C926      1.0  0.22097  0.45378  0.97401  1.0000
  C   C927      1.0  0.23181  0.45484  0.96623  1.0000
  N   N80       1.0  0.15387  0.50436  0.97499  1.0000
  H   H922      1.0  0.21413  0.45208  0.97102  1.0000
  H   H923      1.0  0.23333  0.45397  0.95724  1.0000
  C   C928      1.0  0.13350  0.48135  0.97230  1.0000
  C   C929      1.0  0.14559  0.47660  0.97096  1.0000
  C   C930      1.0  0.06919  0.44027  0.83010  1.0000
  H   H924      1.0  0.15084  0.47474  0.96260  1.0000
  C   C931      1.0  0.35860  0.41166  0.99009  1.0000
  C   C932      1.0  0.19417  0.47220  0.92661  1.0000
  C   C933      1.0  0.20436  0.46535  0.93051  1.0000
  C   C934      1.0  0.21465  0.46975  0.92734  1.0000
  C   C935      1.0  0.21481  0.48094  0.92010  1.0000
  C   C936      1.0  0.20461  0.48775  0.91626  1.0000
  C   C937      1.0  0.19431  0.48344  0.91956  1.0000
  H   H925      1.0  0.20431  0.45662  0.93592  1.0000
  H   H926      1.0  0.22250  0.46441  0.93030  1.0000
  H   H927      1.0  0.20468  0.49638  0.91059  1.0000
  H   H928      1.0  0.18658  0.48875  0.91642  1.0000
  C   C938      1.0  0.12900  0.48618  0.89643  1.0000
  C   C939      1.0  0.12686  0.48846  0.88510  1.0000
  C   C940      1.0  0.11922  0.48290  0.88283  1.0000
  C   C941      1.0  0.11377  0.47486  0.89188  1.0000
  C   C942      1.0  0.11613  0.47239  0.90315  1.0000
  C   C943      1.0  0.12364  0.47806  0.90545  1.0000
  H   H929      1.0  0.13103  0.49467  0.87804  1.0000
  H   H930      1.0  0.11754  0.48484  0.87411  1.0000
  H   H931      1.0  0.11199  0.46613  0.91019  1.0000
  H   H932      1.0  0.12524  0.47618  0.91420  1.0000
  S   S362      1.0  0.30126  0.42638  0.98220  1.0000
  C   C944      1.0  0.05400  0.52814  0.82753  1.0000
  C   C945      1.0  0.06331  0.51818  0.82764  1.0000
  C   C946      1.0  0.06750  0.51264  0.83796  1.0000
  C   C947      1.0  0.06250  0.51714  0.84816  1.0000
  C   C948      1.0  0.05339  0.52726  0.84797  1.0000
  C   C949      1.0  0.04912  0.53271  0.83770  1.0000
  H   H933      1.0  0.06749  0.51489  0.81971  1.0000
  H   H934      1.0  0.07481  0.50506  0.83791  1.0000
  H   H935      1.0  0.04955  0.53083  0.85581  1.0000
  H   H936      1.0  0.04198  0.54044  0.83768  1.0000
  C   C950      1.0  0.07899  0.40425  0.76414  1.0000
  C   C951      1.0  0.07557  0.41418  0.75558  1.0000
  C   C952      1.0  0.48000  0.64904  0.96663  1.0000
  C   C953      1.0  0.46309  0.63959  0.98492  1.0000
  H   H937      1.0  0.40499  0.42495  0.94919  1.0000
  C   C954      1.0  0.07715  0.39341  0.76407  1.0000
  H   H938      1.0  0.07731  0.42250  0.75537  1.0000
  C   C955      1.0  0.04669  0.52625  0.75154  1.0000
  H   H939      1.0  0.00205  0.55265  0.81769  1.0000
  H   H940      1.0  0.07984  0.38570  0.77060  1.0000
  C   C956      1.0  0.09414  0.47184  0.76098  1.0000
  H   H941      1.0  0.00554  0.51666  0.83063  1.0000
  C   C957      1.0  0.10055  0.48899  0.76115  1.0000
  C   C958      1.0  0.09047  0.49191  0.76981  1.0000
  C   C959      1.0  0.08220  0.48489  0.77386  1.0000
  C   C960      1.0  0.08385  0.47511  0.76917  1.0000
  H   H942      1.0  0.06193  0.52033  0.75916  1.0000
  N   N81       1.0  0.30690  0.43474  0.94604  1.0000
  H   H943      1.0  0.07481  0.48662  0.78102  1.0000
  H   H944      1.0  0.07721  0.46998  0.77209  1.0000
  C   C961      1.0  0.09830  0.44100  0.81847  1.0000
  C   C962      1.0  0.10500  0.43867  0.82691  1.0000
  C   C963      1.0  0.10622  0.44788  0.83107  1.0000
  C   C964      1.0  0.10070  0.45949  0.82686  1.0000
  C   C965      1.0  0.09358  0.46180  0.81881  1.0000
  C   C966      1.0  0.09241  0.45258  0.81459  1.0000
  H   H945      1.0  0.10954  0.42973  0.83000  1.0000
  H   H946      1.0  0.11182  0.44604  0.83721  1.0000
  H   H947      1.0  0.08928  0.47077  0.81552  1.0000
  H   H948      1.0  0.08711  0.45451  0.80823  1.0000
  C   C967      1.0  0.06298  0.44546  0.82114  1.0000
  C   C968      1.0  0.01799  0.45284  0.90333  1.0000
  C   C969      1.0  0.40098  0.49646  0.98847  1.0000
  H   H949      1.0  0.07051  0.38397  0.75567  1.0000
  C   C970      1.0  0.05836  0.52052  0.75187  1.0000
  H   H950      1.0  0.07439  0.51017  0.74345  1.0000
  C   C971      1.0  0.25050  0.50377  0.96542  1.0000
  C   C972      1.0  0.25196  0.51404  0.95691  1.0000
  C   C973      1.0  0.25867  0.51336  0.94555  1.0000
  C   C974      1.0  0.26372  0.50237  0.94267  1.0000
  C   C975      1.0  0.26297  0.49210  0.95142  1.0000
  C   C976      1.0  0.25647  0.49280  0.96286  1.0000
  H   H951      1.0  0.24730  0.52252  0.95890  1.0000
  H   H952      1.0  0.25914  0.52132  0.93881  1.0000
  H   H953      1.0  0.26698  0.48357  0.94931  1.0000
  H   H954      1.0  0.25537  0.48482  0.96942  1.0000
  C   C977      1.0  0.18776  0.51371  0.94572  1.0000
  C   C978      1.0  0.18637  0.50581  0.93997  1.0000
  C   C979      1.0  0.17740  0.50894  0.93383  1.0000
  C   C980      1.0  0.16965  0.51994  0.93347  1.0000
  C   C981      1.0  0.17121  0.52804  0.93892  1.0000
  C   C982      1.0  0.18029  0.52492  0.94507  1.0000
  H   H955      1.0  0.19229  0.49725  0.94015  1.0000
  H   H956      1.0  0.17643  0.50279  0.92940  1.0000
  H   H957      1.0  0.16521  0.53658  0.93865  1.0000
  H   H958      1.0  0.18136  0.53107  0.94947  1.0000
  C   C983      1.0  0.01127  0.49841  0.78804  1.0000
  Fe  Fe184     1.0  0.99811  0.46567  0.76821  1.0000
  C   C984      1.0  0.01765  0.49884  0.80512  1.0000
  C   C985      1.0  0.02741  0.48977  0.80262  1.0000
  C   C986      1.0  0.02894  0.48474  0.79305  1.0000
  C   C987      1.0  0.02077  0.48898  0.78584  1.0000
  H   H959      1.0  0.25350  0.56549  0.98842  1.0000
  H   H960      1.0  0.01658  0.50287  0.81237  1.0000
  H   H961      1.0  0.03665  0.47790  0.79095  1.0000
  H   H962      1.0  0.02203  0.48521  0.77834  1.0000
  C   C988      1.0  0.02480  0.46362  0.77082  1.0000
  C   C989      1.0  0.01954  0.45962  0.78256  1.0000
  C   C990      1.0  0.02645  0.45457  0.79095  1.0000
  C   C991      1.0  0.03858  0.45383  0.78766  1.0000
  C   C992      1.0  0.04382  0.45821  0.77599  1.0000
  C   C993      1.0  0.03693  0.46306  0.76754  1.0000
  C   C994      1.0  0.32224  0.51294  0.98557  1.0000
  H   H963      1.0  0.02241  0.45104  0.79994  1.0000
  H   H964      1.0  0.05315  0.45793  0.77349  1.0000
  H   H965      1.0  0.04100  0.46623  0.75847  1.0000
  C   C995      1.0  0.02395  0.47619  0.87436  1.0000
  C   C996      1.0  0.02688  0.46444  0.87339  1.0000
  C   C997      1.0  0.03862  0.45810  0.87227  1.0000
  C   C998      1.0  0.04748  0.46355  0.87195  1.0000
  C   C999      1.0  0.04461  0.47539  0.87261  1.0000
  C   C1000     1.0  0.03284  0.48170  0.87384  1.0000
  H   H966      1.0  0.02012  0.46016  0.87361  1.0000
  H   H967      1.0  0.04084  0.44896  0.87166  1.0000
  H   H968      1.0  0.05142  0.47966  0.87234  1.0000
  H   H969      1.0  0.03063  0.49082  0.87453  1.0000
  C   C1001     1.0  0.26014  0.56440  0.94288  1.0000
  C   C1002     1.0  0.25520  0.56952  0.93302  1.0000
  C   C1003     1.0  0.24657  0.56504  0.93118  1.0000
  C   C1004     1.0  0.24258  0.55553  0.93931  1.0000
  C   C1005     1.0  0.24753  0.55031  0.94919  1.0000
  C   C1006     1.0  0.25637  0.55468  0.95093  1.0000
  C   C1007     1.0  0.29774  0.49891  0.90668  1.0000
  C   C1008     1.0  0.99720  0.44847  0.82669  1.0000
  H   H970      1.0  0.24453  0.54298  0.95550  1.0000
  H   H971      1.0  0.25986  0.55083  0.95871  1.0000
  S   S363      1.0  0.37960  0.41427  0.99144  1.0000
  H   H972      1.0  0.02548  0.46760  0.82401  1.0000
  C   C1009     1.0  0.36698  0.41857  0.98564  1.0000
  S   S364      1.0  0.00076  0.44963  0.84775  1.0000
  H   H973      1.0  0.14326  0.51428  0.95016  1.0000
  H   H974      1.0  0.28554  0.52526  0.98631  1.0000
  C   C1010     1.0  0.34990  0.55483  0.96901  1.0000
  C   C1011     1.0  0.34300  0.55554  0.96121  1.0000
  C   C1012     1.0  0.33072  0.55970  0.96406  1.0000
  C   C1013     1.0  0.32530  0.56334  0.97468  1.0000
  C   C1014     1.0  0.33220  0.56257  0.98253  1.0000
  C   C1015     1.0  0.34446  0.55824  0.97974  1.0000
  H   H975      1.0  0.34717  0.55300  0.95285  1.0000
  H   H976      1.0  0.32549  0.56042  0.95788  1.0000
  H   H977      1.0  0.32806  0.56542  0.99074  1.0000
  H   H978      1.0  0.34974  0.55789  0.98572  1.0000
  C   C1016     1.0  0.47846  0.39522  0.98805  1.0000
  H   H979      1.0  0.01085  0.52541  0.76484  1.0000
  H   H980      1.0  0.48658  0.65258  0.95953  1.0000
  C   C1017     1.0  0.10241  0.47890  0.75673  1.0000
  H   H981      1.0  0.03943  0.43453  0.74629  1.0000
  C   C1018     1.0  0.02820  0.49151  0.74385  1.0000
  C   C1019     1.0  0.00955  0.50311  0.79788  1.0000
  C   C1020     1.0  0.22006  0.48653  0.97965  1.0000
  H   H982      1.0  0.00567  0.49787  0.84567  1.0000
  C   C1021     1.0  0.01006  0.53283  0.75744  1.0000
  C   C1022     1.0  0.31980  0.44604  0.91641  1.0000
  C   C1023     1.0  0.31785  0.43863  0.91045  1.0000
  C   C1024     1.0  0.30694  0.44077  0.90752  1.0000
  C   C1025     1.0  0.29790  0.45022  0.91068  1.0000
  C   C1026     1.0  0.30004  0.45784  0.91625  1.0000
  C   C1027     1.0  0.31095  0.45575  0.91914  1.0000
  H   H983      1.0  0.32472  0.43114  0.90824  1.0000
  H   H984      1.0  0.30541  0.43495  0.90302  1.0000
  H   H985      1.0  0.29348  0.46561  0.91796  1.0000
  H   H986      1.0  0.31245  0.46162  0.92354  1.0000
  C   C1028     1.0  0.31803  0.50828  0.92923  1.0000
  C   C1029     1.0  0.31404  0.52046  0.92839  1.0000
  C   C1030     1.0  0.31227  0.52523  0.93830  1.0000
  C   C1031     1.0  0.31460  0.51774  0.94889  1.0000
  C   C1032     1.0  0.31852  0.50567  0.94962  1.0000
  C   C1033     1.0  0.31997  0.50098  0.93994  1.0000
  H   H987      1.0  0.31253  0.52618  0.92010  1.0000
  H   H988      1.0  0.30929  0.53463  0.93771  1.0000
  H   H989      1.0  0.32009  0.49980  0.95783  1.0000
  H   H990      1.0  0.32245  0.49160  0.94095  1.0000
  H   H991      1.0  0.48487  0.39113  0.98124  1.0000
  N   N82       1.0  0.30262  0.48920  0.90046  1.0000
  C   C1034     1.0  0.30319  0.45789  0.97153  1.0000
  C   C1035     1.0  0.31433  0.46035  0.96638  1.0000
  C   C1036     1.0  0.31807  0.46815  0.97033  1.0000
  C   C1037     1.0  0.27094  0.40952  0.97441  1.0000
  C   C1038     1.0  0.41859  0.57981  0.98493  1.0000
  H   H992      1.0  0.30065  0.45131  0.96900  1.0000
  H   H993      1.0  0.32033  0.45567  0.95986  1.0000
  Fe  Fe185     1.0  0.39456  0.55209  0.98764  1.0000
  H   H994      1.0  0.01409  0.50064  0.75567  1.0000
  S   S365      1.0  0.41455  0.44579  0.97896  1.0000
  C   C1039     1.0  0.04766  0.49078  0.74481  1.0000
  H   H995      1.0  0.42274  0.58016  0.97572  1.0000
  C   C1040     1.0  0.39443  0.43012  0.93616  1.0000
  C   C1041     1.0  0.33926  0.51320  0.96998  1.0000
  H   H996      1.0  0.36318  0.45952  0.99228  1.0000
  C   C1042     1.0  0.01022  0.55322  0.74854  1.0000
  C   C1043     1.0  0.14324  0.51170  0.95949  1.0000
  H   H997      1.0  0.04701  0.49528  0.84975  1.0000
  C   C1044     1.0  0.40364  0.47539  0.99025  1.0000
  C   C1045     1.0  0.06845  0.40227  0.74702  1.0000
  H   H998      1.0  0.24623  0.52173  0.91499  1.0000
  S   S366      1.0  0.28369  0.45725  0.98905  1.0000
  C   C1046     1.0  0.16505  0.49961  0.97880  1.0000
  C   C1047     1.0  0.02667  0.54956  0.79588  1.0000
  C   C1048     1.0  0.40186  0.45446  0.93870  1.0000
  C   C1049     1.0  0.40568  0.45808  0.92654  1.0000
  C   C1050     1.0  0.39757  0.46219  0.91928  1.0000
  C   C1051     1.0  0.38557  0.46282  0.92415  1.0000
  C   C1052     1.0  0.38165  0.45942  0.93635  1.0000
  C   C1053     1.0  0.38982  0.45521  0.94364  1.0000
  H   H999      1.0  0.41497  0.45751  0.92266  1.0000
  H   H1000     1.0  0.40063  0.46480  0.90985  1.0000
  H   H1001     1.0  0.37237  0.45985  0.94015  1.0000
  H   H1002     1.0  0.38678  0.45233  0.95298  1.0000
  C   C1054     1.0  0.26370  0.51048  0.98144  1.0000
  H   H1003     1.0  0.35860  0.58309  0.98391  1.0000
  H   H1004     1.0  0.03621  0.54691  0.79454  1.0000
  C   C1055     1.0  0.02133  0.55299  0.78630  1.0000
  H   H1005     1.0  0.02935  0.46953  0.89819  1.0000
  H   H1006     1.0  0.00211  0.51019  0.79981  1.0000
  C   C1056     1.0  0.07024  0.41321  0.74703  1.0000
  N   N83       1.0  0.16703  0.47174  0.89662  1.0000
  C   C1057     1.0  0.28304  0.52806  0.94208  1.0000
  H   H1007     1.0  0.01859  0.45592  0.82485  1.0000
  C   C1058     1.0  0.28868  0.43151  0.93841  1.0000
  C   C1059     1.0  0.13262  0.51197  0.96782  1.0000
  C   C1060     1.0  0.17127  0.48173  0.88818  1.0000
  C   C1061     1.0  0.09880  0.50297  0.89496  1.0000
  C   C1062     1.0  0.35515  0.43150  0.97198  1.0000
  H   H1008     1.0  0.08381  0.43347  0.84427  1.0000
  H   H1009     1.0  0.16032  0.47043  0.97933  1.0000
  C   C1063     1.0  0.16842  0.45610  0.91375  1.0000
  H   H1010     1.0  0.18014  0.46790  0.90660  1.0000
  H   H1011     1.0  0.17268  0.45141  0.92102  1.0000
  H   H1012     1.0  0.34761  0.46379  0.98096  1.0000
  C   C1064     1.0  0.26633  0.43614  0.98653  1.0000
  C   C1065     1.0  0.04739  0.42582  0.77981  1.0000
  H   H1013     1.0  0.27818  0.40253  0.97158  1.0000
  H   H1014     1.0  0.16382  0.48957  0.88742  1.0000
  H   H1015     1.0  0.28543  0.53032  0.93229  1.0000
  H   H1016     1.0  0.24592  0.45861  0.98508  1.0000
  H   H1017     1.0  0.17520  0.47950  0.87941  1.0000
  C   C1066     1.0  0.23676  0.56959  0.96880  1.0000
  C   C1067     1.0  0.15853  0.45309  0.91272  1.0000
  H   H1018     1.0  0.27331  0.53052  0.94501  1.0000
  H   H1019     1.0  0.38079  0.50636  0.96936  1.0000
  N   N84       1.0  0.26392  0.42700  0.98231  1.0000
  H   H1020     1.0  0.35377  0.43922  0.96500  1.0000
  C   C1068     1.0  0.41010  0.57299  0.99045  1.0000
  H   H1021     1.0  0.39062  0.41443  0.96445  1.0000
  C   C1069     1.0  0.37609  0.42443  0.94210  1.0000
  S   S367      1.0  0.49225  0.34830  0.96928  1.0000
  H   H1022     1.0  0.02771  0.50616  0.76425  1.0000
  H   H1023     1.0  0.34560  0.51790  0.96372  1.0000
  H   H1024     1.0  0.04928  0.49945  0.75746  1.0000
  H   H1025     1.0  0.29369  0.44699  0.95517  1.0000
  C   C1070     1.0  0.32231  0.50154  0.98509  1.0000
  C   C1071     1.0  0.29559  0.44074  0.94964  1.0000
  H   H1026     1.0  0.00318  0.44440  0.74723  1.0000
  N   N85       1.0  0.28738  0.51548  0.94663  1.0000
  C   C1072     1.0  0.28914  0.51166  0.95787  1.0000
  C   C1073     1.0  0.28919  0.50757  0.93980  1.0000
  C   C1074     1.0  0.29285  0.49964  0.96251  1.0000
  C   C1075     1.0  0.29278  0.49550  0.94419  1.0000
  C   C1076     1.0  0.29462  0.49153  0.95561  1.0000
  H   H1027     1.0  0.37162  0.43400  0.97323  1.0000
  H   H1028     1.0  0.28805  0.51791  0.96319  1.0000
  H   H1029     1.0  0.01015  0.46034  0.78520  1.0000
  H   H1030     1.0  0.15313  0.47359  0.88825  1.0000
  H   H1031     1.0  0.29415  0.48927  0.93875  1.0000
  H   H1032     1.0  0.29759  0.48222  0.95902  1.0000
  Fe  Fe186     1.0  0.48149  0.36397  0.97709  1.0000
  H   H1033     1.0  0.11728  0.48659  0.98455  1.0000
  H   H1034     1.0  0.22053  0.56380  0.97295  1.0000
  H   H1035     1.0  0.22398  0.54188  0.92161  1.0000
  H   H1036     1.0  0.25802  0.57704  0.92677  1.0000
  H   H1037     1.0  0.26845  0.44348  0.97905  1.0000
  H   H1038     1.0  0.28206  0.41855  0.97781  1.0000
  H   H1039     1.0  0.32550  0.60151  0.96240  1.0000
  C   C1077     1.0  0.02702  0.43517  0.77122  1.0000
  H   H1040     1.0  0.04261  0.51158  0.82734  1.0000
  H   H1041     1.0  0.00739  0.47790  0.83494  1.0000
  H   H1042     1.0  0.47809  0.41732  0.96989  1.0000
  H   H1043     1.0  0.00495  0.55948  0.78069  1.0000
  C   C1078     1.0  0.03847  0.44129  0.75129  1.0000
  H   H1044     1.0  0.41778  0.46640  0.95608  1.0000
  H   H1045     1.0  0.38301  0.48817  0.96271  1.0000
  H   H1046     1.0  0.32496  0.43058  0.94743  1.0000
  H   H1047     1.0  0.17798  0.48427  0.89103  1.0000
  H   H1048     1.0  0.31552  0.46267  0.88535  1.0000
  C   C1079     1.0  0.31922  0.47448  0.89358  1.0000
  C   C1080     1.0  0.31437  0.48401  0.89914  1.0000
  H   H1049     1.0  0.05354  0.46169  0.81200  1.0000
  H   H1050     1.0  0.33128  0.48708  0.97653  1.0000
  S   S368      1.0  0.03741  0.53164  0.76388  1.0000
  H   H1051     1.0  0.32848  0.47020  0.89282  1.0000
  C   C1081     1.0  0.34785  0.58389  0.95656  1.0000
  H   H1052     1.0  0.12436  0.51454  0.96499  1.0000
  C   C1082     1.0  0.07184  0.39244  0.75562  1.0000
  H   H1053     1.0  0.07883  0.50090  0.88168  1.0000
  C   C1083     1.0  0.43639  0.55175  0.98650  1.0000
  H   H1054     1.0  0.37211  0.41400  0.95975  1.0000
  N   N86       1.0  0.11143  0.47000  0.79475  1.0000
  C   C1084     1.0  0.11929  0.46299  0.80138  1.0000
  C   C1085     1.0  0.10786  0.46548  0.78752  1.0000
  C   C1086     1.0  0.12339  0.45101  0.80122  1.0000
  C   C1087     1.0  0.11186  0.45358  0.78704  1.0000
  C   C1088     1.0  0.11956  0.44628  0.79406  1.0000
  C   C1089     1.0  0.10680  0.48245  0.79527  1.0000
  H   H1055     1.0  0.12201  0.46653  0.80725  1.0000
  H   H1056     1.0  0.10168  0.47100  0.78229  1.0000
  H   H1057     1.0  0.12915  0.44535  0.80693  1.0000
  H   H1058     1.0  0.10878  0.45003  0.78145  1.0000
  H   H1059     1.0  0.12232  0.43692  0.79416  1.0000
  H   H1060     1.0  0.09716  0.48500  0.79565  1.0000
  H   H1061     1.0  0.10803  0.48434  0.80327  1.0000
  H   H1062     1.0  0.11117  0.48810  0.78729  1.0000
  C   C1090     1.0  0.03454  0.50852  0.83135  1.0000
  C   C1091     1.0  0.24617  0.56525  0.98510  1.0000
  C   C1092     1.0  0.02440  0.49426  0.84453  1.0000
  H   H1063     1.0  0.47446  0.40506  0.96693  1.0000
  C   C1093     1.0  0.01377  0.50087  0.84149  1.0000
  C   C1094     1.0  0.02408  0.51538  0.82818  1.0000
  C   C1095     1.0  0.01366  0.51147  0.83320  1.0000
  C   C1096     1.0  0.07693  0.44136  0.84634  1.0000
  H   H1064     1.0  0.02438  0.48608  0.85104  1.0000
  H   H1065     1.0  0.02751  0.44989  0.90118  1.0000
  N   N87       1.0  0.07062  0.44696  0.83681  1.0000
  H   H1066     1.0  0.46105  0.37817  0.99221  1.0000
  H   H1067     1.0  0.33746  0.59027  0.98339  1.0000
  H   H1068     1.0  0.02382  0.54686  0.81471  1.0000
  H   H1069     1.0  0.01087  0.56171  0.74927  1.0000
  H   H1070     1.0  0.38813  0.44106  0.91654  1.0000
  H   H1071     1.0  0.37298  0.57610  0.96674  1.0000
  C   C1097     1.0  0.29927  0.47134  0.98435  1.0000
  C   C1098     1.0  0.02025  0.47234  0.90329  1.0000
  N   N88       1.0  0.03775  0.43589  0.76382  1.0000
  C   C1099     1.0  0.39692  0.42456  0.94723  1.0000
  C   C1100     1.0  0.34674  0.42459  0.97654  1.0000
  C   C1101     1.0  0.17258  0.46551  0.90558  1.0000
  C   C1102     1.0  0.00343  0.47924  0.82758  1.0000
  H   H1072     1.0  0.34486  0.58376  0.94897  1.0000
  H   H1073     1.0  0.40073  0.43469  0.92960  1.0000
  S   S369      1.0  0.45544  0.63070  0.97084  1.0000
  C   C1103     1.0  0.00088  0.46801  0.90674  1.0000
  C   C1104     1.0  0.22775  0.56433  0.97630  1.0000
  C   C1105     1.0  0.31051  0.47372  0.97928  1.0000
  C   C1106     1.0  0.28631  0.43910  0.94600  1.0000
  H   H1074     1.0  0.31451  0.43657  0.95910  1.0000
  C   C1107     1.0  0.36520  0.42861  0.97669  1.0000
  C   C1108     1.0  0.34102  0.44839  0.99076  1.0000
  H   H1075     1.0  0.14526  0.45723  0.90260  1.0000
  H   H1076     1.0  0.45628  0.55932  0.97854  1.0000
  C   C1109     1.0  0.35985  0.57988  0.95659  1.0000
  H   H1077     1.0  0.25324  0.57390  0.96733  1.0000
  H   H1078     1.0  0.19499  0.47774  0.98286  1.0000
  C   C1110     1.0  0.02023  0.46464  0.81969  1.0000
  H   H1079     1.0  0.05608  0.47371  0.82433  1.0000
  H   H1080     1.0  0.24342  0.51344  0.92997  1.0000
  H   H1081     1.0  0.24106  0.41775  0.97989  1.0000
  H   H1082     1.0  0.39321  0.51260  0.96654  1.0000
  H   H1083     1.0  0.31829  0.42267  0.93559  1.0000
  C   C1111     1.0  0.36374  0.57958  0.96647  1.0000
  C   C1112     1.0  0.05826  0.45756  0.81904  1.0000
  H   H1084     1.0  0.24282  0.56912  0.92351  1.0000
  N   N89       1.0  0.23712  0.56038  0.99246  1.0000
  N   N90       1.0  0.20748  0.48111  0.96667  1.0000
  H   H1085     1.0  0.28782  0.51057  0.93089  1.0000
  C   C1113     1.0  0.21790  0.48445  0.96118  1.0000
  H   H1086     1.0  0.02576  0.46370  0.81084  1.0000
  C   C1114     1.0  0.22436  0.48718  0.96758  1.0000
  C   C1115     1.0  0.15385  0.50775  0.96325  1.0000
  C   C1116     1.0  0.20074  0.47820  0.95995  1.0000
  C   C1117     1.0  0.33015  0.53080  0.97813  1.0000
  H   H1087     1.0  0.22117  0.48516  0.95178  1.0000
  C   C1118     1.0  0.46389  0.63892  0.97339  1.0000
  H   H1088     1.0  0.42797  0.54936  0.99184  1.0000
  H   H1089     1.0  0.01902  0.43893  0.76795  1.0000
  H   H1090     1.0  0.19225  0.48476  0.95988  1.0000
  H   H1091     1.0  0.20553  0.47828  0.95065  1.0000
  H   H1092     1.0  0.19896  0.46929  0.96397  1.0000
  N   N91       1.0  0.39705  0.49608  0.96153  1.0000
  C   C1119     1.0  0.39244  0.48706  0.96134  1.0000
  C   C1120     1.0  0.40897  0.49467  0.95974  1.0000
  C   C1121     1.0  0.39983  0.47627  0.95940  1.0000
  C   C1122     1.0  0.41660  0.48397  0.95784  1.0000
  C   C1123     1.0  0.41198  0.47474  0.95763  1.0000
  H   H1093     1.0  0.26086  0.52781  0.97016  1.0000
  H   H1094     1.0  0.24531  0.43361  0.98593  1.0000
  C   C1124     1.0  0.38887  0.41870  0.95577  1.0000
  H   H1095     1.0  0.36603  0.57652  0.94921  1.0000
  S   S370      1.0  0.40717  0.50890  0.98455  1.0000
  H   H1096     1.0  0.37284  0.44241  0.92315  1.0000
  Fe  Fe187     1.0  0.39530  0.52649  0.98752  1.0000
  C   C1125     1.0  0.25258  0.42694  0.98264  1.0000
  H   H1097     1.0  0.28603  0.48891  0.89784  1.0000
  H   H1098     1.0  0.03599  0.42149  0.79680  1.0000
  C   C1126     1.0  0.37845  0.41851  0.95315  1.0000
  S   S371      1.0  0.01638  0.46857  0.76014  1.0000
  H   H1099     1.0  0.30321  0.50561  0.90314  1.0000
  H   H1100     1.0  0.06192  0.44016  0.81578  1.0000
  C   C1127     1.0  0.29999  0.47562  0.89076  1.0000
  H   H1101     1.0  0.28164  0.43061  0.93507  1.0000
  H   H1102     1.0  0.31340  0.47964  0.98251  1.0000
  C   C1128     1.0  0.29541  0.48507  0.89646  1.0000
  H   H1103     1.0  0.28858  0.50340  0.90580  1.0000
  H   H1104     1.0  0.04545  0.48202  0.84687  1.0000
  C   C1129     1.0  0.04330  0.49729  0.75363  1.0000
  H   H1105     1.0  0.12451  0.50849  0.98633  1.0000
  H   H1106     1.0  0.31803  0.44592  0.94473  1.0000
  C   C1130     1.0  0.04562  0.49144  0.84304  1.0000
  C   C1131     1.0  0.20512  0.52588  0.92174  1.0000
  N   N92       1.0  0.00227  0.55635  0.79938  1.0000
  H   H1107     1.0  0.08162  0.48466  0.89869  1.0000
  H   H1108     1.0  0.29419  0.47212  0.88792  1.0000
  H   H1109     1.0  0.11040  0.47636  0.75037  1.0000
  H   H1110     1.0  0.38116  0.42943  0.91750  1.0000
  H   H1111     1.0  0.02670  0.55287  0.77746  1.0000
  C   C1132     1.0  0.31196  0.47029  0.88935  1.0000
  H   H1112     1.0  0.25751  0.40199  0.97275  1.0000
  C   C1133     1.0  0.44280  0.40626  0.97543  1.0000
  H   H1113     1.0  0.10464  0.52198  0.86866  1.0000
  H   H1114     1.0  0.32003  0.48716  0.90251  1.0000
  H   H1115     1.0  0.08815  0.51536  0.86586  1.0000
  C   C1134     1.0  0.33117  0.49588  0.97703  1.0000
  C   C1135     1.0  0.01970  0.54948  0.80722  1.0000
  C   C1136     1.0  0.08603  0.50368  0.88299  1.0000
  C   C1137     1.0  0.09124  0.51194  0.87401  1.0000
  H   H1116     1.0  0.09059  0.48466  0.90799  1.0000
  H   H1117     1.0  0.07653  0.49514  0.90821  1.0000
  C   C1138     1.0  0.05967  0.46429  0.82599  1.0000
  H   H1118     1.0  0.22505  0.48848  0.98474  1.0000
  H   H1119     1.0  0.43798  0.41425  0.97070  1.0000
  C   C1139     1.0  0.08435  0.49054  0.90252  1.0000
  N   N93       1.0  0.38406  0.43011  0.93376  1.0000
  N   N94       1.0  0.08998  0.49914  0.89320  1.0000
  C   C1140     1.0  0.14349  0.50469  0.98324  1.0000
  C   C1141     1.0  0.10044  0.51567  0.87561  1.0000
  C   C1142     1.0  0.47212  0.64398  0.96417  1.0000
  S   S372      1.0  0.00923  0.48410  0.87658  1.0000
  C   C1143     1.0  0.38920  0.50751  0.96299  1.0000
  C   C1144     1.0  0.22424  0.51361  0.92374  1.0000
  C   C1145     1.0  0.01103  0.44481  0.90507  1.0000
  H   H1120     1.0  0.26889  0.50628  0.97427  1.0000
  H   H1121     1.0  0.41262  0.50177  0.96002  1.0000
  C   C1146     1.0  0.10421  0.51124  0.88617  1.0000
  H   H1122     1.0  0.10195  0.49939  0.90305  1.0000
  C   C1147     1.0  0.30927  0.42710  0.93878  1.0000
  H   H1123     1.0  0.27738  0.44393  0.94879  1.0000
  C   C1148     1.0  0.45173  0.39854  0.96918  1.0000
  C   C1149     1.0  0.20919  0.53567  0.92135  1.0000
  C   C1150     1.0  0.45851  0.38848  0.97517  1.0000
  H   H1124     1.0  0.07063  0.43872  0.85469  1.0000
  H   H1125     1.0  0.08150  0.44748  0.84771  1.0000
  H   H1126     1.0  0.34620  0.49758  0.96266  1.0000
  H   H1127     1.0  0.11146  0.51395  0.88750  1.0000
  C   C1151     1.0  0.34372  0.58744  0.97579  1.0000
  C   C1152     1.0  0.29568  0.46329  0.98056  1.0000
  H   H1128     1.0  0.36781  0.42453  0.94025  1.0000
  C   C1153     1.0  0.21268  0.51477  0.92295  1.0000
  H   H1129     1.0  0.23004  0.50494  0.92465  1.0000
  H   H1130     1.0  0.19610  0.52685  0.92120  1.0000
  H   H1131     1.0  0.45367  0.40058  0.95965  1.0000
  C   C1154     1.0  0.47113  0.64432  0.98741  1.0000
  C   C1155     1.0  0.20314  0.48058  0.97847  1.0000
  H   H1132     1.0  0.29462  0.49666  0.97127  1.0000
  C   C1156     1.0  0.24608  0.56999  0.97318  1.0000
  H   H1133     1.0  0.16205  0.50725  0.95670  1.0000
  C   C1157     1.0  0.13271  0.50858  0.97978  1.0000
  C   C1158     1.0  0.32743  0.59185  0.96588  1.0000
  C   C1159     1.0  0.35565  0.58343  0.97613  1.0000
  S   S373      1.0  0.33401  0.42837  0.97105  1.0000
  S   S374      1.0  0.47093  0.38012  0.96707  1.0000
  H   H1134     1.0  0.23664  0.57319  0.95955  1.0000
  C   C1160     1.0  0.15753  0.46864  0.89535  1.0000
  C   C1161     1.0  0.31653  0.43706  0.94950  1.0000
  H   H1135     1.0  0.05543  0.42221  0.78307  1.0000
  H   H1136     1.0  0.05633  0.43165  0.76203  1.0000
  N   N95       1.0  0.22816  0.52324  0.92339  1.0000
  H   H1137     1.0  0.07308  0.43090  0.83147  1.0000
  N   N96       1.0  0.03463  0.49808  0.83939  1.0000
  C   C1162     1.0  0.38146  0.43598  0.92217  1.0000
  C   C1163     1.0  0.22816  0.45620  0.98973  1.0000
  C   C1164     1.0  0.22085  0.53420  0.92207  1.0000
  C   C1165     1.0  0.24043  0.52182  0.92388  1.0000
  H   H1138     1.0  0.20335  0.54434  0.92054  1.0000
  S   S375      1.0  0.40704  0.56462  0.98219  1.0000
  C   C1166     1.0  0.12667  0.48305  0.98343  1.0000
  H   H1139     1.0  0.24148  0.52903  0.92724  1.0000
  C   C1167     1.0  0.06579  0.45879  0.83500  1.0000
  H   H1140     1.0  0.06683  0.46403  0.84044  1.0000
  N   N97       1.0  0.33073  0.51857  0.97815  1.0000
  C   C1168     1.0  0.02356  0.49813  0.75255  1.0000
  S   S376      1.0  0.49599  0.36523  0.98449  1.0000
  C   C1169     1.0  0.23896  0.45728  0.98198  1.0000
  H   H1141     1.0  0.33907  0.53221  0.97714  1.0000
  S   S377      1.0  0.37574  0.52951  0.99155  1.0000
  S   S378      1.0  0.00196  0.50482  0.77820  1.0000
  H   H1142     1.0  0.01767  0.42969  0.78910  1.0000
  H   H1143     1.0  0.40942  0.46683  0.98986  1.0000
  H   H1144     1.0  0.27326  0.48826  0.98781  1.0000
  Fe  Fe188     1.0  0.45228  0.61696  0.98740  1.0000
  Fe  Fe189     1.0  0.31854  0.42545  0.98596  1.0000
  H   H1145     1.0  0.32487  0.58749  0.96032  1.0000
  S   S379      1.0  0.45120  0.59836  0.98891  1.0000
  H   H1146     1.0  0.27382  0.43256  0.99099  1.0000
  H   H1147     1.0  0.23263  0.48980  0.96325  1.0000
  C   C1170     1.0  0.38879  0.49754  0.99166  1.0000
  C   C1171     1.0  0.20936  0.48327  0.98514  1.0000
  C   C1172     1.0  0.01102  0.54376  0.75820  1.0000
  C   C1173     1.0  0.34843  0.41473  0.98565  1.0000
  N   N98       1.0  0.01288  0.46426  0.90423  1.0000
  H   H1148     1.0  0.34203  0.40930  0.98909  1.0000
  H   H1149     1.0  0.29407  0.50402  0.99050  1.0000
  C   C1174     1.0  0.44064  0.40396  0.98771  1.0000
  C   C1175     1.0  0.00904  0.55657  0.78820  1.0000
  S   S380      1.0  0.37465  0.55707  0.99168  1.0000
  C   C1176     1.0  0.99878  0.44851  0.90785  1.0000
  H   H1150     1.0  0.46294  0.41704  0.97108  1.0000
  H   H1151     1.0  0.31515  0.51738  0.99165  1.0000
  H   H1152     1.0  0.45639  0.63620  0.99198  1.0000
  H   H1153     1.0  0.00751  0.52299  0.74641  1.0000
  H   H1154     1.0  0.03052  0.44836  0.74990  1.0000
  H   H1155     1.0  0.33438  0.45005  0.98572  1.0000
  C   C1177     1.0  0.47166  0.41162  0.97263  1.0000
  Fe  Fe190     1.0  0.48468  0.33766  0.98666  1.0000
  H   H1156     1.0  0.01175  0.42373  0.74674  1.0000
  H   H1157     1.0  0.44267  0.54359  0.98434  1.0000
  H   H1158     1.0  0.14351  0.50159  0.99254  1.0000
  Fe  Fe191     1.0  0.39191  0.42646  0.98585  1.0000
  Fe  Fe192     1.0  0.41611  0.42665  0.98792  1.0000
  H   H1159     1.0  0.43439  0.55790  0.97825  1.0000
  C   C1178     1.0  0.34850  0.45608  0.98805  1.0000
  C   C1179     1.0  0.45176  0.56071  0.98731  1.0000
  C   C1180     1.0  0.22808  0.55973  0.98817  1.0000
  C   C1181     1.0  0.00831  0.53146  0.74706  1.0000
  C   C1182     1.0  0.00389  0.47452  0.80970  1.0000
  Fe  Fe193     1.0  0.39602  0.44853  0.98973  1.0000
  C   C1183     1.0  0.45590  0.38586  0.98749  1.0000
  H   H1160     1.0  0.16692  0.48983  0.98078  1.0000
  H   H1161     1.0  0.41785  0.48442  0.98532  1.0000
  C   C1184     1.0  0.42181  0.58613  0.99122  1.0000
  H   H1162     1.0  0.16460  0.50252  0.98688  1.0000
  C   C1185     1.0  0.14422  0.47613  0.99150  1.0000
  H   H1163     1.0  0.17248  0.50267  0.97192  1.0000
  N   N99       1.0  0.47083  0.40571  0.98506  1.0000
  H   H1164     1.0  0.00571  0.44240  0.82570  1.0000
  C   C1186     1.0  0.06548  0.51487  0.74287  1.0000
  Fe  Fe194     1.0  0.46988  0.68305  0.03382  1.0000
  S   S381      1.0  0.45186  0.68108  0.04417  1.0000
  C   C1187     1.0  0.48820  0.68072  0.05050  1.0000
  Fe  Fe195     1.0  0.46081  0.70648  0.01865  1.0000
  S   S382      1.0  0.44197  0.70641  0.02733  1.0000
  H   H1165     1.0  0.46525  0.80569  0.03823  1.0000
  Fe  Fe196     1.0  0.44881  0.70040  0.04392  1.0000
  S   S383      1.0  0.43971  0.70806  0.05996  1.0000
  Fe  Fe197     1.0  0.44698  0.68722  0.02657  1.0000
  S   S384      1.0  0.43751  0.67857  0.01889  1.0000
  S   S385      1.0  0.46740  0.70174  0.03519  1.0000
  S   S386      1.0  0.46529  0.68798  0.01629  1.0000
  Fe  Fe198     1.0  0.46296  0.78800  0.05961  1.0000
  S   S387      1.0  0.47993  0.78212  0.04743  1.0000
  S   S388      1.0  0.46046  0.80584  0.06341  1.0000
  Fe  Fe199     1.0  0.45271  0.76825  0.05803  1.0000
  S   S389      1.0  0.46868  0.76113  0.04544  1.0000
  S   S390      1.0  0.43717  0.75981  0.06377  1.0000
  C   C1188     1.0  0.44599  0.76195  0.02621  1.0000
  C   C1189     1.0  0.43269  0.95052  0.22251  1.0000
  Fe  Fe200     1.0  0.46872  0.78005  0.03671  1.0000
  Fe  Fe201     1.0  0.47009  0.94772  0.18779  1.0000
  S   S391      1.0  0.46236  0.76979  0.07076  1.0000
  S   S392      1.0  0.45167  0.78702  0.04823  1.0000
  C   C1190     1.0  0.42799  0.96027  0.20323  1.0000
  H   H1166     1.0  0.42722  0.95814  0.22593  1.0000
  H   H1167     1.0  0.49207  0.85528  0.01074  1.0000
  C   C1191     1.0  0.43557  0.96987  0.23832  1.0000
  S   S393      1.0  0.45958  0.96625  0.18349  1.0000
  C   C1192     1.0  0.45645  0.96285  0.23104  1.0000
  H   H1168     1.0  0.45645  0.68181  0.99953  1.0000
  S   S394      1.0  0.49321  0.85843  0.03289  1.0000
  Fe  Fe202     1.0  0.45924  0.96671  0.20195  1.0000
  S   S395      1.0  0.44335  0.97448  0.21443  1.0000
  S   S396      1.0  0.46545  0.93219  0.18508  1.0000
  Fe  Fe203     1.0  0.47713  0.97102  0.17906  1.0000
  C   C1193     1.0  0.44105  0.94072  0.20662  1.0000
  H   H1169     1.0  0.48621  0.83850  0.02724  1.0000
  C   C1194     1.0  0.48399  0.90496  0.16980  1.0000
  H   H1170     1.0  0.48246  0.71230  0.05613  1.0000
  C   C1195     1.0  0.45120  0.74834  0.01334  1.0000
  C   C1196     1.0  0.49018  0.81416  0.07379  1.0000
  H   H1171     1.0  0.41990  0.96531  0.20824  1.0000
  H   H1172     1.0  0.47145  0.81380  0.01082  1.0000
  C   C1197     1.0  0.44531  0.96883  0.22889  1.0000
  C   C1198     1.0  0.48541  0.92815  0.16750  1.0000
  H   H1173     1.0  0.43839  0.94198  0.23877  1.0000
  H   H1174     1.0  0.47059  0.82805  0.03957  1.0000
  C   C1199     1.0  0.48350  0.82494  0.00732  1.0000
  C   C1200     1.0  0.47224  0.80880  0.06703  1.0000
  C   C1201     1.0  0.48058  0.79973  0.07208  1.0000
  H   H1175     1.0  0.45466  0.81929  0.03974  1.0000
  S   S397      1.0  0.48775  0.95238  0.18176  1.0000
  H   H1176     1.0  0.43535  0.66272  0.00625  1.0000
  C   C1202     1.0  0.47306  0.82052  0.06512  1.0000
  C   C1203     1.0  0.47416  0.82720  0.03048  1.0000
  N   N100      1.0  0.43383  0.95014  0.21106  1.0000
  H   H1177     1.0  0.43969  0.74599  0.03065  1.0000
  H   H1178     1.0  0.46654  0.82758  0.06137  1.0000
  H   H1179     1.0  0.44137  0.76448  0.03455  1.0000
  S   S398      1.0  0.46815  0.94779  0.20669  1.0000
  H   H1180     1.0  0.49460  0.83636  0.00638  1.0000
  S   S399      1.0  0.47574  0.97315  0.19721  1.0000
  C   C1204     1.0  0.43883  0.72292  0.05953  1.0000
  C   C1205     1.0  0.42984  0.72838  0.06770  1.0000
  C   C1206     1.0  0.42932  0.73980  0.06853  1.0000
  C   C1207     1.0  0.43803  0.74578  0.06154  1.0000
  C   C1208     1.0  0.44711  0.74038  0.05329  1.0000
  C   C1209     1.0  0.44737  0.72903  0.05211  1.0000
  H   H1181     1.0  0.42322  0.72373  0.07345  1.0000
  H   H1182     1.0  0.42224  0.74392  0.07486  1.0000
  H   H1183     1.0  0.45390  0.74490  0.04786  1.0000
  H   H1184     1.0  0.45442  0.72482  0.04585  1.0000
  H   H1185     1.0  0.48268  0.83225  0.06679  1.0000
  C   C1210     1.0  0.47563  0.91203  0.17705  1.0000
  C   C1211     1.0  0.48467  0.78276  0.99665  1.0000
  C   C1212     1.0  0.48577  0.84774  0.09784  1.0000
  C   C1213     1.0  0.48214  0.82318  0.06827  1.0000
  C   C1214     1.0  0.48093  0.77881  0.00879  1.0000
  H   H1186     1.0  0.49074  0.74939  0.01053  1.0000
  C   C1215     1.0  0.47461  0.81925  0.01445  1.0000
  N   N101      1.0  0.46996  0.82056  0.02582  1.0000
  C   C1216     1.0  0.44732  0.93131  0.21374  1.0000
  C   C1217     1.0  0.49313  0.76258  0.99453  1.0000
  N   N102      1.0  0.45797  0.75534  0.00496  1.0000
  N   N103      1.0  0.48356  0.98443  0.21689  1.0000
  H   H1187     1.0  0.45325  0.92401  0.21004  1.0000
  C   C1218     1.0  0.43898  0.94138  0.22983  1.0000
  C   C1219     1.0  0.48040  0.71514  0.99672  1.0000
  H   H1188     1.0  0.47868  0.68304  0.05276  1.0000
  H   H1189     1.0  0.45576  0.81240  0.02800  1.0000
  H   H1190     1.0  0.45811  0.98406  0.23752  1.0000
  H   H1191     1.0  0.46404  0.96212  0.22381  1.0000
  S   S400      1.0  0.46605  0.72090  0.00364  1.0000
  C   C1220     1.0  0.46479  0.75156  0.99402  1.0000
  H   H1192     1.0  0.44221  0.94055  0.19745  1.0000
  C   C1221     1.0  0.48932  0.75867  0.00663  1.0000
  Fe  Fe204     1.0  0.48482  0.95418  0.20039  1.0000
  H   H1193     1.0  0.45047  0.74022  0.01179  1.0000
  C   C1222     1.0  0.47632  0.92361  0.17595  1.0000
  H   H1194     1.0  0.48751  0.99150  0.13010  1.0000
  C   C1223     1.0  0.49223  0.99026  0.17038  1.0000
  H   H1195     1.0  0.46859  0.90851  0.18351  1.0000
  Fe  Fe205     1.0  0.47839  0.76388  0.05729  1.0000
  H   H1196     1.0  0.47752  0.85271  0.09541  1.0000
  H   H1197     1.0  0.42543  0.95743  0.19652  1.0000
  S   S401      1.0  0.47253  0.78883  0.01760  1.0000
  N   N104      1.0  0.45967  0.73063  0.07745  1.0000
  C   C1224     1.0  0.45765  0.72048  0.07634  1.0000
  C   C1225     1.0  0.46990  0.73410  0.07136  1.0000
  C   C1226     1.0  0.46580  0.71374  0.06865  1.0000
  C   C1227     1.0  0.47825  0.72756  0.06361  1.0000
  C   C1228     1.0  0.47613  0.71737  0.06220  1.0000
  C   C1229     1.0  0.45110  0.73754  0.08562  1.0000
  H   H1198     1.0  0.44953  0.71770  0.08114  1.0000
  H   H1199     1.0  0.47166  0.74199  0.07243  1.0000
  H   H1200     1.0  0.47864  0.97270  0.23323  1.0000
  C   C1230     1.0  0.48342  0.76679  0.01375  1.0000
  C   C1231     1.0  0.49367  0.92111  0.16004  1.0000
  H   H1201     1.0  0.44203  0.73647  0.08670  1.0000
  H   H1202     1.0  0.45346  0.73479  0.09434  1.0000
  H   H1203     1.0  0.45080  0.74711  0.08219  1.0000
  C   C1232     1.0  0.44507  0.75156  0.02405  1.0000
  C   C1233     1.0  0.48305  0.83304  0.02358  1.0000
  S   S402      1.0  0.48608  0.66880  0.03541  1.0000
  H   H1204     1.0  0.46393  0.70592  0.06750  1.0000
  C   C1234     1.0  0.49516  0.98776  0.13395  1.0000
  H   H1205     1.0  0.45378  0.77708  0.01924  1.0000
  H   H1206     1.0  0.48426  0.70257  0.01239  1.0000
  H   H1207     1.0  0.49428  0.71464  0.01812  1.0000
  C   C1235     1.0  0.45892  0.76554  0.00701  1.0000
  C   C1236     1.0  0.45295  0.76901  0.01764  1.0000
  H   H1208     1.0  0.48702  0.82401  0.99826  1.0000
  C   C1237     1.0  0.44633  0.93170  0.22539  1.0000
  H   H1209     1.0  0.48632  0.73042  0.05876  1.0000
  H   H1210     1.0  0.43407  0.96629  0.19868  1.0000
  C   C1238     1.0  0.46095  0.81421  0.03328  1.0000
  H   H1211     1.0  0.49026  0.69158  0.06085  1.0000
  H   H1212     1.0  0.48267  0.79206  0.99274  1.0000
  H   H1213     1.0  0.48058  0.76366  0.02302  1.0000
  H   H1214     1.0  0.49560  0.79541  0.07992  1.0000
  H   H1215     1.0  0.47997  0.79068  0.07364  1.0000
  C   C1239     1.0  0.49403  0.67308  0.04282  1.0000
  S   S403      1.0  0.48274  0.98587  0.16476  1.0000
  C   C1240     1.0  0.48773  0.83188  0.01191  1.0000
  H   H1216     1.0  0.48417  0.83129  0.09552  1.0000
  H   H1217     1.0  0.48584  0.93717  0.16647  1.0000
  H   H1218     1.0  0.48337  0.89601  0.17070  1.0000
  C   C1241     1.0  0.49296  0.90949  0.16121  1.0000
  C   C1242     1.0  0.46421  0.98710  0.22950  1.0000
  C   C1243     1.0  0.47585  0.98070  0.22702  1.0000
  C   C1244     1.0  0.48950  0.83575  0.09789  1.0000
  C   C1245     1.0  0.49563  0.97750  0.21410  1.0000
  C   C1246     1.0  0.44180  0.66311  0.02096  1.0000
  H   H1219     1.0  0.46440  0.77102  0.00043  1.0000
  C   C1247     1.0  0.48746  0.70581  0.00311  1.0000
  H   H1220     1.0  0.45144  0.92466  0.23089  1.0000
  H   H1221     1.0  0.49266  0.76213  0.03738  1.0000
  C   C1248     1.0  0.48939  0.80242  0.07567  1.0000
  H   H1222     1.0  0.45127  0.70396  0.99684  1.0000
  H   H1223     1.0  0.49009  0.86278  0.10021  1.0000
  H   H1224     1.0  0.42695  0.97453  0.23671  1.0000
  H   H1225     1.0  0.49599  0.80551  0.03363  1.0000
  S   S404      1.0  0.49491  0.85268  0.06611  1.0000
  C   C1249     1.0  0.49293  0.85338  0.10057  1.0000
  S   S405      1.0  0.49445  0.75022  0.06101  1.0000
  H   H1226     1.0  0.47361  0.74613  0.99524  1.0000
  H   H1227     1.0  0.49605  0.92782  0.23155  1.0000
  C   C1250     1.0  0.49472  0.68551  0.05510  1.0000
  H   H1228     1.0  0.44878  0.66055  0.03618  1.0000
  C   C1251     1.0  0.45783  0.95796  0.24264  1.0000
  H   H1229     1.0  0.01325  0.69079  0.47886  1.0000
  S   S406      1.0  0.41389  0.96841  0.45111  1.0000
  H   H1230     1.0  0.45128  0.95097  0.41155  1.0000
  C   C1252     1.0  0.04059  0.75289  0.48334  1.0000
  C   C1253     1.0  0.00094  0.75255  0.48691  1.0000
  S   S407      1.0  0.47047  0.94841  0.28742  1.0000
  Fe  Fe206     1.0  0.39624  0.96435  0.45388  1.0000
  S   S408      1.0  0.39226  0.94645  0.46122  1.0000
  S   S409      1.0  0.24689  0.93655  0.48809  1.0000
  H   H1231     1.0  0.04099  0.72539  0.41554  1.0000
  H   H1232     1.0  0.46124  0.97194  0.41998  1.0000
  H   H1233     1.0  0.08323  0.70063  0.46983  1.0000
  H   H1234     1.0  0.05901  0.75936  0.44231  1.0000
  C   C1254     1.0  0.01841  0.66932  0.45346  1.0000
  C   C1255     1.0  0.03457  0.66535  0.42286  1.0000
  H   H1235     1.0  0.01860  0.67073  0.44419  1.0000
  S   S410      1.0  0.32328  0.90542  0.46184  1.0000
  S   S411      1.0  0.06150  0.69964  0.42539  1.0000
  C   C1256     1.0  0.26671  0.94002  0.42967  1.0000
  C   C1257     1.0  0.08835  0.81221  0.47896  1.0000
  S   S412      1.0  0.09991  0.87299  0.48865  1.0000
  C   C1258     1.0  0.34272  0.99153  0.42764  1.0000
  S   S413      1.0  0.08939  0.68059  0.43736  1.0000
  C   C1259     1.0  0.00758  0.73698  0.41764  1.0000
  S   S414      1.0  0.22873  0.92244  0.47644  1.0000
  C   C1260     1.0  0.44917  0.94574  0.42068  1.0000
  H   H1236     1.0  0.21841  0.87778  0.48271  1.0000
  Fe  Fe207     1.0  0.48259  0.97562  0.37700  1.0000
  H   H1237     1.0  0.02986  0.68594  0.39813  1.0000
  H   H1238     1.0  0.11681  0.67528  0.46203  1.0000
  H   H1239     1.0  0.00099  0.76061  0.48027  1.0000
  H   H1240     1.0  0.00661  0.72120  0.45177  1.0000
  C   C1261     1.0  0.09335  0.67712  0.45097  1.0000
  S   S415      1.0  0.28494  0.96889  0.44091  1.0000
  H   H1241     1.0  0.08126  0.81758  0.48417  1.0000
  C   C1262     1.0  0.28285  0.92783  0.43847  1.0000
  Fe  Fe208     1.0  0.05229  0.78970  0.46749  1.0000
  S   S416      1.0  0.06993  0.77804  0.46937  1.0000
  S   S417      1.0  0.03908  0.79367  0.48360  1.0000
  Fe  Fe209     1.0  0.05758  0.79188  0.44147  1.0000
  S   S418      1.0  0.07585  0.78058  0.44075  1.0000
  S   S419      1.0  0.04977  0.80094  0.42574  1.0000
  Fe  Fe210     1.0  0.06731  0.76899  0.45687  1.0000
  S   S420      1.0  0.07101  0.74925  0.46152  1.0000
  Fe  Fe211     1.0  0.07683  0.79070  0.45336  1.0000
  S   S421      1.0  0.09333  0.79658  0.45162  1.0000
  S   S422      1.0  0.04895  0.77946  0.45664  1.0000
  S   S423      1.0  0.05935  0.80316  0.45251  1.0000
  H   H1242     1.0  0.01105  0.75406  0.41499  1.0000
  H   H1243     1.0  0.33145  0.96483  0.49168  1.0000
  H   H1244     1.0  0.08289  0.70006  0.45005  1.0000
  S   S424      1.0  0.23986  0.97979  0.42337  1.0000
  H   H1245     1.0  0.11150  0.67763  0.44306  1.0000
  C   C1263     1.0  0.19613  0.94010  0.47623  1.0000
  H   H1246     1.0  0.05474  0.71811  0.45820  1.0000
  S   S425      1.0  0.03786  0.67417  0.47285  1.0000
  H   H1247     1.0  0.32462  0.96682  0.43188  1.0000
  C   C1264     1.0  0.35836  0.96007  0.45896  1.0000
  C   C1265     1.0  0.33348  0.93325  0.44321  1.0000
  Fe  Fe212     1.0  0.30562  0.93378  0.48910  1.0000
  H   H1248     1.0  0.46644  0.95334  0.24427  1.0000
  Fe  Fe213     1.0  0.25958  0.90265  0.46824  1.0000
  C   C1266     1.0  0.34663  0.95974  0.43454  1.0000
  S   S426      1.0  0.27707  0.89124  0.46198  1.0000
  Fe  Fe214     1.0  0.06977  0.85057  0.49086  1.0000
  H   H1249     1.0  0.31264  0.96655  0.47282  1.0000
  H   H1250     1.0  0.07000  0.74244  0.48731  1.0000
  Fe  Fe215     1.0  0.23913  0.91934  0.45878  1.0000
  H   H1251     1.0  0.22585  0.94555  0.47879  1.0000
  S   S427      1.0  0.24355  0.89973  0.46469  1.0000
  C   C1267     1.0  0.02257  0.80704  0.44998  1.0000
  Fe  Fe216     1.0  0.00816  0.75325  0.45937  1.0000
  C   C1268     1.0  0.43688  0.96464  0.24987  1.0000
  S   S428      1.0  0.01974  0.74279  0.47180  1.0000
  Fe  Fe217     1.0  0.00485  0.76834  0.43566  1.0000
  C   C1269     1.0  0.48604  0.92985  0.33088  1.0000
  S   S429      1.0  0.01404  0.77645  0.41779  1.0000
  H   H1252     1.0  0.24401  0.95546  0.46537  1.0000
  H   H1253     1.0  0.26154  0.94864  0.42645  1.0000
  S   S430      1.0  0.20437  0.98518  0.47520  1.0000
  S   S431      1.0  0.49253  0.96182  0.27552  1.0000
  S   S432      1.0  0.00577  0.77259  0.45217  1.0000
  S   S433      1.0  0.00928  0.74892  0.44235  1.0000
  C   C1270     1.0  0.99993  0.70104  0.46313  1.0000
  H   H1254     1.0  0.28343  0.93544  0.47449  1.0000
  C   C1271     1.0  0.08942  0.70664  0.46601  1.0000
  C   C1272     1.0  0.08960  0.72481  0.45072  1.0000
  C   C1273     1.0  0.05794  0.75042  0.44590  1.0000
  H   H1255     1.0  0.38081  0.95119  0.49185  1.0000
  S   S434      1.0  0.47208  0.97755  0.36372  1.0000
  C   C1274     1.0  0.04549  0.82264  0.48939  1.0000
  N   N105      1.0  0.02676  0.74055  0.41492  1.0000
  H   H1256     1.0  0.45399  0.93647  0.42073  1.0000
  H   H1257     1.0  0.42930  0.96531  0.25715  1.0000
  S   S435      1.0  0.17143  0.91275  0.48369  1.0000
  C   C1275     1.0  0.01909  0.78802  0.46209  1.0000
  C   C1276     1.0  0.08777  0.67484  0.47225  1.0000
  C   C1277     1.0  0.28372  0.94465  0.47145  1.0000
  C   C1278     1.0  0.01246  0.72494  0.41872  1.0000
  C   C1279     1.0  0.32714  0.95738  0.43505  1.0000
  H   H1258     1.0  0.01786  0.81645  0.44906  1.0000
  Fe  Fe218     1.0  0.04683  0.68381  0.45563  1.0000
  S   S436      1.0  0.47563  0.97077  0.39674  1.0000
  C   C1280     1.0  0.27959  0.91783  0.43792  1.0000
  C   C1281     1.0  0.25623  0.96452  0.47706  1.0000
  H   H1259     1.0  0.06632  0.75648  0.49104  1.0000
  C   C1282     1.0  0.04272  0.85176  0.48730  1.0000
  H   H1260     1.0  0.03862  0.66370  0.43022  1.0000
  C   C1283     1.0  0.02407  0.70311  0.47549  1.0000
  Fe  Fe219     1.0  0.06985  0.68630  0.43932  1.0000
  C   C1284     1.0  0.08427  0.70891  0.44722  1.0000
  H   H1261     1.0  0.35308  0.96862  0.45582  1.0000
  S   S437      1.0  0.46720  0.97368  0.26783  1.0000
  H   H1262     1.0  0.21743  0.86248  0.48760  1.0000
  N   N106      1.0  0.25477  0.96623  0.46587  1.0000
  H   H1263     1.0  0.00105  0.80217  0.48841  1.0000
  C   C1285     1.0  0.48273  0.96081  0.31125  1.0000
  C   C1286     1.0  0.47340  0.97068  0.31132  1.0000
  H   H1264     1.0  0.35496  0.95477  0.43732  1.0000
  H   H1265     1.0  0.02026  0.67138  0.39627  1.0000
  H   H1266     1.0  0.04708  0.75262  0.47512  1.0000
  C   C1287     1.0  0.44053  0.97750  0.39893  1.0000
  C   C1288     1.0  0.03483  0.67588  0.41432  1.0000
  H   H1267     1.0  0.00097  0.66212  0.48048  1.0000
  C   C1289     1.0  0.32216  0.93838  0.44128  1.0000
  C   C1290     1.0  0.03425  0.82119  0.49015  1.0000
  C   C1291     1.0  0.49148  0.98770  0.29048  1.0000
  H   H1268     1.0  0.43479  0.97910  0.39297  1.0000
  Fe  Fe220     1.0  0.22588  0.99214  0.43330  1.0000
  C   C1292     1.0  0.08486  0.67583  0.46154  1.0000
  S   S438      1.0  0.25586  0.92205  0.46081  1.0000
  H   H1269     1.0  0.07847  0.84472  0.46353  1.0000
  Fe  Fe221     1.0  0.46557  0.95523  0.26983  1.0000
  H   H1270     1.0  0.05974  0.84452  0.45944  1.0000
  H   H1271     1.0  0.00315  0.66085  0.43308  1.0000
  C   C1293     1.0  0.03639  0.74288  0.48965  1.0000
  Fe  Fe222     1.0  0.04869  0.68801  0.42960  1.0000
  S   S439      1.0  0.03621  0.69726  0.44346  1.0000
  C   C1294     1.0  0.02967  0.67788  0.40477  1.0000
  H   H1272     1.0  0.47527  0.93780  0.31323  1.0000
  C   C1295     1.0  0.31368  0.88496  0.49099  1.0000
  H   H1273     1.0  0.40315  0.94757  0.43670  1.0000
  C   C1296     1.0  0.09926  0.67481  0.47239  1.0000
  H   H1274     1.0  0.99836  0.66896  0.41967  1.0000
  S   S440      1.0  0.31426  0.93606  0.47000  1.0000
  C   C1297     1.0  0.05218  0.74548  0.44058  1.0000
  C   C1298     1.0  0.20046  0.95828  0.46357  1.0000
  H   H1275     1.0  0.08869  0.74072  0.43715  1.0000
  H   H1276     1.0  0.01021  0.81422  0.46982  1.0000
  N   N107      1.0  0.01745  0.79984  0.46111  1.0000
  H   H1277     1.0  0.07944  0.71169  0.43068  1.0000
  N   N108      1.0  0.18688  0.94626  0.48323  1.0000
  H   H1278     1.0  0.49583  0.94910  0.32045  1.0000
  H   H1279     1.0  0.33597  0.92385  0.44664  1.0000
  C   C1299     1.0  0.48043  0.92859  0.31341  1.0000
  H   H1280     1.0  0.34275  0.96690  0.43951  1.0000
  N   N109      1.0  0.08762  0.71367  0.45442  1.0000
  H   H1281     1.0  0.39590  0.97035  0.48349  1.0000
  C   C1300     1.0  0.00958  0.74240  0.48522  1.0000
  H   H1282     1.0  0.31260  0.88447  0.48257  1.0000
  C   C1301     1.0  0.00859  0.66656  0.46189  1.0000
  H   H1283     1.0  0.00684  0.71885  0.42038  1.0000
  C   C1302     1.0  0.48480  0.96202  0.33024  1.0000
  H   H1284     1.0  0.29860  0.91468  0.47204  1.0000
  C   C1303     1.0  0.08390  0.72701  0.43254  1.0000
  C   C1304     1.0  0.01437  0.78093  0.47263  1.0000
  S   S441      1.0  0.38597  0.97877  0.46331  1.0000
  H   H1285     1.0  0.36005  0.94363  0.48934  1.0000
  C   C1305     1.0  0.00627  0.79810  0.48110  1.0000
  H   H1286     1.0  0.19838  0.93058  0.47846  1.0000
  N   N110      1.0  0.00922  0.70542  0.46495  1.0000
  H   H1287     1.0  0.37181  0.98688  0.42740  1.0000
  H   H1288     1.0  0.26240  0.98578  0.41433  1.0000
  S   S442      1.0  0.23292  0.92779  0.44209  1.0000
  N   N111      1.0  0.26994  0.91894  0.43364  1.0000
  C   C1306     1.0  0.18433  0.95831  0.48067  1.0000
  H   H1289     1.0  0.45631  0.97490  0.38548  1.0000
  S   S443      1.0  0.48707  0.99335  0.36961  1.0000
  C   C1307     1.0  0.23392  0.94255  0.43726  1.0000
  C   C1308     1.0  0.23545  0.94759  0.42522  1.0000
  C   C1309     1.0  0.23738  0.95900  0.42098  1.0000
  C   C1310     1.0  0.23717  0.96563  0.42884  1.0000
  C   C1311     1.0  0.23511  0.96081  0.44096  1.0000
  C   C1312     1.0  0.23380  0.94913  0.44516  1.0000
  H   H1290     1.0  0.23547  0.94254  0.41911  1.0000
  H   H1291     1.0  0.23885  0.96277  0.41162  1.0000
  H   H1292     1.0  0.23478  0.96602  0.44704  1.0000
  H   H1293     1.0  0.23261  0.94527  0.45448  1.0000
  H   H1294     1.0  0.25658  0.90982  0.43582  1.0000
  S   S444      1.0  0.30700  0.98390  0.44635  1.0000
  H   H1295     1.0  0.26977  0.90064  0.43992  1.0000
  C   C1313     1.0  0.41684  0.95220  0.42169  1.0000
  Fe  Fe223     1.0  0.32154  0.91675  0.47426  1.0000
  H   H1296     1.0  0.47760  0.93580  0.33315  1.0000
  C   C1314     1.0  0.05125  0.73372  0.44482  1.0000
  S   S445      1.0  0.44950  0.95226  0.26654  1.0000
  S   S446      1.0  0.05660  0.85458  0.47967  1.0000
  C   C1315     1.0  0.09988  0.80983  0.48055  1.0000
  C   C1316     1.0  0.28534  0.96266  0.47523  1.0000
  C   C1317     1.0  0.20660  0.90499  0.48124  1.0000
  H   H1297     1.0  0.21444  0.90578  0.47436  1.0000
  H   H1298     1.0  0.19475  0.91294  0.46941  1.0000
  C   C1318     1.0  0.08231  0.71549  0.43622  1.0000
  H   H1299     1.0  0.01725  0.66544  0.48664  1.0000
  C   C1319     1.0  0.00772  0.78606  0.48211  1.0000
  H   H1300     1.0  0.29030  0.92687  0.44221  1.0000
  C   C1320     1.0  0.40423  0.98160  0.48781  1.0000
  C   C1321     1.0  0.18530  0.90791  0.48728  1.0000
  H   H1301     1.0  0.27872  0.94685  0.43472  1.0000
  C   C1322     1.0  0.08768  0.73168  0.43977  1.0000
  C   C1323     1.0  0.44314  0.97582  0.41843  1.0000
  C   C1324     1.0  0.06267  0.74364  0.45556  1.0000
  C   C1325     1.0  0.06129  0.73205  0.46013  1.0000
  S   S447      1.0  0.25120  0.90408  0.48693  1.0000
  Fe  Fe224     1.0  0.04972  0.70770  0.44032  1.0000
  C   C1326     1.0  0.06798  0.83238  0.44783  1.0000
  S   S448      1.0  0.10343  0.81564  0.49060  1.0000
  H   H1302     1.0  0.06471  0.72687  0.46776  1.0000
  C   C1327     1.0  0.07860  0.83937  0.45763  1.0000
  C   C1328     1.0  0.39813  0.97266  0.49044  1.0000
  C   C1329     1.0  0.04057  0.79356  0.42305  1.0000
  C   C1330     1.0  0.03447  0.79893  0.41402  1.0000
  C   C1331     1.0  0.02659  0.79347  0.41216  1.0000
  C   C1332     1.0  0.02459  0.78277  0.41951  1.0000
  C   C1333     1.0  0.03080  0.77729  0.42842  1.0000
  C   C1334     1.0  0.03893  0.78259  0.43005  1.0000
  H   H1303     1.0  0.03576  0.80737  0.40853  1.0000
  H   H1304     1.0  0.02180  0.79771  0.40525  1.0000
  H   H1305     1.0  0.02948  0.76888  0.43396  1.0000
  H   H1306     1.0  0.04398  0.77811  0.43662  1.0000
  C   C1335     1.0  0.35492  0.98716  0.42470  1.0000
  C   C1336     1.0  0.01492  0.74472  0.41562  1.0000
  H   H1307     1.0  0.08774  0.71234  0.47236  1.0000
  S   S449      1.0  0.04488  0.72746  0.43737  1.0000
  C   C1337     1.0  0.47539  0.97185  0.33040  1.0000
  H   H1308     1.0  0.05978  0.83209  0.44609  1.0000
  H   H1309     1.0  0.33304  0.88095  0.47535  1.0000
  C   C1338     1.0  0.36010  0.93934  0.46788  1.0000
  H   H1310     1.0  0.01583  0.72398  0.49232  1.0000
  H   H1311     1.0  0.06087  0.79988  0.48047  1.0000
  C   C1339     1.0  0.09531  0.80089  0.46356  1.0000
  C   C1340     1.0  0.10676  0.79864  0.46517  1.0000
  Fe  Fe225     1.0  0.23471  0.90308  0.48274  1.0000
  C   C1341     1.0  0.03633  0.76321  0.48761  1.0000
  H   H1312     1.0  0.01692  0.85138  0.48171  1.0000
  C   C1342     1.0  0.08603  0.80757  0.47058  1.0000
  H   H1313     1.0  0.11397  0.79359  0.45971  1.0000
  C   C1343     1.0  0.25427  0.97710  0.45851  1.0000
  H   H1314     1.0  0.31582  0.93294  0.44327  1.0000
  H   H1315     1.0  0.07719  0.80952  0.46922  1.0000
  C   C1344     1.0  0.42893  0.95163  0.41759  1.0000
  Fe  Fe226     1.0  0.48899  0.94429  0.27684  1.0000
  H   H1316     1.0  0.35010  0.93641  0.44293  1.0000
  C   C1345     1.0  0.32491  0.98925  0.47051  1.0000
  H   H1317     1.0  0.03202  0.80631  0.44945  1.0000
  H   H1318     1.0  0.09218  0.72866  0.45642  1.0000
  H   H1319     1.0  0.25801  0.99205  0.47668  1.0000
  C   C1346     1.0  0.28467  0.95086  0.47918  1.0000
  H   H1320     1.0  0.07605  0.67565  0.46147  1.0000
  C   C1347     1.0  0.43230  0.94150  0.43655  1.0000
  H   H1321     1.0  0.48500  0.92812  0.30414  1.0000
  C   C1348     1.0  0.46966  0.97615  0.32095  1.0000
  H   H1322     1.0  0.03183  0.75695  0.40721  1.0000
  C   C1349     1.0  0.07375  0.74892  0.48918  1.0000
  C   C1350     1.0  0.31014  0.90204  0.46196  1.0000
  C   C1351     1.0  0.29915  0.90778  0.46771  1.0000
  C   C1352     1.0  0.28883  0.90457  0.46781  1.0000
  C   C1353     1.0  0.28960  0.89549  0.46236  1.0000
  C   C1354     1.0  0.30059  0.88981  0.45668  1.0000
  C   C1355     1.0  0.31081  0.89313  0.45640  1.0000
  S   S450      1.0  0.30037  0.99358  0.42011  1.0000
  H   H1323     1.0  0.28033  0.90903  0.47218  1.0000
  H   H1324     1.0  0.30121  0.88283  0.45242  1.0000
  H   H1325     1.0  0.31927  0.88866  0.45197  1.0000
  H   H1326     1.0  0.48563  0.95665  0.30381  1.0000
  Fe  Fe227     1.0  0.40323  0.98380  0.45935  1.0000
  C   C1356     1.0  0.28511  0.96825  0.46351  1.0000
  C   C1357     1.0  0.28437  0.96201  0.45571  1.0000
  C   C1358     1.0  0.28355  0.95024  0.45970  1.0000
  H   H1327     1.0  0.02255  0.72843  0.45473  1.0000
  H   H1328     1.0  0.20587  0.96297  0.45600  1.0000
  H   H1329     1.0  0.28550  0.97741  0.46057  1.0000
  H   H1330     1.0  0.28307  0.94535  0.45370  1.0000
  H   H1331     1.0  0.28467  0.90919  0.44115  1.0000
  Fe  Fe228     1.0  0.47355  0.96645  0.28468  1.0000
  S   S451      1.0  0.42027  0.98159  0.41534  1.0000
  C   C1359     1.0  0.25755  0.97373  0.48102  1.0000
  H   H1332     1.0  0.03028  0.82497  0.48258  1.0000
  C   C1360     1.0  0.19106  0.96449  0.47079  1.0000
  H   H1333     1.0  0.03962  0.77099  0.48276  1.0000
  H   H1334     1.0  0.25307  0.97848  0.44965  1.0000
  H   H1335     1.0  0.43946  0.97616  0.42761  1.0000
  S   S452      1.0  0.48377  0.94932  0.25949  1.0000
  C   C1361     1.0  0.01520  0.69909  0.47356  1.0000
  N   N112      1.0  0.30873  0.98801  0.48734  1.0000
  C   C1362     1.0  0.37729  0.94784  0.46208  1.0000
  C   C1363     1.0  0.37217  0.93807  0.46696  1.0000
  C   C1364     1.0  0.31403  0.97416  0.47485  1.0000
  H   H1336     1.0  0.05013  0.82755  0.48138  1.0000
  H   H1337     1.0  0.28625  0.96741  0.48116  1.0000
  C   C1365     1.0  0.37035  0.95881  0.45809  1.0000
  H   H1338     1.0  0.37752  0.92956  0.47007  1.0000
  S   S453      1.0  0.46685  0.97667  0.29912  1.0000
  H   H1339     1.0  0.99857  0.70456  0.45400  1.0000
  H   H1340     1.0  0.37417  0.96641  0.45430  1.0000
  C   C1366     1.0  0.25327  0.95645  0.46197  1.0000
  H   H1341     1.0  0.34772  0.97508  0.48759  1.0000
  H   H1342     1.0  0.25667  0.95592  0.48291  1.0000
  H   H1343     1.0  0.35862  0.98167  0.41829  1.0000
  H   H1344     1.0  0.34869  0.96376  0.42499  1.0000
  H   H1345     1.0  0.01573  0.77155  0.47331  1.0000
  C   C1367     1.0  0.21432  0.98571  0.48293  1.0000
  C   C1368     1.0  0.45275  0.97519  0.39462  1.0000
  H   H1346     1.0  0.45246  0.94935  0.42632  1.0000
  C   C1369     1.0  0.05567  0.72707  0.45470  1.0000
  S   S454      1.0  0.05845  0.67376  0.44198  1.0000
  Fe  Fe229     1.0  0.38427  0.98967  0.44543  1.0000
  C   C1370     1.0  0.45544  0.97346  0.41410  1.0000
  C   C1371     1.0  0.19547  0.90900  0.47843  1.0000
  H   H1347     1.0  0.25622  0.93065  0.42568  1.0000
  C   C1372     1.0  0.26635  0.90844  0.43342  1.0000
  C   C1373     1.0  0.26370  0.92983  0.42930  1.0000
  C   C1374     1.0  0.06794  0.83928  0.45535  1.0000
  H   H1348     1.0  0.47250  0.97615  0.33777  1.0000
  C   C1375     1.0  0.48846  0.95655  0.32065  1.0000
  C   C1376     1.0  0.03405  0.74875  0.41385  1.0000
  H   H1349     1.0  0.08020  0.75197  0.48114  1.0000
  N   N113      1.0  0.33823  0.95229  0.43697  1.0000
  C   C1377     1.0  0.02774  0.67092  0.45697  1.0000
  C   C1378     1.0  0.10491  0.67669  0.45120  1.0000
  S   S455      1.0  0.04145  0.68694  0.41479  1.0000
  H   H1350     1.0  0.02897  0.69795  0.48213  1.0000
  H   H1351     1.0  0.03515  0.67329  0.45033  1.0000
  C   C1379     1.0  0.20299  0.94600  0.46625  1.0000
  H   H1352     1.0  0.20496  0.95135  0.48880  1.0000
  C   C1380     1.0  0.01769  0.66639  0.47740  1.0000
  H   H1353     1.0  0.49259  0.98473  0.28252  1.0000
  H   H1354     1.0  0.99813  0.74030  0.41863  1.0000
  S   S456      1.0  0.10303  0.67428  0.48546  1.0000
  C   C1381     1.0  0.02458  0.72078  0.41777  1.0000
  C   C1382     1.0  0.33500  0.88294  0.48293  1.0000
  C   C1383     1.0  0.32303  0.97966  0.46768  1.0000
  H   H1355     1.0  0.28286  0.98882  0.40719  1.0000
  Fe  Fe230     1.0  0.32974  0.93756  0.47549  1.0000
  S   S457      1.0  0.49222  0.95641  0.34185  1.0000
  H   H1356     1.0  0.02188  0.80408  0.44233  1.0000
  C   C1384     1.0  0.01155  0.71600  0.45839  1.0000
  C   C1385     1.0  0.44802  0.95875  0.25205  1.0000
  C   C1386     1.0  0.01140  0.80486  0.47054  1.0000
  H   H1357     1.0  0.31002  0.95468  0.43605  1.0000
  H   H1358     1.0  0.41693  0.93800  0.45008  1.0000
  H   H1359     1.0  0.03964  0.73482  0.48637  1.0000
  H   H1360     1.0  0.43216  0.95567  0.40849  1.0000
  C   C1387     1.0  0.34144  0.94040  0.44106  1.0000
  H   H1361     1.0  0.04871  0.75071  0.43299  1.0000
  C   C1388     1.0  0.03163  0.72875  0.41593  1.0000
  Fe  Fe231     1.0  0.48588  0.96717  0.25894  1.0000
  C   C1389     1.0  0.42028  0.94177  0.44090  1.0000
  H   H1362     1.0  0.26966  0.90645  0.42450  1.0000
  H   H1363     1.0  0.08115  0.67403  0.48036  1.0000
  H   H1364     1.0  0.03245  0.75116  0.42247  1.0000
  C   C1390     1.0  0.27633  0.93899  0.43434  1.0000
  H   H1365     1.0  0.02398  0.78403  0.45464  1.0000
  H   H1366     1.0  0.37087  0.95937  0.48229  1.0000
  N   N114      1.0  0.08898  0.83273  0.45258  1.0000
  C   C1391     1.0  0.08912  0.82622  0.44492  1.0000
  C   C1392     1.0  0.07863  0.82582  0.44255  1.0000
  C   C1393     1.0  0.10004  0.83291  0.45512  1.0000
  H   H1367     1.0  0.09733  0.82088  0.44096  1.0000
  H   H1368     1.0  0.07879  0.82022  0.43687  1.0000
  H   H1369     1.0  0.10327  0.84080  0.44954  1.0000
  H   H1370     1.0  0.09878  0.83303  0.46455  1.0000
  H   H1371     1.0  0.10693  0.82486  0.45358  1.0000
  H   H1372     1.0  0.09858  0.70123  0.46521  1.0000
  C   C1394     1.0  0.02723  0.66985  0.46889  1.0000
  S   S458      1.0  0.33791  0.91829  0.47819  1.0000
  C   C1395     1.0  0.02045  0.72019  0.46004  1.0000
  H   H1373     1.0  0.00230  0.69128  0.46446  1.0000
  H   H1374     1.0  0.00365  0.78077  0.49021  1.0000
  S   S459      1.0  0.05897  0.69526  0.45402  1.0000
  C   C1396     1.0  0.02329  0.85041  0.48674  1.0000
  C   C1397     1.0  0.46026  0.97326  0.40214  1.0000
  H   H1375     1.0  0.08206  0.73234  0.42419  1.0000
  H   H1376     1.0  0.03355  0.71705  0.47000  1.0000
  H   H1377     1.0  0.46244  0.98382  0.32103  1.0000
  H   H1378     1.0  0.18917  0.97404  0.46891  1.0000
  C   C1398     1.0  0.31890  0.95054  0.43728  1.0000
  H   H1379     1.0  0.21033  0.94107  0.46072  1.0000
  H   H1380     1.0  0.04360  0.74483  0.41122  1.0000
  H   H1381     1.0  0.99670  0.81670  0.44636  1.0000
  N   N115      1.0  0.48890  0.92541  0.32095  1.0000
  C   C1399     1.0  0.31763  0.99333  0.48042  1.0000
  C   C1400     1.0  0.10788  0.67542  0.46191  1.0000
  C   C1401     1.0  0.10899  0.80289  0.47376  1.0000
  C   C1402     1.0  0.02424  0.66960  0.40371  1.0000
  H   H1382     1.0  0.20328  0.88326  0.47165  1.0000
  Fe  Fe232     1.0  0.29230  0.98468  0.43818  1.0000
  H   H1383     1.0  0.11791  0.80103  0.47493  1.0000
  C   C1403     1.0  0.43568  0.97794  0.41079  1.0000
  H   H1384     1.0  0.15577  0.96235  0.48681  1.0000
  S   S460      1.0  0.08876  0.84906  0.48164  1.0000
  H   H1385     1.0  0.35616  0.93180  0.47165  1.0000
  C   C1404     1.0  0.18507  0.88376  0.47990  1.0000
  S   S461      1.0  0.33823  0.95230  0.46457  1.0000
  Fe  Fe233     1.0  0.24595  0.92327  0.47912  1.0000
  C   C1405     1.0  0.35321  0.95036  0.46388  1.0000
  C   C1406     1.0  0.03423  0.85318  0.48094  1.0000
  H   H1386     1.0  0.33807  0.89131  0.47970  1.0000
  C   C1407     1.0  0.30687  0.97854  0.48466  1.0000
  H   H1387     1.0  0.41084  0.95676  0.41588  1.0000
  C   C1408     1.0  0.37236  0.95774  0.49131  1.0000
  S   S462      1.0  0.33348  0.98789  0.42098  1.0000
  Fe  Fe234     1.0  0.40983  0.98030  0.43415  1.0000
  H   H1388     1.0  0.25901  0.97222  0.48980  1.0000
  N   N116      1.0  0.43648  0.94639  0.42503  1.0000
  Fe  Fe235     1.0  0.48932  0.96944  0.35303  1.0000
  C   C1409     1.0  0.00836  0.66471  0.47388  1.0000
  S   S463      1.0  0.39305  0.97478  0.43628  1.0000
  C   C1410     1.0  0.41252  0.94715  0.43340  1.0000
  H   H1389     1.0  0.02850  0.71142  0.41857  1.0000
  C   C1411     1.0  0.49424  0.92738  0.33785  1.0000
  H   H1390     1.0  0.03613  0.85639  0.47149  1.0000
  S   S464      1.0  0.49408  0.98660  0.34364  1.0000
  H   H1391     1.0  0.25913  0.94807  0.46542  1.0000
  H   H1392     1.0  0.43826  0.93741  0.44248  1.0000
  H   H1393     1.0  0.25554  0.95782  0.45222  1.0000
  C   C1412     1.0  0.25542  0.98658  0.46225  1.0000
  H   H1394     1.0  0.32852  0.97653  0.45991  1.0000
  C   C1413     1.0  0.02672  0.71373  0.46864  1.0000
  H   H1395     1.0  0.11358  0.89038  0.48321  1.0000
  S   S465      1.0  0.20783  0.98875  0.44164  1.0000
  H   H1396     1.0  0.47430  0.92254  0.31666  1.0000
  H   H1397     1.0  0.18192  0.88890  0.47206  1.0000
  C   C1414     1.0  0.25710  0.98484  0.47359  1.0000
  C   C1415     1.0  0.17703  0.88071  0.49036  1.0000
  C   C1416     1.0  0.21368  0.87141  0.48951  1.0000
  H   H1398     1.0  0.17725  0.96321  0.48641  1.0000
  H   H1399     1.0  0.34222  0.87573  0.48591  1.0000
  C   C1417     1.0  0.05911  0.79410  0.48903  1.0000
  C   C1418     1.0  0.19711  0.88065  0.47977  1.0000
  S   S466      1.0  0.40767  0.98983  0.47329  1.0000
  H   H1400     1.0  0.15118  0.99101  0.45883  1.0000
  N   N117      1.0  0.20101  0.87478  0.48983  1.0000
  H   H1401     1.0  0.33183  0.99360  0.46495  1.0000
  C   C1419     1.0  0.11381  0.88554  0.49213  1.0000
  C   C1420     1.0  0.36240  0.99007  0.42989  1.0000
  H   H1402     1.0  0.49218  0.93144  0.34536  1.0000
  C   C1421     1.0  0.22355  0.94548  0.48809  1.0000
  H   H1403     1.0  0.16765  0.88336  0.49062  1.0000
  S   S467      1.0  0.15053  0.98648  0.48848  1.0000
  H   H1404     1.0  0.29990  0.97424  0.49020  1.0000
  N   N118      1.0  0.32461  0.88419  0.49263  1.0000
  H   H1405     1.0  0.37311  0.96626  0.49246  1.0000
  C   C1422     1.0  0.21650  0.97673  0.49259  1.0000
  Fe  Fe236     1.0  0.39126  0.97020  0.54118  1.0000
  S   S468      1.0  0.39081  0.95891  0.55941  1.0000
  S   S469      1.0  0.39292  0.96214  0.52588  1.0000
  S   S470      1.0  0.05474  0.66828  0.52872  1.0000
  H   H1406     1.0  0.18498  0.93787  0.50126  1.0000
  H   H1407     1.0  0.01756  0.80514  0.49822  1.0000
  Fe  Fe237     1.0  0.40007  0.97134  0.56221  1.0000
  S   S471      1.0  0.41652  0.96584  0.56974  1.0000
  Fe  Fe238     1.0  0.37406  0.97201  0.56454  1.0000
  S   S472      1.0  0.35743  0.96698  0.57642  1.0000
  N   N119      1.0  0.08990  0.89683  0.51553  1.0000
  C   C1423     1.0  0.31611  0.88689  0.51243  1.0000
  S   S473      1.0  0.43725  0.98274  0.63434  1.0000
  C   C1424     1.0  0.08985  0.72699  0.51113  1.0000
  C   C1425     1.0  0.16978  0.98749  0.52426  1.0000
  Fe  Fe239     1.0  0.01494  0.68196  0.56136  1.0000
  H   H1408     1.0  0.44190  0.96853  0.65763  1.0000
  H   H1409     1.0  0.34647  0.95571  0.52756  1.0000
  H   H1410     1.0  0.46202  0.99064  0.69780  1.0000
  C   C1426     1.0  0.09426  0.78672  0.54023  1.0000
  S   S474      1.0  0.47815  0.96773  0.70431  1.0000
  Fe  Fe240     1.0  0.38452  0.99276  0.55015  1.0000
  H   H1411     1.0  0.01098  0.76268  0.51690  1.0000
  H   H1412     1.0  0.17126  0.94509  0.49676  1.0000
  H   H1413     1.0  0.04187  0.68218  0.50989  1.0000
  H   H1414     1.0  0.26282  0.98341  0.56744  1.0000
  Fe  Fe241     1.0  0.30365  0.96819  0.55283  1.0000
  S   S475      1.0  0.31651  0.95526  0.54281  1.0000
  S   S476      1.0  0.30929  0.98045  0.56000  1.0000
  Fe  Fe242     1.0  0.28225  0.96118  0.55055  1.0000
  S   S477      1.0  0.29323  0.94750  0.54035  1.0000
  S   S478      1.0  0.26237  0.96692  0.55404  1.0000
  Fe  Fe243     1.0  0.30487  0.94285  0.55319  1.0000
  S   S479      1.0  0.31460  0.92426  0.55867  1.0000
  Fe  Fe244     1.0  0.30404  0.96083  0.53075  1.0000
  S   S480      1.0  0.31158  0.96274  0.51143  1.0000
  S   S481      1.0  0.29289  0.95530  0.56453  1.0000
  S   S482      1.0  0.29213  0.97512  0.53970  1.0000
  C   C1427     1.0  0.11940  0.88307  0.51057  1.0000
  H   H1415     1.0  0.06742  0.72962  0.54291  1.0000
  H   H1416     1.0  0.42188  0.95819  0.66042  1.0000
  N   N120      1.0  0.43638  0.95225  0.63370  1.0000
  S   S483      1.0  0.48227  0.94006  0.70201  1.0000
  H   H1417     1.0  0.21180  0.96984  0.49532  1.0000
  C   C1428     1.0  0.00782  0.74747  0.55118  1.0000
  H   H1418     1.0  0.17213  0.98431  0.49738  1.0000
  C   C1429     1.0  0.02789  0.74336  0.50015  1.0000
  S   S484      1.0  0.33505  0.90525  0.51165  1.0000
  Fe  Fe245     1.0  0.21292  0.94492  0.54614  1.0000
  S   S485      1.0  0.20616  0.96254  0.53532  1.0000
  S   S486      1.0  0.23230  0.93667  0.54465  1.0000
  Fe  Fe246     1.0  0.18838  0.93980  0.55593  1.0000
  S   S487      1.0  0.17950  0.95695  0.54598  1.0000
  S   S488      1.0  0.17939  0.92528  0.56665  1.0000
  Fe  Fe247     1.0  0.19478  0.95335  0.53100  1.0000
  S   S489      1.0  0.19400  0.95414  0.51256  1.0000
  Fe  Fe248     1.0  0.19166  0.96448  0.55140  1.0000
  S   S490      1.0  0.18465  0.98119  0.55821  1.0000
  S   S491      1.0  0.20257  0.93561  0.54056  1.0000
  S   S492      1.0  0.19933  0.94750  0.56269  1.0000
  Fe  Fe249     1.0  0.04382  0.76883  0.55139  1.0000
  S   S493      1.0  0.05286  0.76294  0.56645  1.0000
  S   S494      1.0  0.02422  0.77118  0.55650  1.0000
  Fe  Fe250     1.0  0.06655  0.77077  0.53352  1.0000
  S   S495      1.0  0.07741  0.76474  0.54701  1.0000
  Fe  Fe251     1.0  0.06633  0.75137  0.55510  1.0000
  S   S496      1.0  0.07432  0.73280  0.56296  1.0000
  Fe  Fe252     1.0  0.06286  0.77697  0.55661  1.0000
  S   S497      1.0  0.06609  0.78988  0.56480  1.0000
  S   S498      1.0  0.05662  0.75628  0.54062  1.0000
  S   S499      1.0  0.05258  0.78389  0.54255  1.0000
  Fe  Fe253     1.0  0.15548  0.90365  0.52632  1.0000
  S   S500      1.0  0.15821  0.92045  0.51371  1.0000
  S   S501      1.0  0.16580  0.89454  0.54031  1.0000
  Fe  Fe254     1.0  0.13645  0.90111  0.51549  1.0000
  H   H1419     1.0  0.20615  0.90406  0.55760  1.0000
  S   S502      1.0  0.12439  0.88830  0.52015  1.0000
  H   H1420     1.0  0.22413  0.91226  0.55172  1.0000
  S   S503      1.0  0.02948  0.72015  0.54975  1.0000
  Fe  Fe255     1.0  0.13860  0.92543  0.51645  1.0000
  S   S504      1.0  0.12934  0.94315  0.52075  1.0000
  S   S505      1.0  0.15603  0.89418  0.51267  1.0000
  S   S506      1.0  0.13582  0.90922  0.53034  1.0000
  H   H1421     1.0  0.01910  0.74827  0.52276  1.0000
  S   S507      1.0  0.45833  0.97499  0.61215  1.0000
  H   H1422     1.0  0.04652  0.70690  0.56642  1.0000
  H   H1423     1.0  0.10630  0.81794  0.53497  1.0000
  S   S508      1.0  0.07259  0.83321  0.50352  1.0000
  C   C1430     1.0  0.49358  0.97604  0.61428  1.0000
  H   H1424     1.0  0.08320  0.72624  0.49675  1.0000
  H   H1425     1.0  0.04892  0.80713  0.51666  1.0000
  C   C1431     1.0  0.02113  0.82016  0.53578  1.0000
  Fe  Fe256     1.0  0.01846  0.70714  0.55260  1.0000
  Fe  Fe257     1.0  0.46711  0.95550  0.70479  1.0000
  C   C1432     1.0  0.43398  0.95168  0.64556  1.0000
  C   C1433     1.0  0.34096  0.97537  0.49560  1.0000
  C   C1434     1.0  0.34772  0.94216  0.50601  1.0000
  C   C1435     1.0  0.03347  0.81011  0.50974  1.0000
  H   H1426     1.0  0.23851  0.96094  0.52416  1.0000
  H   H1427     1.0  0.17069  0.97130  0.50888  1.0000
  C   C1436     1.0  0.08910  0.70468  0.54091  1.0000
  N   N121      1.0  0.03039  0.67094  0.51235  1.0000
  S   S509      1.0  0.07584  0.77765  0.51537  1.0000
  H   H1428     1.0  0.09521  0.73051  0.52510  1.0000
  H   H1429     1.0  0.07575  0.79315  0.49275  1.0000
  C   C1437     1.0  0.19531  0.98907  0.55664  1.0000
  H   H1430     1.0  0.45150  0.93794  0.63440  1.0000
  C   C1438     1.0  0.00921  0.73190  0.49367  1.0000
  H   H1431     1.0  0.14765  0.94522  0.49937  1.0000
  H   H1432     1.0  0.16044  0.98781  0.52760  1.0000
  H   H1433     1.0  0.10176  0.69772  0.55186  1.0000
  C   C1439     1.0  0.41567  0.96595  0.64435  1.0000
  N   N122      1.0  0.02363  0.75355  0.50421  1.0000
  H   H1434     1.0  0.04417  0.67437  0.55359  1.0000
  H   H1435     1.0  0.06782  0.79946  0.53956  1.0000
  C   C1440     1.0  0.08082  0.75101  0.50534  1.0000
  Fe  Fe258     1.0  0.32724  0.91759  0.49671  1.0000
  H   H1436     1.0  0.20864  0.90525  0.52123  1.0000
  H   H1437     1.0  0.28104  0.99101  0.55973  1.0000
  S   S510      1.0  0.06922  0.68784  0.49875  1.0000
  S   S511      1.0  0.32041  0.93721  0.49428  1.0000
  C   C1441     1.0  0.46722  0.95095  0.66495  1.0000
  H   H1438     1.0  0.00080  0.66237  0.56717  1.0000
  H   H1439     1.0  0.00756  0.74982  0.51531  1.0000
  H   H1440     1.0  0.43821  0.97114  0.67803  1.0000
  H   H1441     1.0  0.00809  0.74207  0.54500  1.0000
  H   H1442     1.0  0.07617  0.69024  0.55668  1.0000
  C   C1442     1.0  0.07933  0.71365  0.53842  1.0000
  C   C1443     1.0  0.08013  0.72253  0.55386  1.0000
  C   C1444     1.0  0.14454  0.97452  0.49752  1.0000
  C   C1445     1.0  0.00055  0.68684  0.51987  1.0000
  H   H1443     1.0  0.47529  0.94524  0.66135  1.0000
  H   H1444     1.0  0.28683  0.95181  0.51396  1.0000
  S   S512      1.0  0.02390  0.69163  0.54414  1.0000
  H   H1445     1.0  0.09452  0.79711  0.55184  1.0000
  H   H1446     1.0  0.44605  0.94164  0.62119  1.0000
  C   C1446     1.0  0.46480  0.98486  0.73110  1.0000
  H   H1447     1.0  0.03232  0.66386  0.49747  1.0000
  Fe  Fe259     1.0  0.08521  0.69111  0.52110  1.0000
  C   C1447     1.0  0.18110  0.87453  0.50053  1.0000
  C   C1448     1.0  0.04884  0.68892  0.55696  1.0000
  C   C1449     1.0  0.24228  0.99257  0.56064  1.0000
  H   H1448     1.0  0.06469  0.66284  0.54999  1.0000
  H   H1449     1.0  0.24619  0.95883  0.50956  1.0000
  H   H1450     1.0  0.39013  0.95978  0.50414  1.0000
  H   H1451     1.0  0.45390  0.95106  0.62372  1.0000
  C   C1450     1.0  0.03400  0.71787  0.52704  1.0000
  H   H1452     1.0  0.99683  0.67614  0.49839  1.0000
  C   C1451     1.0  0.06278  0.67131  0.55234  1.0000
  S   S513      1.0  0.09467  0.69280  0.53377  1.0000
  Fe  Fe260     1.0  0.06977  0.70401  0.50398  1.0000
  C   C1452     1.0  0.02777  0.76342  0.49812  1.0000
  H   H1453     1.0  0.44010  0.97159  0.59383  1.0000
  C   C1453     1.0  0.09691  0.81756  0.53685  1.0000
  H   H1454     1.0  0.03987  0.69410  0.55819  1.0000
  C   C1454     1.0  0.22467  0.97667  0.49873  1.0000
  C   C1455     1.0  0.00516  0.77760  0.54681  1.0000
  H   H1455     1.0  0.46642  0.97983  0.66181  1.0000
  C   C1456     1.0  0.13525  0.95513  0.51168  1.0000
  C   C1457     1.0  0.13089  0.96622  0.51457  1.0000
  H   H1456     1.0  0.03895  0.77856  0.50654  1.0000
  H   H1457     1.0  0.23021  0.90632  0.50845  1.0000
  C   C1458     1.0  0.04532  0.72938  0.53086  1.0000
  H   H1458     1.0  0.09587  0.79658  0.51081  1.0000
  H   H1459     1.0  0.41228  0.97255  0.62688  1.0000
  N   N123      1.0  0.22190  0.91131  0.52479  1.0000
  H   H1460     1.0  0.05319  0.77273  0.51924  1.0000
  H   H1461     1.0  0.22137  0.92117  0.50743  1.0000
  H   H1462     1.0  0.23561  0.91759  0.51087  1.0000
  Fe  Fe261     1.0  0.49301  0.95197  0.70285  1.0000
  C   C1459     1.0  0.42216  0.98130  0.59786  1.0000
  C   C1460     1.0  0.01489  0.75362  0.51536  1.0000
  H   H1463     1.0  0.33252  0.98706  0.52001  1.0000
  H   H1464     1.0  0.02517  0.73293  0.58322  1.0000
  S   S514      1.0  0.46329  0.94985  0.72450  1.0000
  C   C1461     1.0  0.23036  0.98595  0.49546  1.0000
  H   H1465     1.0  0.34320  0.93670  0.50392  1.0000
  H   H1466     1.0  0.11406  0.86869  0.52425  1.0000
  N   N124      1.0  0.17546  0.98453  0.51365  1.0000
  C   C1462     1.0  0.30493  0.88766  0.51086  1.0000
  C   C1463     1.0  0.20635  0.90394  0.53977  1.0000
  C   C1464     1.0  0.01719  0.77710  0.54473  1.0000
  S   S515      1.0  0.46142  0.95476  0.64369  1.0000
  C   C1465     1.0  0.45884  0.95672  0.65812  1.0000
  C   C1466     1.0  0.09502  0.79701  0.54278  1.0000
  C   C1467     1.0  0.01754  0.78541  0.52404  1.0000
  C   C1468     1.0  0.02338  0.78122  0.53338  1.0000
  C   C1469     1.0  0.13554  0.97590  0.50753  1.0000
  S   S516      1.0  0.08637  0.67351  0.51774  1.0000
  C   C1470     1.0  0.18790  0.98996  0.52674  1.0000
  H   H1467     1.0  0.03266  0.78098  0.53177  1.0000
  C   C1471     1.0  0.06596  0.80411  0.55603  1.0000
  C   C1472     1.0  0.06515  0.81321  0.56142  1.0000
  C   C1473     1.0  0.06540  0.82459  0.55469  1.0000
  C   C1474     1.0  0.06694  0.80648  0.54383  1.0000
  H   H1468     1.0  0.06439  0.81144  0.57083  1.0000
  H   H1469     1.0  0.06485  0.83155  0.55895  1.0000
  C   C1475     1.0  0.45323  0.99015  0.73592  1.0000
  S   S517      1.0  0.00126  0.71400  0.54719  1.0000
  C   C1476     1.0  0.02075  0.84619  0.49893  1.0000
  C   C1477     1.0  0.05070  0.81774  0.49905  1.0000
  C   C1478     1.0  0.11412  0.87334  0.51523  1.0000
  H   H1470     1.0  0.04048  0.67964  0.49650  1.0000
  C   C1479     1.0  0.03232  0.79647  0.56572  1.0000
  C   C1480     1.0  0.30369  0.88668  0.50008  1.0000
  S   S518      1.0  0.06791  0.84117  0.53438  1.0000
  H   H1471     1.0  0.20897  0.97910  0.54520  1.0000
  C   C1481     1.0  0.20871  0.94913  0.50565  1.0000
  C   C1482     1.0  0.21765  0.94644  0.51180  1.0000
  C   C1483     1.0  0.22944  0.94314  0.50622  1.0000
  H   H1472     1.0  0.08724  0.75214  0.51982  1.0000
  C   C1484     1.0  0.41822  0.96654  0.63226  1.0000
  H   H1473     1.0  0.07509  0.71357  0.53171  1.0000
  H   H1474     1.0  0.21563  0.94699  0.52083  1.0000
  H   H1475     1.0  0.23624  0.94077  0.51115  1.0000
  C   C1485     1.0  0.14894  0.96342  0.49464  1.0000
  N   N125      1.0  0.00892  0.73985  0.56271  1.0000
  C   C1486     1.0  0.17705  0.91657  0.55848  1.0000
  C   C1487     1.0  0.17623  0.92089  0.54666  1.0000
  C   C1488     1.0  0.17283  0.91420  0.54087  1.0000
  C   C1489     1.0  0.17059  0.90309  0.54682  1.0000
  C   C1490     1.0  0.17204  0.89861  0.55839  1.0000
  C   C1491     1.0  0.17509  0.90538  0.56424  1.0000
  H   H1476     1.0  0.17776  0.92954  0.54216  1.0000
  H   H1477     1.0  0.17191  0.91763  0.53187  1.0000
  H   H1478     1.0  0.17042  0.89000  0.56298  1.0000
  H   H1479     1.0  0.17573  0.90200  0.57335  1.0000
  C   C1492     1.0  0.25410  0.95815  0.55185  1.0000
  C   C1493     1.0  0.25948  0.94726  0.54877  1.0000
  C   C1494     1.0  0.25269  0.94063  0.54678  1.0000
  C   C1495     1.0  0.24050  0.94486  0.54783  1.0000
  C   C1496     1.0  0.23512  0.95576  0.55087  1.0000
  C   C1497     1.0  0.24190  0.96236  0.55291  1.0000
  H   H1480     1.0  0.26885  0.94390  0.54797  1.0000
  H   H1481     1.0  0.25691  0.93221  0.54440  1.0000
  H   H1482     1.0  0.22573  0.95911  0.55168  1.0000
  H   H1483     1.0  0.23763  0.97076  0.55529  1.0000
  C   C1498     1.0  0.32094  0.91885  0.54571  1.0000
  C   C1499     1.0  0.32043  0.92655  0.53481  1.0000
  C   C1500     1.0  0.32487  0.92238  0.52441  1.0000
  C   C1501     1.0  0.33000  0.91049  0.52475  1.0000
  C   C1502     1.0  0.33097  0.90277  0.53562  1.0000
  C   C1503     1.0  0.32640  0.90695  0.54611  1.0000
  H   H1484     1.0  0.31652  0.93575  0.53428  1.0000
  H   H1485     1.0  0.32429  0.92845  0.51615  1.0000
  H   H1486     1.0  0.33503  0.89355  0.53595  1.0000
  H   H1487     1.0  0.32689  0.90095  0.55452  1.0000
  H   H1488     1.0  0.03483  0.82874  0.53486  1.0000
  C   C1504     1.0  0.01956  0.80307  0.55161  1.0000
  C   C1505     1.0  0.03051  0.82150  0.53946  1.0000
  C   C1506     1.0  0.40445  0.97794  0.50860  1.0000
  Fe  Fe262     1.0  0.47951  0.93561  0.72172  1.0000
  C   C1507     1.0  0.45646  0.99192  0.69179  1.0000
  C   C1508     1.0  0.22083  0.91038  0.54514  1.0000
  C   C1509     1.0  0.05202  0.73018  0.51925  1.0000
  C   C1510     1.0  0.21210  0.90671  0.52793  1.0000
  C   C1511     1.0  0.09647  0.80673  0.52268  1.0000
  S   S519      1.0  0.45220  0.96268  0.69531  1.0000
  H   H1489     1.0  0.23379  0.91722  0.53074  1.0000
  H   H1490     1.0  0.09334  0.71755  0.51336  1.0000
  H   H1491     1.0  0.12381  0.96737  0.52222  1.0000
  S   S520      1.0  0.99902  0.78847  0.51411  1.0000
  S   S521      1.0  0.01142  0.69688  0.57039  1.0000
  C   C1512     1.0  0.32290  0.97017  0.50817  1.0000
  C   C1513     1.0  0.32320  0.97648  0.51608  1.0000
  S   S522      1.0  0.38323  0.98341  0.56903  1.0000
  H   H1492     1.0  0.24772  0.94690  0.52225  1.0000
  H   H1493     1.0  0.09278  0.81789  0.54623  1.0000
  H   H1494     1.0  0.31627  0.97716  0.52391  1.0000
  C   C1514     1.0  0.03555  0.68097  0.50546  1.0000
  S   S523      1.0  0.08927  0.69974  0.50203  1.0000
  C   C1515     1.0  0.04998  0.72440  0.51173  1.0000
  C   C1516     1.0  0.08641  0.74637  0.51480  1.0000
  H   H1495     1.0  0.24363  0.98383  0.56676  1.0000
  H   H1496     1.0  0.01803  0.82637  0.52831  1.0000
  H   H1497     1.0  0.06843  0.81961  0.52762  1.0000
  C   C1517     1.0  0.33239  0.98215  0.51384  1.0000
  C   C1518     1.0  0.42873  0.95967  0.62703  1.0000
  C   C1519     1.0  0.40897  0.97881  0.58717  1.0000
  C   C1520     1.0  0.02923  0.84485  0.50532  1.0000
  C   C1521     1.0  0.39787  0.96939  0.51127  1.0000
  C   C1522     1.0  0.07499  0.72274  0.54475  1.0000
  H   H1498     1.0  0.06197  0.70621  0.56395  1.0000
  S   S524      1.0  0.37391  0.98244  0.54627  1.0000
  H   H1499     1.0  0.02328  0.74603  0.56388  1.0000
  C   C1523     1.0  0.00571  0.78517  0.52601  1.0000
  C   C1524     1.0  0.19320  0.87161  0.50011  1.0000
  H   H1500     1.0  0.37590  0.98919  0.51397  1.0000
  C   C1525     1.0  0.03656  0.72288  0.53484  1.0000
  H   H1501     1.0  0.03189  0.78730  0.56619  1.0000
  C   C1526     1.0  0.34434  0.97074  0.57128  1.0000
  C   C1527     1.0  0.33362  0.97168  0.57956  1.0000
  C   C1528     1.0  0.06751  0.79032  0.49594  1.0000
  C   C1529     1.0  0.32290  0.97536  0.56427  1.0000
  C   C1530     1.0  0.33363  0.97421  0.55592  1.0000
  C   C1531     1.0  0.34436  0.97201  0.55940  1.0000
  H   H1502     1.0  0.21539  0.87149  0.49803  1.0000
  C   C1532     1.0  0.32591  0.88512  0.50317  1.0000
  H   H1503     1.0  0.02754  0.67601  0.52858  1.0000
  H   H1504     1.0  0.35261  0.97112  0.55296  1.0000
  C   C1533     1.0  0.08471  0.89486  0.50780  1.0000
  N   N126      1.0  0.02877  0.80443  0.55515  1.0000
  C   C1534     1.0  0.08962  0.88967  0.52649  1.0000
  C   C1535     1.0  0.01730  0.74016  0.56811  1.0000
  H   H1505     1.0  0.23936  0.99143  0.55320  1.0000
  Fe  Fe263     1.0  0.06713  0.67986  0.51806  1.0000
  C   C1536     1.0  0.01567  0.81084  0.54184  1.0000
  H   H1506     1.0  0.17851  0.90176  0.50579  1.0000
  N   N127      1.0  0.05773  0.69323  0.55788  1.0000
  S   S525      1.0  0.06573  0.69654  0.52340  1.0000
  C   C1537     1.0  0.41827  0.97132  0.58113  1.0000
  C   C1538     1.0  0.42944  0.96855  0.58379  1.0000
  C   C1539     1.0  0.05478  0.77885  0.51092  1.0000
  H   H1507     1.0  0.19808  0.89440  0.51067  1.0000
  H   H1508     1.0  0.44022  0.94611  0.65081  1.0000
  H   H1509     1.0  0.02698  0.71323  0.52989  1.0000
  H   H1510     1.0  0.43667  0.96273  0.57918  1.0000
  H   H1511     1.0  0.29502  0.88752  0.49866  1.0000
  H   H1512     1.0  0.13202  0.98443  0.50977  1.0000
  C   C1540     1.0  0.08409  0.73193  0.50179  1.0000
  C   C1541     1.0  0.09565  0.79661  0.51983  1.0000
  C   C1542     1.0  0.00078  0.68589  0.50857  1.0000
  H   H1513     1.0  0.09327  0.77901  0.54724  1.0000
  S   S526      1.0  0.49184  0.94597  0.72227  1.0000
  C   C1543     1.0  0.02648  0.66979  0.52425  1.0000
  H   H1514     1.0  0.04729  0.73332  0.53687  1.0000
  N   N128      1.0  0.33723  0.94045  0.56781  1.0000
  C   C1544     1.0  0.34527  0.94325  0.57194  1.0000
  C   C1545     1.0  0.34065  0.93627  0.55769  1.0000
  C   C1546     1.0  0.35706  0.94195  0.56585  1.0000
  C   C1547     1.0  0.35239  0.93478  0.55142  1.0000
  C   C1548     1.0  0.36062  0.93772  0.55550  1.0000
  C   C1549     1.0  0.32477  0.94253  0.57387  1.0000
  H   H1515     1.0  0.34259  0.94670  0.57989  1.0000
  H   H1516     1.0  0.33429  0.93403  0.55442  1.0000
  H   H1517     1.0  0.36334  0.94440  0.56907  1.0000
  H   H1518     1.0  0.35506  0.93135  0.54346  1.0000
  H   H1519     1.0  0.36974  0.93677  0.55068  1.0000
  H   H1520     1.0  0.32081  0.93523  0.57405  1.0000
  H   H1521     1.0  0.32357  0.94311  0.58314  1.0000
  H   H1522     1.0  0.31985  0.95091  0.56923  1.0000
  Fe  Fe264     1.0  0.47585  0.96053  0.72378  1.0000
  S   S527      1.0  0.48023  0.91769  0.73347  1.0000
  C   C1550     1.0  0.18628  0.90274  0.49891  1.0000
  C   C1551     1.0  0.03420  0.81354  0.54926  1.0000
  H   H1523     1.0  0.19842  0.90054  0.54222  1.0000
  S   S528      1.0  0.06013  0.72251  0.49857  1.0000
  Fe  Fe265     1.0  0.45571  0.97206  0.63179  1.0000
  C   C1552     1.0  0.44635  0.96557  0.67437  1.0000
  C   C1553     1.0  0.05513  0.70507  0.56015  1.0000
  H   H1524     1.0  0.10432  0.86248  0.51222  1.0000
  C   C1554     1.0  0.14434  0.95372  0.50173  1.0000
  S   S529      1.0  0.28695  0.94345  0.49314  1.0000
  H   H1525     1.0  0.09367  0.71320  0.56344  1.0000
  C   C1555     1.0  0.43140  0.97353  0.59211  1.0000
  H   H1526     1.0  0.43081  0.96047  0.61756  1.0000
  H   H1527     1.0  0.09213  0.82554  0.53155  1.0000
  C   C1556     1.0  0.21075  0.90582  0.54841  1.0000
  S   S530      1.0  0.99726  0.68691  0.55684  1.0000
  C   C1557     1.0  0.06739  0.81789  0.53705  1.0000
  C   C1558     1.0  0.99996  0.73158  0.50372  1.0000
  C   C1559     1.0  0.04090  0.71835  0.51560  1.0000
  C   C1560     1.0  0.06910  0.68683  0.55602  1.0000
  C   C1561     1.0  0.42360  0.95850  0.65106  1.0000
  H   H1528     1.0  0.47190  0.94845  0.68152  1.0000
  C   C1562     1.0  0.22757  0.91425  0.51229  1.0000
  H   H1529     1.0  0.05921  0.73464  0.51639  1.0000
  N   N129      1.0  0.36266  0.95338  0.50021  1.0000
  H   H1530     1.0  0.02900  0.80491  0.51759  1.0000
  H   H1531     1.0  0.40031  0.98089  0.58533  1.0000
  C   C1563     1.0  0.10858  0.86981  0.50844  1.0000
  H   H1532     1.0  0.09743  0.81447  0.51573  1.0000
  H   H1533     1.0  0.10244  0.90538  0.51699  1.0000
  C   C1564     1.0  0.05121  0.67784  0.55433  1.0000
  H   H1534     1.0  0.40769  0.97148  0.64844  1.0000
  H   H1535     1.0  0.02731  0.84174  0.51475  1.0000
  C   C1565     1.0  0.06670  0.82694  0.54249  1.0000
  H   H1536     1.0  0.33363  0.97543  0.54672  1.0000
  H   H1537     1.0  0.09962  0.90861  0.50266  1.0000
  H   H1538     1.0  0.38991  0.99354  0.52263  1.0000
  H   H1539     1.0  0.41242  0.99088  0.49490  1.0000
  C   C1566     1.0  0.08423  0.88009  0.52987  1.0000
  S   S531      1.0  0.07073  0.86113  0.50299  1.0000
  C   C1567     1.0  0.46531  0.95276  0.67638  1.0000
  C   C1568     1.0  0.16911  0.98105  0.50701  1.0000
  H   H1540     1.0  0.03941  0.71372  0.50988  1.0000
  H   H1541     1.0  0.00428  0.69207  0.50096  1.0000
  C   C1569     1.0  0.04654  0.78238  0.50386  1.0000
  H   H1542     1.0  0.22628  0.96960  0.50621  1.0000
  C   C1570     1.0  0.02120  0.66053  0.53103  1.0000
  H   H1543     1.0  0.31718  0.88805  0.52062  1.0000
  H   H1544     1.0  0.02645  0.79939  0.57373  1.0000
  H   H1545     1.0  0.04154  0.79619  0.56573  1.0000
  C   C1571     1.0  0.01841  0.73275  0.57906  1.0000
  C   C1572     1.0  0.06529  0.78274  0.50689  1.0000
  C   C1573     1.0  0.30067  0.99293  0.49724  1.0000
  Fe  Fe266     1.0  0.08853  0.68269  0.49875  1.0000
  N   N130      1.0  0.25706  0.96012  0.51987  1.0000
  C   C1574     1.0  0.26810  0.95349  0.51657  1.0000
  C   C1575     1.0  0.25559  0.97031  0.52344  1.0000
  C   C1576     1.0  0.27806  0.95708  0.51665  1.0000
  C   C1577     1.0  0.26535  0.97414  0.52366  1.0000
  C   C1578     1.0  0.27665  0.96750  0.52015  1.0000
  C   C1579     1.0  0.24687  0.95653  0.51890  1.0000
  H   H1546     1.0  0.26925  0.94539  0.51379  1.0000
  H   H1547     1.0  0.24682  0.97551  0.52617  1.0000
  H   H1548     1.0  0.20298  0.98658  0.51267  1.0000
  H   H1549     1.0  0.26412  0.98211  0.52670  1.0000
  H   H1550     1.0  0.28432  0.97033  0.52024  1.0000
  Fe  Fe267     1.0  0.46488  0.99065  0.61203  1.0000
  C   C1580     1.0  0.07923  0.88539  0.51090  1.0000
  C   C1581     1.0  0.34135  0.98146  0.50371  1.0000
  S   S532      1.0  0.00741  0.84182  0.50624  1.0000
  N   N131      1.0  0.14784  0.93673  0.54696  1.0000
  C   C1582     1.0  0.15051  0.93694  0.55714  1.0000
  C   C1583     1.0  0.14364  0.92762  0.54638  1.0000
  C   C1584     1.0  0.14934  0.92766  0.56696  1.0000
  C   C1585     1.0  0.14249  0.91812  0.55597  1.0000
  C   C1586     1.0  0.14541  0.91814  0.56630  1.0000
  C   C1587     1.0  0.14911  0.94648  0.53670  1.0000
  H   H1551     1.0  0.15397  0.94408  0.55762  1.0000
  H   H1552     1.0  0.14137  0.92755  0.53837  1.0000
  H   H1553     1.0  0.15200  0.92760  0.57481  1.0000
  H   H1554     1.0  0.13967  0.91066  0.55527  1.0000
  H   H1555     1.0  0.14493  0.91067  0.57368  1.0000
  H   H1556     1.0  0.15211  0.94318  0.52840  1.0000
  H   H1557     1.0  0.14046  0.95278  0.53652  1.0000
  H   H1558     1.0  0.15572  0.95115  0.53681  1.0000
  C   C1588     1.0  0.04861  0.79017  0.49303  1.0000
  C   C1589     1.0  0.32297  0.97417  0.57606  1.0000
  C   C1590     1.0  0.11947  0.88899  0.49889  1.0000
  Fe  Fe268     1.0  0.15726  0.91152  0.50023  1.0000
  H   H1559     1.0  0.04667  0.84664  0.50450  1.0000
  S   S533      1.0  0.00557  0.69833  0.52152  1.0000
  C   C1591     1.0  0.44747  0.94537  0.62795  1.0000
  Fe  Fe269     1.0  0.07531  0.84347  0.51491  1.0000
  C   C1592     1.0  0.09430  0.70469  0.54982  1.0000
  H   H1560     1.0  0.01514  0.79596  0.55640  1.0000
  H   H1561     1.0  0.47958  0.98604  0.71632  1.0000
  H   H1562     1.0  0.07554  0.88364  0.50455  1.0000
  C   C1593     1.0  0.44842  0.96407  0.66283  1.0000
  C   C1594     1.0  0.09454  0.78656  0.52868  1.0000
  C   C1595     1.0  0.45485  0.96005  0.68112  1.0000
  H   H1563     1.0  0.02218  0.78852  0.51522  1.0000
  H   H1564     1.0  0.08863  0.91494  0.51420  1.0000
  C   C1596     1.0  0.07182  0.67584  0.55311  1.0000
  H   H1565     1.0  0.36349  0.96220  0.51287  1.0000
  H   H1566     1.0  0.48556  0.97285  0.61698  1.0000
  S   S534      1.0  0.09483  0.84113  0.50779  1.0000
  H   H1567     1.0  0.17491  0.87221  0.50874  1.0000
  H   H1568     1.0  0.33354  0.97065  0.58875  1.0000
  H   H1569     1.0  0.00838  0.80968  0.53906  1.0000
  C   C1597     1.0  0.41092  0.98375  0.59550  1.0000
  H   H1570     1.0  0.04139  0.81474  0.55217  1.0000
  H   H1571     1.0  0.01191  0.82091  0.49495  1.0000
  C   C1598     1.0  0.09093  0.73427  0.51771  1.0000
  H   H1572     1.0  0.05471  0.71168  0.55177  1.0000
  C   C1599     1.0  0.34383  0.94560  0.51679  1.0000
  C   C1600     1.0  0.33171  0.96969  0.49785  1.0000
  C   C1601     1.0  0.08973  0.71346  0.55637  1.0000
  H   H1573     1.0  0.22280  0.99197  0.54098  1.0000
  H   H1574     1.0  0.02845  0.68910  0.50473  1.0000
  S   S535      1.0  0.47148  0.97083  0.73779  1.0000
  C   C1602     1.0  0.22626  0.91322  0.53320  1.0000
  C   C1603     1.0  0.40747  0.98415  0.49691  1.0000
  H   H1575     1.0  0.40370  0.98969  0.59997  1.0000
  N   N132      1.0  0.09597  0.80688  0.53407  1.0000
  C   C1604     1.0  0.04471  0.81136  0.50929  1.0000
  C   C1605     1.0  0.00223  0.72494  0.57898  1.0000
  S   S536      1.0  0.02429  0.66333  0.56758  1.0000
  N   N133      1.0  0.07952  0.74378  0.49913  1.0000
  H   H1576     1.0  0.09391  0.89112  0.53254  1.0000
  C   C1606     1.0  0.35920  0.95642  0.51095  1.0000
  C   C1607     1.0  0.34963  0.95271  0.51934  1.0000
  C   C1608     1.0  0.19739  0.89855  0.50168  1.0000
  C   C1609     1.0  0.47065  0.99013  0.72010  1.0000
  H   H1577     1.0  0.33615  0.94297  0.52302  1.0000
  Fe  Fe270     1.0  0.09163  0.83240  0.49520  1.0000
  C   C1610     1.0  0.07904  0.87793  0.52199  1.0000
  S   S537      1.0  0.13764  0.91794  0.50176  1.0000
  H   H1578     1.0  0.06262  0.66381  0.50500  1.0000
  C   C1611     1.0  0.01083  0.72508  0.58450  1.0000
  C   C1612     1.0  0.20647  0.98650  0.54932  1.0000
  H   H1579     1.0  0.09385  0.77868  0.52657  1.0000
  H   H1580     1.0  0.08430  0.87423  0.53844  1.0000
  Fe  Fe271     1.0  0.00604  0.69762  0.54012  1.0000
  H   H1581     1.0  0.08091  0.67099  0.55132  1.0000
  C   C1613     1.0  0.46135  0.98927  0.68067  1.0000
  H   H1582     1.0  0.33453  0.88483  0.50437  1.0000
  H   H1583     1.0  0.31473  0.97531  0.58252  1.0000
  H   H1584     1.0  0.19180  0.98137  0.50129  1.0000
  C   C1614     1.0  0.18725  0.98413  0.50950  1.0000
  S   S538      1.0  0.35243  0.98905  0.50095  1.0000
  C   C1615     1.0  0.19362  0.98697  0.51591  1.0000
  H   H1585     1.0  0.17934  0.93149  0.49268  1.0000
  C   C1616     1.0  0.26286  0.99143  0.56068  1.0000
  S   S539      1.0  0.40195  0.98149  0.54340  1.0000
  S   S540      1.0  0.24014  0.98607  0.50353  1.0000
  C   C1617     1.0  0.04019  0.84765  0.49952  1.0000
  H   H1586     1.0  0.44473  0.99026  0.56656  1.0000
  H   H1587     1.0  0.02443  0.77154  0.50131  1.0000
  H   H1588     1.0  0.19275  0.99202  0.53190  1.0000
  H   H1589     1.0  0.12349  0.89650  0.49520  1.0000
  H   H1590     1.0  0.40723  0.97974  0.51553  1.0000
  Fe  Fe272     1.0  0.09019  0.85808  0.49496  1.0000
  H   H1591     1.0  0.40755  0.99212  0.56091  1.0000
  C   C1618     1.0  0.39493  0.96661  0.50214  1.0000
  H   H1592     1.0  0.01101  0.81320  0.50987  1.0000
  H   H1593     1.0  0.07754  0.76043  0.50294  1.0000
  C   C1619     1.0  0.09536  0.90697  0.51220  1.0000
  C   C1620     1.0  0.23238  0.94247  0.49442  1.0000
  H   H1594     1.0  0.29832  0.98582  0.50487  1.0000
  H   H1595     1.0  0.07505  0.87038  0.52438  1.0000
  H   H1596     1.0  0.42871  0.98954  0.55805  1.0000
  C   C1621     1.0  0.10819  0.87605  0.49693  1.0000
  S   S541      1.0  0.42423  0.98876  0.60754  1.0000
  S   S542      1.0  0.22140  0.89411  0.49638  1.0000
  C   C1622     1.0  0.17592  0.99017  0.53099  1.0000
  C   C1623     1.0  0.20755  0.89972  0.49286  1.0000
  H   H1597     1.0  0.17142  0.99243  0.53944  1.0000
  H   H1598     1.0  0.99933  0.75409  0.55207  1.0000
  H   H1599     1.0  0.19627  0.86697  0.50810  1.0000
  C   C1624     1.0  0.35722  0.94614  0.49778  1.0000
  H   H1600     1.0  0.29723  0.88929  0.51790  1.0000
  C   C1625     1.0  0.00142  0.73242  0.56803  1.0000
  C   C1626     1.0  0.21171  0.94868  0.49375  1.0000
  H   H1601     1.0  0.15948  0.98477  0.50931  1.0000
  N   N134      1.0  0.45433  0.99068  0.67310  1.0000
  H   H1602     1.0  0.05951  0.81860  0.49847  1.0000
  C   C1627     1.0  0.01665  0.81348  0.50085  1.0000
  C   C1628     1.0  0.18030  0.93986  0.49402  1.0000
  H   H1603     1.0  0.02462  0.73555  0.50499  1.0000
  H   H1604     1.0  0.99962  0.72348  0.51025  1.0000
  C   C1629     1.0  0.99945  0.78151  0.53744  1.0000
  H   H1605     1.0  0.01163  0.71923  0.59294  1.0000
  N   N135      1.0  0.02831  0.81516  0.50031  1.0000
  Fe  Fe273     1.0  0.44032  0.98711  0.61459  1.0000
  C   C1630     1.0  0.02910  0.66305  0.50688  1.0000
  H   H1606     1.0  0.00030  0.77461  0.55563  1.0000
  H   H1607     1.0  0.45311  0.98750  0.65705  1.0000
  S   S543      1.0  0.46359  0.98672  0.63144  1.0000
  H   H1608     1.0  0.01514  0.75214  0.54729  1.0000
  C   C1631     1.0  0.45975  0.98829  0.66132  1.0000
  C   C1632     1.0  0.49419  0.98667  0.60609  1.0000
  S   S544      1.0  0.31153  0.91420  0.49298  1.0000
  H   H1609     1.0  0.47078  0.98597  0.67819  1.0000
  H   H1610     1.0  0.49416  0.99196  0.62746  1.0000
  H   H1611     1.0  0.08511  0.90037  0.49903  1.0000
  C   C1633     1.0  0.49306  0.80515  0.96484  1.0000
  S   S545      1.0  0.47511  0.70508  0.94449  1.0000
  C   C1634     1.0  0.44754  0.93551  0.75658  1.0000
  S   S546      1.0  0.48627  0.94637  0.77616  1.0000
  Fe  Fe274     1.0  0.48189  0.76263  0.95191  1.0000
  S   S547      1.0  0.49152  0.77407  0.93654  1.0000
  N   N136      1.0  0.44900  0.94280  0.76369  1.0000
  H   H1612     1.0  0.47898  0.72632  0.97973  1.0000
  C   C1635     1.0  0.47594  0.90852  0.75719  1.0000
  N   N137      1.0  0.47671  0.97544  0.81681  1.0000
  C   C1636     1.0  0.49386  0.98374  0.74721  1.0000
  C   C1637     1.0  0.45326  0.96049  0.76511  1.0000
  S   S548      1.0  0.48080  0.94207  0.82870  1.0000
  H   H1613     1.0  0.45282  0.96190  0.78255  1.0000
  C   C1638     1.0  0.49259  0.98554  0.80907  1.0000
  H   H1614     1.0  0.46598  0.75922  0.98659  1.0000
  H   H1615     1.0  0.48560  0.98155  0.74779  1.0000
  C   C1639     1.0  0.48620  0.72964  0.92111  1.0000
  S   S549      1.0  0.46627  0.75712  0.95045  1.0000
  S   S550      1.0  0.48879  0.68692  0.97168  1.0000
  C   C1640     1.0  0.45184  0.95348  0.75839  1.0000
  C   C1641     1.0  0.44857  0.94578  0.78262  1.0000
  C   C1642     1.0  0.47375  0.90910  0.76904  1.0000
  H   H1616     1.0  0.45758  0.66868  0.96975  1.0000
  Fe  Fe275     1.0  0.47797  0.93327  0.79068  1.0000
  H   H1617     1.0  0.45328  0.93692  0.74760  1.0000
  H   H1618     1.0  0.47480  0.93760  0.76526  1.0000
  H   H1619     1.0  0.48731  0.94668  0.84767  1.0000
  C   C1643     1.0  0.48947  0.98148  0.77702  1.0000
  S   S551      1.0  0.46745  0.94646  0.80174  1.0000
  C   C1644     1.0  0.45786  0.68705  0.96639  1.0000
  S   S552      1.0  0.47030  0.92022  0.78694  1.0000
  C   C1645     1.0  0.49446  0.94019  0.84389  1.0000
  Fe  Fe276     1.0  0.47711  0.95903  0.78791  1.0000
  C   C1646     1.0  0.47358  0.91952  0.77203  1.0000
  C   C1647     1.0  0.49099  0.97250  0.82824  1.0000
  C   C1648     1.0  0.47542  0.92940  0.76309  1.0000
  H   H1620     1.0  0.47224  0.90145  0.77592  1.0000
  H   H1621     1.0  0.43824  0.93763  0.75583  1.0000
  H   H1622     1.0  0.45583  0.96880  0.76089  1.0000
  H   H1623     1.0  0.47610  0.96448  0.83400  1.0000
  H   H1624     1.0  0.45802  0.70484  0.96582  1.0000
  C   C1649     1.0  0.45161  0.95659  0.77729  1.0000
  N   N138      1.0  0.45715  0.69430  0.98320  1.0000
  C   C1650     1.0  0.48075  0.97034  0.82692  1.0000
  C   C1651     1.0  0.45739  0.67591  0.97352  1.0000
  C   C1652     1.0  0.47743  0.73356  0.95417  1.0000
  H   H1625     1.0  0.49481  0.80721  0.98134  1.0000
  Fe  Fe277     1.0  0.48978  0.69239  0.95225  1.0000
  C   C1653     1.0  0.47750  0.98652  0.77775  1.0000
  C   C1654     1.0  0.44722  0.93899  0.77565  1.0000
  C   C1655     1.0  0.45770  0.70377  0.98825  1.0000
  C   C1656     1.0  0.49639  0.82130  0.94826  1.0000
  H   H1626     1.0  0.44759  0.94248  0.79205  1.0000
  H   H1627     1.0  0.45852  0.68859  0.95698  1.0000
  C   C1657     1.0  0.45765  0.69622  0.97142  1.0000
  H   H1628     1.0  0.48651  0.71528  0.95595  1.0000
  S   S553      1.0  0.46776  0.97734  0.78075  1.0000
  H   H1629     1.0  0.49052  0.79681  0.96851  1.0000
  S   S554      1.0  0.48065  0.77349  0.96468  1.0000
  C   C1658     1.0  0.47209  0.71911  0.94745  1.0000
  C   C1659     1.0  0.46262  0.72770  0.94380  1.0000
  C   C1660     1.0  0.46066  0.73924  0.94519  1.0000
  C   C1661     1.0  0.46824  0.74228  0.95009  1.0000
  H   H1630     1.0  0.46602  0.97394  0.80622  1.0000
  H   H1631     1.0  0.44523  0.93042  0.77986  1.0000
  H   H1632     1.0  0.45694  0.72550  0.93966  1.0000
  H   H1633     1.0  0.45346  0.74591  0.94213  1.0000
  C   C1662     1.0  0.49345  0.81031  0.95294  1.0000
  H   H1634     1.0  0.48280  0.75795  0.92286  1.0000
  H   H1635     1.0  0.47614  0.90042  0.75493  1.0000
  H   H1636     1.0  0.47326  0.74557  0.91689  1.0000
  H   H1637     1.0  0.45326  0.95655  0.74891  1.0000
  Fe  Fe278     1.0  0.48319  0.94155  0.80978  1.0000
  H   H1638     1.0  0.48302  0.73570  0.95837  1.0000
  C   C1663     1.0  0.47734  0.92891  0.75125  1.0000
  H   H1639     1.0  0.45812  0.97951  0.81933  1.0000
  S   S555      1.0  0.49291  0.92712  0.80002  1.0000
  H   H1640     1.0  0.44863  0.98596  0.74437  1.0000
  C   C1664     1.0  0.47933  0.72196  0.95292  1.0000
  H   H1641     1.0  0.49288  0.97236  0.77652  1.0000
  C   C1665     1.0  0.47768  0.91844  0.74827  1.0000
  H   H1642     1.0  0.45024  0.92598  0.76052  1.0000
  S   S556      1.0  0.49206  0.95522  0.79684  1.0000
  H   H1643     1.0  0.49588  0.89932  0.93691  1.0000
  H   H1644     1.0  0.47890  0.98751  0.80023  1.0000
  C   C1666     1.0  0.45673  0.67409  0.98555  1.0000
  C   C1667     1.0  0.48137  0.74169  0.91997  1.0000
  Fe  Fe279     1.0  0.49206  0.78366  0.94971  1.0000
  C   C1668     1.0  0.48672  0.74864  0.92331  1.0000
  H   H1645     1.0  0.48185  0.72405  0.91900  1.0000
  H   H1646     1.0  0.47842  0.93669  0.74448  1.0000
  S   S557      1.0  0.49039  0.80322  0.94369  1.0000
  H   H1647     1.0  0.46502  0.96404  0.82025  1.0000
  C   C1669     1.0  0.49354  0.93625  0.83441  1.0000
  C   C1670     1.0  0.46592  0.97315  0.81561  1.0000
  H   H1648     1.0  0.49001  0.90199  0.95169  1.0000
  C   C1671     1.0  0.48451  0.71916  0.98467  1.0000
  C   C1672     1.0  0.45676  0.68339  0.99023  1.0000
  H   H1649     1.0  0.45561  0.71258  0.98240  1.0000
  H   H1650     1.0  0.49421  0.96831  0.83624  1.0000
  H   H1651     1.0  0.45627  0.66552  0.99123  1.0000
  S   S558      1.0  0.49572  0.67400  0.94905  1.0000
  Fe  Fe280     1.0  0.49627  0.66878  0.96819  1.0000
  H   H1652     1.0  0.46670  0.70239  0.98963  1.0000
  C   C1673     1.0  0.49551  0.81102  0.97206  1.0000
  C   C1674     1.0  0.48234  0.98315  0.80806  1.0000
  C   C1675     1.0  0.49542  0.71336  0.97888  1.0000
  C   C1676     1.0  0.49630  0.72469  0.92571  1.0000
  H   H1653     1.0  0.46028  0.74620  0.99139  1.0000
  H   H1654     1.0  0.49387  0.77765  0.98017  1.0000
  C   C1677     1.0  0.49087  0.77463  0.98953  1.0000
  Fe  Fe281     1.0  0.57204  0.25179  0.04079  1.0000
  S   S559      1.0  0.58594  0.24671  0.05124  1.0000
  S   S560      1.0  0.55544  0.24517  0.04908  1.0000
  Fe  Fe282     1.0  0.58641  0.26594  0.01999  1.0000
  S   S561      1.0  0.60160  0.26163  0.02851  1.0000
  C   C1678     1.0  0.53871  0.20066  0.04393  1.0000
  Fe  Fe283     1.0  0.59825  0.24342  0.03423  1.0000
  S   S562      1.0  0.61340  0.22777  0.03403  1.0000
  Fe  Fe284     1.0  0.58774  0.26540  0.04442  1.0000
  S   S563      1.0  0.58959  0.27714  0.05480  1.0000
  S   S564      1.0  0.58425  0.24734  0.02407  1.0000
  S   S565      1.0  0.57265  0.27087  0.03557  1.0000
  Fe  Fe285     1.0  0.57041  0.99721  0.20850  1.0000
  H   H1655     1.0  0.56513  0.04403  0.17894  1.0000
  S   S566      1.0  0.57663  0.00662  0.19002  1.0000
  C   C1679     1.0  0.54639  0.26305  0.03252  1.0000
  C   C1680     1.0  0.56944  0.29484  0.99357  1.0000
  H   H1656     1.0  0.49990  0.31100  0.04629  1.0000
  N   N139      1.0  0.49910  0.99449  0.13875  1.0000
  S   S567      1.0  0.60703  0.01272  0.18777  1.0000
  H   H1657     1.0  0.55539  0.26356  0.02830  1.0000
  H   H1658     1.0  0.59722  0.02005  0.16700  1.0000
  Fe  Fe286     1.0  0.56627  0.16763  0.03741  1.0000
  N   N140      1.0  0.55981  0.31030  0.02612  1.0000
  S   S568      1.0  0.55590  0.15421  0.04862  1.0000
  Fe  Fe287     1.0  0.58741  0.17818  0.03313  1.0000
  H   H1659     1.0  0.52771  0.19133  0.05868  1.0000
  S   S569      1.0  0.60241  0.17822  0.04037  1.0000
  Fe  Fe288     1.0  0.56552  0.19338  0.02595  1.0000
  S   S570      1.0  0.55314  0.21099  0.02467  1.0000
  C   C1681     1.0  0.50372  0.06988  0.07062  1.0000
  S   S571      1.0  0.56883  0.18250  0.04338  1.0000
  S   S572      1.0  0.58531  0.16207  0.02899  1.0000
  Fe  Fe289     1.0  0.51810  0.02492  0.11483  1.0000
  S   S573      1.0  0.53004  0.03639  0.11362  1.0000
  C   C1682     1.0  0.52406  0.00151  0.22564  1.0000
  H   H1660     1.0  0.56942  0.30272  0.05568  1.0000
  S   S574      1.0  0.55149  0.01298  0.11254  1.0000
  Fe  Fe290     1.0  0.53826  0.02150  0.12648  1.0000
  H   H1661     1.0  0.57672  0.12009  0.04096  1.0000
  Fe  Fe291     1.0  0.54208  0.02706  0.09967  1.0000
  S   S575      1.0  0.55155  0.03911  0.08449  1.0000
  S   S576      1.0  0.52523  0.01072  0.12892  1.0000
  S   S577      1.0  0.52946  0.01642  0.09991  1.0000
  C   C1683     1.0  0.51425  0.04227  0.24070  1.0000
  H   H1662     1.0  0.58922  0.28827  0.03035  1.0000
  H   H1663     1.0  0.50140  0.07545  0.06252  1.0000
  H   H1664     1.0  0.53760  0.16952  0.01979  1.0000
  N   N141      1.0  0.51578  0.06462  0.08478  1.0000
  H   H1665     1.0  0.56947  0.26643  0.00789  1.0000
  S   S578      1.0  0.53389  0.04667  0.18071  1.0000
  H   H1666     1.0  0.51399  0.26077  0.04691  1.0000
  C   C1684     1.0  0.50485  0.00401  0.22204  1.0000
  C   C1685     1.0  0.50531  0.06648  0.15513  1.0000
  C   C1686     1.0  0.55571  0.27817  0.99969  1.0000
  H   H1667     1.0  0.52864  0.16995  0.05954  1.0000
  H   H1668     1.0  0.60561  0.20077  0.06676  1.0000
  H   H1669     1.0  0.61909  0.27927  0.02201  1.0000
  S   S579      1.0  0.62517  0.02098  0.22823  1.0000
  H   H1670     1.0  0.54873  0.16370  0.99706  1.0000
  C   C1687     1.0  0.50614  0.32610  0.03474  1.0000
  H   H1671     1.0  0.51431  0.16663  0.06345  1.0000
  H   H1672     1.0  0.55934  0.21913  0.05497  1.0000
  H   H1673     1.0  0.53916  0.27659  0.01908  1.0000
  H   H1674     1.0  0.56325  0.31619  0.00748  1.0000
  H   H1675     1.0  0.51008  0.05993  0.12874  1.0000
  H   H1676     1.0  0.57600  0.22591  0.05530  1.0000
  C   C1688     1.0  0.62271  0.30546  0.00365  1.0000
  C   C1689     1.0  0.55950  0.00629  0.14399  1.0000
  C   C1690     1.0  0.54460  0.04773  0.07298  1.0000
  C   C1691     1.0  0.53555  0.04450  0.07045  1.0000
  C   C1692     1.0  0.53010  0.05163  0.06128  1.0000
  C   C1693     1.0  0.53337  0.06222  0.05487  1.0000
  C   C1694     1.0  0.54234  0.06550  0.05748  1.0000
  C   C1695     1.0  0.54807  0.05816  0.06637  1.0000
  H   H1677     1.0  0.53289  0.03642  0.07542  1.0000
  H   H1678     1.0  0.52319  0.04902  0.05928  1.0000
  H   H1679     1.0  0.54495  0.07362  0.05255  1.0000
  H   H1680     1.0  0.55512  0.06066  0.06826  1.0000
  C   C1696     1.0  0.55566  0.14431  0.04053  1.0000
  C   C1697     1.0  0.56097  0.14580  0.02854  1.0000
  H   H1681     1.0  0.59869  0.01625  0.14609  1.0000
  C   C1698     1.0  0.55522  0.12850  0.02755  1.0000
  C   C1699     1.0  0.54979  0.12707  0.03953  1.0000
  C   C1700     1.0  0.55004  0.13495  0.04602  1.0000
  Fe  Fe292     1.0  0.51697  0.04100  0.18460  1.0000
  C   C1701     1.0  0.52862  0.19620  0.04965  1.0000
  H   H1682     1.0  0.54565  0.11973  0.04388  1.0000
  H   H1683     1.0  0.54593  0.13374  0.05531  1.0000
  C   C1702     1.0  0.61148  0.01587  0.19895  1.0000
  C   C1703     1.0  0.62133  0.02078  0.19615  1.0000
  C   C1704     1.0  0.62542  0.02259  0.20512  1.0000
  C   C1705     1.0  0.61961  0.01957  0.21691  1.0000
  C   C1706     1.0  0.60959  0.01496  0.21964  1.0000
  C   C1707     1.0  0.60552  0.01318  0.21069  1.0000
  H   H1684     1.0  0.62595  0.02296  0.18707  1.0000
  H   H1685     1.0  0.63315  0.02619  0.20296  1.0000
  H   H1686     1.0  0.60508  0.01250  0.22867  1.0000
  H   H1687     1.0  0.59771  0.00983  0.21293  1.0000
  C   C1708     1.0  0.54915  0.01839  0.20915  1.0000
  C   C1709     1.0  0.54616  0.01531  0.20027  1.0000
  C   C1710     1.0  0.54184  0.02408  0.19133  1.0000
  C   C1711     1.0  0.54087  0.03592  0.19100  1.0000
  C   C1712     1.0  0.54413  0.03902  0.19974  1.0000
  C   C1713     1.0  0.54819  0.03023  0.20891  1.0000
  H   H1688     1.0  0.54700  0.00616  0.20039  1.0000
  H   H1689     1.0  0.53890  0.02168  0.18488  1.0000
  H   H1690     1.0  0.54305  0.04820  0.19968  1.0000
  S   S580      1.0  0.52556  0.07137  0.04417  1.0000
  H   H1691     1.0  0.49665  0.01447  0.17602  1.0000
  C   C1714     1.0  0.55927  0.04009  0.24052  1.0000
  H   H1692     1.0  0.56415  0.16489  0.00597  1.0000
  C   C1715     1.0  0.55136  0.01490  0.14957  1.0000
  C   C1716     1.0  0.50532  0.99656  0.18243  1.0000
  H   H1693     1.0  0.53195  0.15162  0.01877  1.0000
  H   H1694     1.0  0.53441  0.00440  0.24074  1.0000
  C   C1717     1.0  0.56693  0.04775  0.23542  1.0000
  H   H1695     1.0  0.51064  0.04551  0.21303  1.0000
  C   C1718     1.0  0.58546  0.11937  0.01280  1.0000
  C   C1719     1.0  0.61039  0.21421  0.03475  1.0000
  C   C1720     1.0  0.61851  0.20387  0.03813  1.0000
  C   C1721     1.0  0.61611  0.19287  0.03953  1.0000
  C   C1722     1.0  0.60567  0.19213  0.03733  1.0000
  C   C1723     1.0  0.59765  0.20246  0.03359  1.0000
  C   C1724     1.0  0.59997  0.21352  0.03240  1.0000
  H   H1696     1.0  0.62659  0.20436  0.03991  1.0000
  H   H1697     1.0  0.62231  0.18492  0.04243  1.0000
  H   H1698     1.0  0.58952  0.20195  0.03198  1.0000
  H   H1699     1.0  0.59367  0.22147  0.02976  1.0000
  C   C1725     1.0  0.60204  0.30677  0.04303  1.0000
  C   C1726     1.0  0.59857  0.29654  0.05016  1.0000
  C   C1727     1.0  0.59404  0.28979  0.04561  1.0000
  C   C1728     1.0  0.59278  0.29342  0.03391  1.0000
  S   S581      1.0  0.56102  0.17905  0.02093  1.0000
  H   H1700     1.0  0.59955  0.29376  0.05920  1.0000
  S   S582      1.0  0.55523  0.00721  0.21974  1.0000
  C   C1729     1.0  0.50017  0.01177  0.22966  1.0000
  C   C1730     1.0  0.59113  0.21440  0.06145  1.0000
  C   C1731     1.0  0.57340  0.28348  0.99983  1.0000
  C   C1732     1.0  0.50477  0.31453  0.03762  1.0000
  C   C1733     1.0  0.56757  0.99784  0.16151  1.0000
  C   C1734     1.0  0.53087  0.16725  0.03857  1.0000
  C   C1735     1.0  0.58046  0.21682  0.05799  1.0000
  C   C1736     1.0  0.53985  0.20702  0.03227  1.0000
  H   H1701     1.0  0.56751  0.21117  0.04353  1.0000
  C   C1737     1.0  0.53216  0.25424  0.04836  1.0000
  H   H1702     1.0  0.57838  0.18927  0.05996  1.0000
  C   C1738     1.0  0.55953  0.00654  0.16705  1.0000
  C   C1739     1.0  0.51667  0.32348  0.01520  1.0000
  C   C1740     1.0  0.56758  0.99778  0.14997  1.0000
  N   N142      1.0  0.58577  0.12205  0.02296  1.0000
  C   C1741     1.0  0.50838  0.04448  0.22248  1.0000
  C   C1742     1.0  0.59589  0.30389  0.02687  1.0000
  C   C1743     1.0  0.52228  0.15077  0.04806  1.0000
  S   S583      1.0  0.51185  0.99997  0.19185  1.0000
  H   H1703     1.0  0.53361  0.17485  0.03902  1.0000
  C   C1744     1.0  0.51980  0.30480  0.00931  1.0000
  H   H1704     1.0  0.52845  0.00220  0.15430  1.0000
  C   C1745     1.0  0.55616  0.31327  0.01491  1.0000
  C   C1746     1.0  0.59003  0.01425  0.15105  1.0000
  S   S584      1.0  0.50780  0.19132  0.05034  1.0000
  S   S585      1.0  0.53681  0.09692  0.01771  1.0000
  C   C1747     1.0  0.51223  0.07203  0.07501  1.0000
  Fe  Fe293     1.0  0.51977  0.11001  0.01611  1.0000
  C   C1748     1.0  0.58837  0.02486  0.16612  1.0000
  H   H1705     1.0  0.58587  0.03367  0.18017  1.0000
  S   S586      1.0  0.55626  0.11797  0.01960  1.0000
  N   N143      1.0  0.52574  0.16036  0.04862  1.0000
  C   C1749     1.0  0.56645  0.30502  0.04750  1.0000
  H   H1706     1.0  0.56834  0.02777  0.15062  1.0000
  H   H1707     1.0  0.57582  0.10942  0.03387  1.0000
  C   C1750     1.0  0.55792  0.30021  0.03418  1.0000
  C   C1751     1.0  0.56822  0.31535  0.03930  1.0000
  N   N144      1.0  0.50324  0.06624  0.14467  1.0000
  H   H1708     1.0  0.54562  0.19910  0.04853  1.0000
  S   S587      1.0  0.52410  0.12348  0.02261  1.0000
  C   C1752     1.0  0.52480  0.06688  0.08923  1.0000
  C   C1753     1.0  0.52566  0.26931  0.03218  1.0000
  C   C1754     1.0  0.62332  0.29616  0.01345  1.0000
  C   C1755     1.0  0.52431  0.14762  0.03729  1.0000
  H   H1709     1.0  0.51483  0.20470  0.02689  1.0000
  C   C1756     1.0  0.52117  0.20398  0.03185  1.0000
  C   C1757     1.0  0.56127  0.29740  0.04496  1.0000
  H   H1710     1.0  0.56474  0.13925  0.01274  1.0000
  H   H1711     1.0  0.58212  0.11184  0.01316  1.0000
  C   C1758     1.0  0.56064  0.13800  0.02203  1.0000
  H   H1712     1.0  0.53496  0.10252  0.99312  1.0000
  N   N145      1.0  0.58341  0.02304  0.15813  1.0000
  H   H1713     1.0  0.51114  0.03142  0.13502  1.0000
  H   H1714     1.0  0.55422  0.30561  0.01305  1.0000
  Fe  Fe294     1.0  0.51593  0.11470  0.04064  1.0000
  C   C1759     1.0  0.61904  0.28637  0.01423  1.0000
  H   H1715     1.0  0.51143  0.99490  0.14808  1.0000
  S   S588      1.0  0.51493  0.27721  0.02414  1.0000
  C   C1760     1.0  0.58197  0.03257  0.17361  1.0000
  H   H1716     1.0  0.53010  0.25160  0.01746  1.0000
  C   C1761     1.0  0.49843  0.03918  0.14856  1.0000
  H   H1717     1.0  0.50390  0.02007  0.24124  1.0000
  H   H1718     1.0  0.55647  0.04102  0.16403  1.0000
  C   C1762     1.0  0.56550  0.03665  0.16456  1.0000
  H   H1719     1.0  0.60574  0.31182  0.04657  1.0000
  N   N146      1.0  0.51934  0.00892  0.23331  1.0000
  H   H1720     1.0  0.58521  0.01390  0.14463  1.0000
  H   H1721     1.0  0.54896  0.20861  0.00351  1.0000
  C   C1763     1.0  0.56479  0.31788  0.02861  1.0000
  C   C1764     1.0  0.57038  0.03835  0.17293  1.0000
  C   C1765     1.0  0.49782  0.00531  0.17596  1.0000
  H   H1722     1.0  0.61066  0.27852  0.00595  1.0000
  H   H1723     1.0  0.55397  0.29417  0.03225  1.0000
  H   H1724     1.0  0.52080  0.17180  0.00194  1.0000
  H   H1725     1.0  0.58292  0.05054  0.22271  1.0000
  N   N147      1.0  0.56158  0.02963  0.23718  1.0000
  C   C1766     1.0  0.58991  0.13159  0.02249  1.0000
  H   H1726     1.0  0.49758  0.01162  0.14157  1.0000
  S   S589      1.0  0.50531  0.12611  0.05338  1.0000
  S   S590      1.0  0.58425  0.19005  0.01599  1.0000
  H   H1727     1.0  0.59148  0.00534  0.15690  1.0000
  C   C1767     1.0  0.51745  0.16503  0.00053  1.0000
  C   C1768     1.0  0.60065  0.31050  0.03141  1.0000
  C   C1769     1.0  0.58169  0.19639  0.06068  1.0000
  S   S591      1.0  0.51132  0.11643  0.00035  1.0000
  C   C1770     1.0  0.51991  0.19773  0.04355  1.0000
  H   H1728     1.0  0.57015  0.20642  0.99456  1.0000
  H   H1729     1.0  0.58954  0.10843  0.03762  1.0000
  S   S592      1.0  0.50983  0.10250  0.03401  1.0000
  S   S593      1.0  0.53254  0.10198  0.04431  1.0000
  H   H1730     1.0  0.59500  0.22150  0.06128  1.0000
  H   H1731     1.0  0.53282  0.04884  0.15305  1.0000
  H   H1732     1.0  0.53017  0.24802  0.05658  1.0000
  S   S594      1.0  0.58774  0.16871  0.99548  1.0000
  C   C1771     1.0  0.55287  0.20391  0.99646  1.0000
  Fe  Fe295     1.0  0.59443  0.00061  0.19428  1.0000
  Fe  Fe296     1.0  0.58029  0.17437  0.01276  1.0000
  H   H1733     1.0  0.58823  0.12469  0.99386  1.0000
  C   C1772     1.0  0.50208  0.05294  0.08659  1.0000
  H   H1734     1.0  0.51335  0.04950  0.09850  1.0000
  C   C1773     1.0  0.55141  0.01504  0.16106  1.0000
  S   S595      1.0  0.51264  0.03152  0.17356  1.0000
  C   C1774     1.0  0.52301  0.26150  0.04295  1.0000
  C   C1775     1.0  0.52385  0.16318  0.06010  1.0000
  H   H1735     1.0  0.51815  0.14532  0.05600  1.0000
  H   H1736     1.0  0.56623  0.32591  0.02226  1.0000
  C   C1776     1.0  0.59233  0.19366  0.06424  1.0000
  C   C1777     1.0  0.59710  0.20274  0.06454  1.0000
  H   H1737     1.0  0.59716  0.18458  0.06610  1.0000
  H   H1738     1.0  0.56545  0.15289  0.02431  1.0000
  N   N148      1.0  0.52496  0.23887  0.03293  1.0000
  C   C1778     1.0  0.52870  0.23083  0.04230  1.0000
  C   C1779     1.0  0.51318  0.24295  0.03316  1.0000
  C   C1780     1.0  0.52055  0.22677  0.05230  1.0000
  C   C1781     1.0  0.50481  0.23905  0.04303  1.0000
  C   C1782     1.0  0.50854  0.23096  0.05265  1.0000
  C   C1783     1.0  0.53367  0.24269  0.02241  1.0000
  H   H1739     1.0  0.53804  0.22756  0.04207  1.0000
  H   H1740     1.0  0.51022  0.24941  0.02578  1.0000
  H   H1741     1.0  0.52354  0.22039  0.05970  1.0000
  H   H1742     1.0  0.52058  0.07182  0.09635  1.0000
  H   H1743     1.0  0.50209  0.22800  0.06039  1.0000
  H   H1744     1.0  0.49854  0.07115  0.16129  1.0000
  H   H1745     1.0  0.54162  0.24328  0.02487  1.0000
  H   H1746     1.0  0.53639  0.23628  0.01661  1.0000
  S   S596      1.0  0.51320  0.02761  0.20124  1.0000
  H   H1747     1.0  0.54514  0.02178  0.16529  1.0000
  H   H1748     1.0  0.50475  0.03756  0.15379  1.0000
  H   H1749     1.0  0.57249  0.32121  0.04109  1.0000
  H   H1750     1.0  0.56012  0.28923  0.05121  1.0000
  C   C1784     1.0  0.49866  0.06024  0.07644  1.0000
  C   C1785     1.0  0.51686  0.99882  0.22000  1.0000
  H   H1751     1.0  0.52323  0.30980  0.00039  1.0000
  H   H1752     1.0  0.52180  0.13984  0.03700  1.0000
  C   C1786     1.0  0.58184  0.11459  0.03442  1.0000
  C   C1787     1.0  0.51174  0.06024  0.13697  1.0000
  H   H1753     1.0  0.50560  0.09338  0.99948  1.0000
  H   H1754     1.0  0.58658  0.03181  0.21629  1.0000
  H   H1755     1.0  0.52722  0.15522  0.06645  1.0000
  C   C1788     1.0  0.52991  0.15433  0.02706  1.0000
  H   H1756     1.0  0.62666  0.29674  0.02064  1.0000
  H   H1757     1.0  0.53067  0.05847  0.09263  1.0000
  C   C1789     1.0  0.51704  0.04371  0.22844  1.0000
  S   S597      1.0  0.54107  0.02558  0.14238  1.0000
  H   H1758     1.0  0.52597  0.04389  0.22356  1.0000
  S   S598      1.0  0.50746  0.21136  0.99442  1.0000
  C   C1790     1.0  0.57223  0.02904  0.15708  1.0000
  C   C1791     1.0  0.50936  0.30766  0.02911  1.0000
  C   C1792     1.0  0.59292  0.13648  0.00131  1.0000
  H   H1759     1.0  0.50560  0.14154  0.99434  1.0000
  H   H1760     1.0  0.59492  0.30664  0.01787  1.0000
  H   H1761     1.0  0.55062  0.03262  0.21570  1.0000
  C   C1793     1.0  0.53312  0.16429  0.02764  1.0000
  S   S599      1.0  0.50133  0.18783  0.02215  1.0000
  C   C1794     1.0  0.57682  0.04476  0.22666  1.0000
  C   C1795     1.0  0.53727  0.27029  0.02719  1.0000
  C   C1796     1.0  0.56641  0.27524  0.00314  1.0000
  H   H1762     1.0  0.53179  0.21376  0.01729  1.0000
  Fe  Fe297     1.0  0.54039  0.10996  0.02566  1.0000
  N   N149      1.0  0.57587  0.20786  0.05766  1.0000
  C   C1797     1.0  0.53095  0.20893  0.02632  1.0000
  Fe  Fe298     1.0  0.52723  0.09022  0.03623  1.0000
  C   C1798     1.0  0.54388  0.25489  0.04302  1.0000
  C   C1799     1.0  0.52463  0.05396  0.15056  1.0000
  H   H1763     1.0  0.55996  0.20372  0.05752  1.0000
  C   C1800     1.0  0.56514  0.21059  0.05321  1.0000
  H   H1764     1.0  0.51765  0.06056  0.16650  1.0000
  C   C1801     1.0  0.59354  0.13894  0.01167  1.0000
  H   H1765     1.0  0.59546  0.14231  0.99291  1.0000
  H   H1766     1.0  0.50258  0.26923  0.99965  1.0000
  C   C1802     1.0  0.50535  0.16582  0.00313  1.0000
  C   C1803     1.0  0.58889  0.12662  0.00185  1.0000
  H   H1767     1.0  0.59016  0.13373  0.03053  1.0000
  C   C1804     1.0  0.51606  0.06042  0.15818  1.0000
  S   S600      1.0  0.58731  0.27935  0.00309  1.0000
  S   S601      1.0  0.58688  0.32491  0.99894  1.0000
  C   C1805     1.0  0.57892  0.03421  0.22308  1.0000
  H   H1768     1.0  0.64056  0.99590  0.19494  1.0000
  C   C1806     1.0  0.56623  0.16462  0.99683  1.0000
  C   C1807     1.0  0.61423  0.28602  0.00515  1.0000
  H   H1769     1.0  0.62561  0.31328  0.00318  1.0000
  H   H1770     1.0  0.55944  0.00664  0.17597  1.0000
  H   H1771     1.0  0.53061  0.07200  0.08209  1.0000
  S   S602      1.0  0.60540  0.32319  0.02266  1.0000
  H   H1772     1.0  0.56520  0.05592  0.23829  1.0000
  H   H1773     1.0  0.49927  0.17314  0.00662  1.0000
  H   H1774     1.0  0.53205  0.99840  0.17414  1.0000
  H   H1775     1.0  0.50815  0.29873  0.03138  1.0000
  N   N150      1.0  0.51515  0.31219  0.01805  1.0000
  C   C1808     1.0  0.51068  0.05530  0.09068  1.0000
  C   C1809     1.0  0.50900  0.14810  0.99606  1.0000
  C   C1810     1.0  0.55161  0.28954  0.99358  1.0000
  C   C1811     1.0  0.52513  0.15566  0.99576  1.0000
  C   C1812     1.0  0.61788  0.30479  0.99471  1.0000
  S   S603      1.0  0.49889  0.03356  0.11708  1.0000
  H   H1776     1.0  0.51634  0.07936  0.07022  1.0000
  H   H1777     1.0  0.52910  0.04887  0.13390  1.0000
  C   C1813     1.0  0.52251  0.05394  0.13984  1.0000
  H   H1778     1.0  0.51036  0.28856  0.99407  1.0000
  C   C1814     1.0  0.50759  0.01409  0.23529  1.0000
  H   H1779     1.0  0.55076  0.27148  0.00143  1.0000
  H   H1780     1.0  0.53662  0.20003  0.99633  1.0000
  H   H1781     1.0  0.59665  0.14662  0.01130  1.0000
  Fe  Fe299     1.0  0.50697  0.01938  0.19053  1.0000
  H   H1782     1.0  0.53048  0.12974  0.99575  1.0000
  H   H1783     1.0  0.49921  0.00224  0.21752  1.0000
  C   C1815     1.0  0.53518  0.99468  0.15710  1.0000
  H   H1784     1.0  0.49821  0.04542  0.09125  1.0000
  H   H1785     1.0  0.55954  0.00614  0.13511  1.0000
  N   N151      1.0  0.52086  0.14745  0.99343  1.0000
  N   N152      1.0  0.61387  0.29509  0.99548  1.0000
  H   H1786     1.0  0.58010  0.24040  0.99942  1.0000
  H   H1787     1.0  0.54818  0.32057  0.01503  1.0000
  C   C1816     1.0  0.52707  0.01200  0.23878  1.0000
  H   H1788     1.0  0.64085  0.99752  0.21489  1.0000
  H   H1789     1.0  0.54650  0.02424  0.23730  1.0000
  H   H1790     1.0  0.51280  0.30094  0.00865  1.0000
  Fe  Fe300     1.0  0.53780  0.00302  0.11408  1.0000
  C   C1817     1.0  0.50209  0.03573  0.13777  1.0000
  H   H1791     1.0  0.58944  0.25697  0.99649  1.0000
  H   H1792     1.0  0.57287  0.01843  0.22576  1.0000
  C   C1818     1.0  0.57116  0.02669  0.22848  1.0000
  H   H1793     1.0  0.53345  0.99774  0.22376  1.0000
  H   H1794     1.0  0.53451  0.15507  0.99376  1.0000
  S   S604      1.0  0.49920  0.05313  0.18776  1.0000
  H   H1795     1.0  0.52710  0.29744  0.01193  1.0000
  H   H1796     1.0  0.53075  0.01943  0.23267  1.0000
  C   C1819     1.0  0.49679  0.13847  0.04577  1.0000
  C   C1820     1.0  0.50107  0.15734  0.00087  1.0000
  C   C1821     1.0  0.49689  0.04382  0.22876  1.0000
  Fe  Fe301     1.0  0.49653  0.27890  0.03474  1.0000
  C   C1822     1.0  0.55335  0.02186  0.24248  1.0000
  H   H1797     1.0  0.99067  0.19341  0.45966  1.0000
  C   C1823     1.0  0.76404  0.99646  0.41693  1.0000
  H   H1798     1.0  0.90366  0.28441  0.48997  1.0000
  H   H1799     1.0  0.55146  0.04254  0.24719  1.0000
  H   H1800     1.0  0.95933  0.15743  0.48476  1.0000
  C   C1824     1.0  0.96131  0.31632  0.48366  1.0000
  S   S605      1.0  0.53393  0.01281  0.27294  1.0000
  H   H1801     1.0  0.88398  0.02223  0.44552  1.0000
  C   C1825     1.0  0.63620  0.01478  0.48564  1.0000
  Fe  Fe302     1.0  0.90785  0.03102  0.47955  1.0000
  S   S606      1.0  0.58841  0.00808  0.27226  1.0000
  Fe  Fe303     1.0  0.52713  0.01840  0.29018  1.0000
  S   S607      1.0  0.53850  0.01797  0.30208  1.0000
  C   C1826     1.0  0.70203  0.04617  0.45734  1.0000
  H   H1802     1.0  0.92928  0.15930  0.44697  1.0000
  S   S608      1.0  0.57986  0.99909  0.24776  1.0000
  S   S609      1.0  0.68511  0.00921  0.41334  1.0000
  C   C1827     1.0  0.98914  0.26280  0.44576  1.0000
  H   H1803     1.0  0.93101  0.17245  0.48157  1.0000
  Fe  Fe304     1.0  0.74322  0.03302  0.44299  1.0000
  S   S610      1.0  0.75751  0.01903  0.43563  1.0000
  S   S611      1.0  0.74667  0.04912  0.44604  1.0000
  Fe  Fe305     1.0  0.72405  0.02027  0.44545  1.0000
  S   S612      1.0  0.73678  0.00528  0.43822  1.0000
  S   S613      1.0  0.70513  0.01875  0.45204  1.0000
  Fe  Fe306     1.0  0.74806  0.00635  0.44944  1.0000
  C   C1828     1.0  0.61251  0.02374  0.29284  1.0000
  Fe  Fe307     1.0  0.74511  0.01930  0.42502  1.0000
  S   S614      1.0  0.75357  0.01835  0.40629  1.0000
  S   S615      1.0  0.73465  0.02036  0.45791  1.0000
  S   S616      1.0  0.73131  0.03440  0.43119  1.0000
  Fe  Fe308     1.0  0.83544  0.01892  0.44387  1.0000
  S   S617      1.0  0.83573  0.00473  0.43510  1.0000
  S   S618      1.0  0.84780  0.01495  0.45601  1.0000
  Fe  Fe309     1.0  0.81289  0.03444  0.43653  1.0000
  S   S619      1.0  0.81124  0.02148  0.42742  1.0000
  S   S620      1.0  0.79997  0.05191  0.43663  1.0000
  Fe  Fe310     1.0  0.81637  0.00787  0.44281  1.0000
  Fe  Fe311     1.0  0.50181  0.02406  0.28847  1.0000
  Fe  Fe312     1.0  0.83060  0.01973  0.42045  1.0000
  S   S621      1.0  0.83679  0.02014  0.40118  1.0000
  S   S622      1.0  0.81631  0.02096  0.45274  1.0000
  S   S623      1.0  0.83208  0.03376  0.42843  1.0000
  H   H1804     1.0  0.81229  0.02582  0.39651  1.0000
  N   N153      1.0  0.99201  0.22006  0.43295  1.0000
  S   S624      1.0  0.60996  0.99838  0.25179  1.0000
  H   H1805     1.0  0.50027  0.04172  0.25630  1.0000
  C   C1829     1.0  0.90034  0.01915  0.45054  1.0000
  Fe  Fe313     1.0  0.88711  0.04614  0.46898  1.0000
  H   H1806     1.0  0.52013  0.03806  0.30932  1.0000
  S   S625      1.0  0.87900  0.04980  0.45333  1.0000
  H   H1807     1.0  0.81275  0.04436  0.48596  1.0000
  H   H1808     1.0  0.80752  0.05300  0.39608  1.0000
  H   H1809     1.0  0.98220  0.23461  0.44072  1.0000
  C   C1830     1.0  0.49660  0.03370  0.33190  1.0000
  Fe  Fe314     1.0  0.89803  0.05617  0.48310  1.0000
  S   S626      1.0  0.91661  0.19165  0.46742  1.0000
  H   H1810     1.0  0.95504  0.17601  0.49162  1.0000
  S   S627      1.0  0.90534  0.04845  0.46692  1.0000
  N   N154      1.0  0.99282  0.13219  0.45330  1.0000
  H   H1811     1.0  0.62534  0.01168  0.28284  1.0000
  C   C1831     1.0  0.99210  0.29012  0.46317  1.0000
  C   C1832     1.0  0.99173  0.14407  0.45141  1.0000
  C   C1833     1.0  0.76350  0.00469  0.40632  1.0000
  S   S628      1.0  0.78155  0.02767  0.48678  1.0000
  S   S629      1.0  0.95488  0.20652  0.48789  1.0000
  C   C1834     1.0  0.56397  0.03095  0.27644  1.0000
  S   S630      1.0  0.87937  0.05525  0.48413  1.0000
  H   H1812     1.0  0.97569  0.22196  0.44588  1.0000
  C   C1835     1.0  0.88165  0.00039  0.44829  1.0000
  C   C1836     1.0  0.94364  0.05984  0.47925  1.0000
  H   H1813     1.0  0.94674  0.05306  0.48636  1.0000
  S   S631      1.0  0.58303  0.03910  0.27557  1.0000
  N   N155      1.0  0.90626  0.16303  0.48806  1.0000
  Fe  Fe315     1.0  0.93600  0.20598  0.49060  1.0000
  C   C1837     1.0  0.62137  0.01364  0.29150  1.0000
  H   H1814     1.0  0.58767  0.01209  0.31151  1.0000
  H   H1815     1.0  0.57029  0.03642  0.29977  1.0000
  H   H1816     1.0  0.69964  0.00406  0.47954  1.0000
  C   C1838     1.0  0.99395  0.17290  0.49034  1.0000
  C   C1839     1.0  0.93276  0.26658  0.46369  1.0000
  N   N156      1.0  0.98879  0.31123  0.45800  1.0000
  C   C1840     1.0  0.99342  0.31114  0.46710  1.0000
  C   C1841     1.0  0.92453  0.17380  0.45567  1.0000
  H   H1817     1.0  0.64548  0.01230  0.46333  1.0000
  C   C1842     1.0  0.79614  0.00130  0.46317  1.0000
  C   C1843     1.0  0.78904  0.01222  0.45939  1.0000
  C   C1844     1.0  0.78408  0.02012  0.46690  1.0000
  H   H1818     1.0  0.71581  0.99598  0.46402  1.0000
  C   C1845     1.0  0.97234  0.13528  0.45350  1.0000
  C   C1846     1.0  0.93486  0.07781  0.46198  1.0000
  H   H1819     1.0  0.78799  0.01479  0.45041  1.0000
  H   H1820     1.0  0.77918  0.02885  0.46375  1.0000
  H   H1821     1.0  0.95960  0.25683  0.46614  1.0000
  C   C1847     1.0  0.92760  0.27570  0.46977  1.0000
  C   C1848     1.0  0.85554  0.02543  0.45534  1.0000
  C   C1849     1.0  0.85809  0.03390  0.44508  1.0000
  C   C1850     1.0  0.86498  0.04165  0.44464  1.0000
  C   C1851     1.0  0.86933  0.04094  0.45446  1.0000
  C   C1852     1.0  0.86644  0.03269  0.46481  1.0000
  C   C1853     1.0  0.85969  0.02488  0.46520  1.0000
  H   H1822     1.0  0.85499  0.03431  0.43740  1.0000
  H   H1823     1.0  0.86720  0.04802  0.43660  1.0000
  H   H1824     1.0  0.86943  0.03229  0.47253  1.0000
  H   H1825     1.0  0.85765  0.01841  0.47321  1.0000
  H   H1826     1.0  0.72961  0.00430  0.41537  1.0000
  C   C1854     1.0  0.75282  0.03090  0.48248  1.0000
  C   C1855     1.0  0.82043  0.04893  0.45646  1.0000
  H   H1827     1.0  0.72377  0.04208  0.49138  1.0000
  C   C1856     1.0  0.76156  0.04977  0.44326  1.0000
  C   C1857     1.0  0.77064  0.03978  0.44196  1.0000
  C   C1858     1.0  0.78242  0.04047  0.43987  1.0000
  C   C1859     1.0  0.78521  0.05107  0.43918  1.0000
  C   C1860     1.0  0.77616  0.06108  0.44046  1.0000
  C   C1861     1.0  0.76435  0.06042  0.44254  1.0000
  H   H1828     1.0  0.76866  0.03144  0.44290  1.0000
  H   H1829     1.0  0.78935  0.03277  0.43893  1.0000
  H   H1830     1.0  0.77826  0.06934  0.43991  1.0000
  H   H1831     1.0  0.75739  0.06818  0.44357  1.0000
  C   C1862     1.0  0.69050  0.01175  0.42429  1.0000
  C   C1863     1.0  0.68502  0.00911  0.43623  1.0000
  C   C1864     1.0  0.68951  0.01130  0.44474  1.0000
  C   C1865     1.0  0.69964  0.01590  0.44136  1.0000
  C   C1866     1.0  0.70523  0.01834  0.42945  1.0000
  C   C1867     1.0  0.70056  0.01645  0.42094  1.0000
  N   N157      1.0  0.89160  0.00391  0.44991  1.0000
  H   H1832     1.0  0.68514  0.00943  0.45393  1.0000
  H   H1833     1.0  0.71299  0.02197  0.42675  1.0000
  H   H1834     1.0  0.70478  0.01860  0.41171  1.0000
  H   H1835     1.0  0.78770  0.99906  0.43731  1.0000
  H   H1836     1.0  0.59707  0.00751  0.29189  1.0000
  C   C1868     1.0  0.55010  0.02501  0.29450  1.0000
  C   C1869     1.0  0.55589  0.02878  0.30079  1.0000
  C   C1870     1.0  0.56568  0.03372  0.29488  1.0000
  H   H1837     1.0  0.95831  0.19077  0.45375  1.0000
  H   H1838     1.0  0.87503  0.99933  0.45675  1.0000
  C   C1871     1.0  0.55400  0.02632  0.28230  1.0000
  H   H1839     1.0  0.55291  0.02780  0.31023  1.0000
  C   C1872     1.0  0.92487  0.17757  0.46546  1.0000
  H   H1840     1.0  0.55493  0.99662  0.28721  1.0000
  H   H1841     1.0  0.54960  0.02344  0.27740  1.0000
  C   C1873     1.0  0.90985  0.01066  0.45415  1.0000
  H   H1842     1.0  0.93095  0.08493  0.45559  1.0000
  C   C1874     1.0  0.73313  0.99486  0.41502  1.0000
  C   C1875     1.0  0.97929  0.27214  0.44697  1.0000
  H   H1843     1.0  0.73569  0.99402  0.40568  1.0000
  H   H1844     1.0  0.73229  0.05064  0.47042  1.0000
  S   S632      1.0  0.92509  0.21577  0.47729  1.0000
  H   H1845     1.0  0.78949  0.99623  0.42306  1.0000
  H   H1846     1.0  0.63919  0.02203  0.48705  1.0000
  C   C1876     1.0  0.83598  0.05084  0.46410  1.0000
  C   C1877     1.0  0.94280  0.07952  0.46739  1.0000
  C   C1878     1.0  0.96776  0.25852  0.46032  1.0000
  H   H1847     1.0  0.98850  0.22176  0.45061  1.0000
  C   C1879     1.0  0.62474  0.00575  0.30146  1.0000
  H   H1848     1.0  0.62559  0.99538  0.47521  1.0000
  H   H1849     1.0  0.54906  0.02265  0.25169  1.0000
  H   H1850     1.0  0.62997  0.00556  0.40938  1.0000
  S   S633      1.0  0.59341  0.02565  0.24638  1.0000
  H   H1851     1.0  0.60017  0.03360  0.30524  1.0000
  H   H1852     1.0  0.72199  0.05244  0.45489  1.0000
  H   H1853     1.0  0.75563  0.03051  0.46423  1.0000
  H   H1854     1.0  0.99240  0.21951  0.47554  1.0000
  C   C1880     1.0  0.83839  0.00617  0.39864  1.0000
  H   H1855     1.0  0.96252  0.15329  0.45122  1.0000
  S   S634      1.0  0.59102  0.99967  0.33462  1.0000
  N   N158      1.0  0.61748  0.99518  0.41951  1.0000
  H   H1856     1.0  0.99538  0.18068  0.48315  1.0000
  C   C1881     1.0  0.98489  0.32239  0.45010  1.0000
  H   H1857     1.0  0.49823  0.04409  0.31409  1.0000
  C   C1882     1.0  0.97803  0.15403  0.48359  1.0000
  H   H1858     1.0  0.99206  0.32395  0.44220  1.0000
  C   C1883     1.0  0.90082  0.99550  0.45360  1.0000
  C   C1884     1.0  0.97522  0.19159  0.45550  1.0000
  H   H1859     1.0  0.55795  0.01254  0.24267  1.0000
  C   C1885     1.0  0.90970  0.26918  0.47654  1.0000
  C   C1886     1.0  0.56535  0.99775  0.26950  1.0000
  C   C1887     1.0  0.98121  0.19477  0.46205  1.0000
  H   H1860     1.0  0.94727  0.19900  0.47123  1.0000
  C   C1888     1.0  0.97754  0.24914  0.45893  1.0000
  C   C1889     1.0  0.56982  0.03464  0.28273  1.0000
  H   H1861     1.0  0.79793  0.01409  0.39824  1.0000
  S   S635      1.0  0.95719  0.28186  0.45792  1.0000
  H   H1862     1.0  0.89844  0.18095  0.48915  1.0000
  C   C1890     1.0  0.97106  0.14740  0.45176  1.0000
  H   H1863     1.0  0.84755  0.01048  0.38054  1.0000
  C   C1891     1.0  0.72414  0.04767  0.47273  1.0000
  C   C1892     1.0  0.65235  0.99782  0.48932  1.0000
  H   H1864     1.0  0.51904  0.01623  0.34398  1.0000
  H   H1865     1.0  0.69760  0.05553  0.45464  1.0000
  H   H1866     1.0  0.98413  0.11833  0.45589  1.0000
  C   C1893     1.0  0.98331  0.12776  0.45431  1.0000
  H   H1867     1.0  0.91047  0.09497  0.47718  1.0000
  Fe  Fe316     1.0  0.96916  0.11292  0.48649  1.0000
  C   C1894     1.0  0.92275  0.09210  0.48813  1.0000
  S   S636      1.0  0.95741  0.10880  0.47748  1.0000
  H   H1868     1.0  0.53050  0.02423  0.32448  1.0000
  H   H1869     1.0  0.75889  0.99866  0.42514  1.0000
  H   H1870     1.0  0.99155  0.28197  0.46149  1.0000
  Fe  Fe317     1.0  0.61249  0.01686  0.24545  1.0000
  N   N159      1.0  0.61940  0.00785  0.31248  1.0000
  H   H1871     1.0  0.56888  0.00431  0.29460  1.0000
  H   H1872     1.0  0.62699  0.99881  0.43011  1.0000
  C   C1895     1.0  0.91014  0.99875  0.45564  1.0000
  C   C1896     1.0  0.91104  0.28648  0.48246  1.0000
  S   S637      1.0  0.50633  0.01894  0.27107  1.0000
  C   C1897     1.0  0.78803  0.04222  0.41074  1.0000
  C   C1898     1.0  0.94722  0.07050  0.47609  1.0000
  H   H1873     1.0  0.90634  0.00501  0.47974  1.0000
  C   C1899     1.0  0.56717  0.99717  0.31322  1.0000
  C   C1900     1.0  0.96867  0.27003  0.45443  1.0000
  H   H1874     1.0  0.92459  0.10078  0.48471  1.0000
  H   H1875     1.0  0.91690  0.01329  0.45597  1.0000
  H   H1876     1.0  0.83690  0.05291  0.44563  1.0000
  H   H1877     1.0  0.89308  0.16156  0.48054  1.0000
  C   C1901     1.0  0.91239  0.07744  0.48801  1.0000
  C   C1902     1.0  0.78331  0.02556  0.40737  1.0000
  H   H1878     1.0  0.63135  0.99774  0.30033  1.0000
  H   H1879     1.0  0.98075  0.20939  0.43290  1.0000
  H   H1880     1.0  0.80308  0.03439  0.47137  1.0000
  H   H1881     1.0  0.98001  0.14580  0.48077  1.0000
  C   C1903     1.0  0.81799  0.04629  0.47709  1.0000
  C   C1904     1.0  0.92625  0.25853  0.46428  1.0000
  C   C1905     1.0  0.96266  0.20123  0.47517  1.0000
  C   C1906     1.0  0.62311  0.99948  0.32279  1.0000
  H   H1882     1.0  0.90776  0.29464  0.47630  1.0000
  C   C1907     1.0  0.80800  0.04575  0.40398  1.0000
  H   H1883     1.0  0.92477  0.06600  0.46160  1.0000
  H   H1884     1.0  0.93020  0.25127  0.45981  1.0000
  H   H1885     1.0  0.50330  0.99954  0.26684  1.0000
  Fe  Fe318     1.0  0.52067  0.02867  0.26649  1.0000
  C   C1908     1.0  0.62263  0.00207  0.40947  1.0000
  N   N160      1.0  0.91628  0.27678  0.47626  1.0000
  C   C1909     1.0  0.93601  0.15803  0.47277  1.0000
  H   H1886     1.0  0.79437  0.00340  0.49098  1.0000
  C   C1910     1.0  0.83403  0.99740  0.40768  1.0000
  H   H1887     1.0  0.98485  0.30094  0.44848  1.0000
  C   C1911     1.0  0.59892  0.00103  0.29966  1.0000
  H   H1888     1.0  0.94020  0.15190  0.47954  1.0000
  H   H1889     1.0  0.82135  0.99962  0.47547  1.0000
  H   H1890     1.0  0.61591  0.99987  0.33084  1.0000
  H   H1891     1.0  0.63091  0.00142  0.32429  1.0000
  H   H1892     1.0  0.91762  0.28805  0.48631  1.0000
  H   H1893     1.0  0.90948  0.25360  0.47132  1.0000
  N   N161      1.0  0.79956  0.03862  0.40534  1.0000
  H   H1894     1.0  0.90067  0.27006  0.48158  1.0000
  H   H1895     1.0  0.73653  0.99854  0.47211  1.0000
  C   C1912     1.0  0.80313  0.02869  0.40081  1.0000
  C   C1913     1.0  0.98702  0.15814  0.48521  1.0000
  Fe  Fe319     1.0  0.59096  0.00725  0.25353  1.0000
  Fe  Fe320     1.0  0.60778  0.00110  0.26989  1.0000
  C   C1914     1.0  0.91461  0.25987  0.47067  1.0000
  S   S638      1.0  0.65310  0.00211  0.41918  1.0000
  N   N162      1.0  0.64643  0.00592  0.48141  1.0000
  H   H1896     1.0  0.77062  0.03857  0.41626  1.0000
  H   H1897     1.0  0.92263  0.04898  0.48354  1.0000
  H   H1898     1.0  0.93274  0.28189  0.46930  1.0000
  H   H1899     1.0  0.97693  0.32233  0.44734  1.0000
  Fe  Fe321     1.0  0.94729  0.12740  0.47755  1.0000
  C   C1915     1.0  0.96297  0.19325  0.45877  1.0000
  S   S639      1.0  0.94944  0.26237  0.48876  1.0000
  C   C1916     1.0  0.98829  0.25133  0.45184  1.0000
  C   C1917     1.0  0.91415  0.99870  0.48177  1.0000
  S   S640      1.0  0.51333  0.00770  0.29684  1.0000
  C   C1918     1.0  0.96644  0.16052  0.48587  1.0000
  C   C1919     1.0  0.61089  0.01787  0.31387  1.0000
  Fe  Fe322     1.0  0.59311  0.02561  0.26494  1.0000
  H   H1900     1.0  0.93104  0.04425  0.47012  1.0000
  H   H1901     1.0  0.63030  0.01842  0.47934  1.0000
  H   H1902     1.0  0.81719  0.04902  0.44898  1.0000
  C   C1920     1.0  0.61881  0.00438  0.39902  1.0000
  C   C1921     1.0  0.78618  0.01706  0.47821  1.0000
  C   C1922     1.0  0.93156  0.04733  0.47776  1.0000
  S   S641      1.0  0.61254  0.01871  0.26342  1.0000
  C   C1923     1.0  0.59364  0.00366  0.31079  1.0000
  C   C1924     1.0  0.98907  0.21201  0.42895  1.0000
  H   H1903     1.0  0.56330  0.00727  0.26737  1.0000
  H   H1904     1.0  0.70839  0.04317  0.44957  1.0000
  S   S642      1.0  0.98296  0.18559  0.44318  1.0000
  H   H1905     1.0  0.87727  0.00712  0.44160  1.0000
  C   C1925     1.0  0.71829  0.04864  0.46395  1.0000
  H   H1906     1.0  0.89989  0.02846  0.44951  1.0000
  H   H1907     1.0  0.93739  0.04005  0.48272  1.0000
  C   C1926     1.0  0.79507  0.02198  0.40180  1.0000
  C   C1927     1.0  0.93143  0.06705  0.46538  1.0000
  H   H1908     1.0  0.66253  0.99723  0.45632  1.0000
  H   H1909     1.0  0.83256  0.04793  0.48299  1.0000
  H   H1910     1.0  0.84468  0.05242  0.46274  1.0000
  C   C1928     1.0  0.79266  0.00582  0.48227  1.0000
  C   C1929     1.0  0.51442  0.02246  0.33751  1.0000
  C   C1930     1.0  0.83161  0.05114  0.45451  1.0000
  H   H1911     1.0  0.50025  0.01202  0.35532  1.0000
  H   H1912     1.0  0.77693  0.02051  0.40813  1.0000
  H   H1913     1.0  0.94208  0.99717  0.48340  1.0000
  C   C1931     1.0  0.92422  0.00256  0.48116  1.0000
  C   C1932     1.0  0.60726  0.02591  0.30409  1.0000
  H   H1914     1.0  0.76058  0.00870  0.46787  1.0000
  H   H1915     1.0  0.75130  0.04040  0.48089  1.0000
  C   C1933     1.0  0.77975  0.03573  0.41190  1.0000
  H   H1916     1.0  0.81718  0.04036  0.40303  1.0000
  C   C1934     1.0  0.95671  0.19797  0.46866  1.0000
  C   C1935     1.0  0.93084  0.16972  0.47390  1.0000
  H   H1917     1.0  0.94176  0.26579  0.45857  1.0000
  C   C1936     1.0  0.75813  0.00654  0.48664  1.0000
  H   H1918     1.0  0.79814  0.04816  0.46181  1.0000
  C   C1937     1.0  0.89129  0.01559  0.44839  1.0000
  H   H1919     1.0  0.80614  0.04954  0.41187  1.0000
  Fe  Fe323     1.0  0.95471  0.27878  0.47735  1.0000
  H   H1920     1.0  0.78519  0.05012  0.41430  1.0000
  H   H1921     1.0  0.69532  0.04072  0.46022  1.0000
  C   C1938     1.0  0.51513  0.03476  0.31801  1.0000
  H   H1922     1.0  0.97688  0.24030  0.46371  1.0000
  C   C1939     1.0  0.65019  0.00594  0.46964  1.0000
  S   S643      1.0  0.52552  0.03941  0.24826  1.0000
  H   H1923     1.0  0.77036  0.00822  0.38756  1.0000
  N   N163      1.0  0.50238  0.02575  0.34004  1.0000
  S   S644      1.0  0.80611  0.99413  0.45254  1.0000
  Fe  Fe324     1.0  0.51912  0.00357  0.27891  1.0000
  C   C1940     1.0  0.98083  0.15186  0.45068  1.0000
  C   C1941     1.0  0.77069  0.00184  0.39578  1.0000
  H   H1924     1.0  0.56101  0.00496  0.31572  1.0000
  C   C1942     1.0  0.71938  0.04289  0.48442  1.0000
  H   H1925     1.0  0.91995  0.17980  0.44911  1.0000
  N   N164      1.0  0.81372  0.04670  0.46764  1.0000
  C   C1943     1.0  0.80217  0.04405  0.46959  1.0000
  H   H1926     1.0  0.98006  0.28105  0.44254  1.0000
  C   C1944     1.0  0.92980  0.16219  0.45447  1.0000
  H   H1927     1.0  0.79588  0.04740  0.47722  1.0000
  C   C1945     1.0  0.70534  0.99545  0.48173  1.0000
  S   S645      1.0  0.94077  0.13947  0.46191  1.0000
  N   N165      1.0  0.98450  0.16836  0.48908  1.0000
  Fe  Fe325     1.0  0.91889  0.19895  0.48157  1.0000
  N   N166      1.0  0.93590  0.05821  0.47384  1.0000
  C   C1946     1.0  0.52096  0.02695  0.32650  1.0000
  H   H1928     1.0  0.56722  0.03155  0.26706  1.0000
  H   H1929     1.0  0.90800  0.15801  0.47200  1.0000
  C   C1947     1.0  0.93533  0.15422  0.46312  1.0000
  C   C1948     1.0  0.75813  0.01310  0.47516  1.0000
  H   H1930     1.0  0.99219  0.23243  0.48732  1.0000
  C   C1949     1.0  0.91474  0.08877  0.48387  1.0000
  H   H1931     1.0  0.99417  0.31929  0.46859  1.0000
  H   H1932     1.0  0.83233  0.99435  0.48414  1.0000
  S   S646      1.0  0.92479  0.01754  0.47676  1.0000
  S   S647      1.0  0.89044  0.02799  0.48011  1.0000
  H   H1933     1.0  0.82923  0.99933  0.41615  1.0000
  S   S648      1.0  0.96010  0.13193  0.48466  1.0000
  H   H1934     1.0  0.71322  0.99569  0.40940  1.0000
  H   H1935     1.0  0.95622  0.31107  0.48219  1.0000
  H   H1936     1.0  0.99469  0.20001  0.41715  1.0000
  C   C1950     1.0  0.97315  0.17469  0.49142  1.0000
  C   C1951     1.0  0.79755  0.99788  0.47478  1.0000
  C   C1952     1.0  0.75536  0.02535  0.47311  1.0000
  C   C1953     1.0  0.97491  0.19973  0.47181  1.0000
  C   C1954     1.0  0.50261  0.04233  0.24689  1.0000
  S   S649      1.0  0.51513  0.03518  0.28327  1.0000
  H   H1937     1.0  0.94513  0.08799  0.46523  1.0000
  H   H1938     1.0  0.96486  0.13169  0.45428  1.0000
  H   H1939     1.0  0.76054  0.99703  0.48811  1.0000
  C   C1955     1.0  0.82917  0.04834  0.47546  1.0000
  C   C1956     1.0  0.59638  0.99560  0.32093  1.0000
  H   H1940     1.0  0.91490  0.14493  0.48900  1.0000
  C   C1957     1.0  0.98826  0.30090  0.45586  1.0000
  C   C1958     1.0  0.93427  0.99428  0.48385  1.0000
  H   H1941     1.0  0.60649  0.01942  0.32262  1.0000
  H   H1942     1.0  0.67719  0.00565  0.43885  1.0000
  C   C1959     1.0  0.50286  0.03816  0.32070  1.0000
  H   H1943     1.0  0.95292  0.07198  0.48077  1.0000
  C   C1960     1.0  0.84423  0.00370  0.38757  1.0000
  H   H1944     1.0  0.99600  0.15305  0.48343  1.0000
  N   N167      1.0  0.70808  0.04480  0.46670  1.0000
  C   C1961     1.0  0.96398  0.17092  0.48978  1.0000
  S   S650      1.0  0.94250  0.29095  0.48874  1.0000
  H   H1945     1.0  0.62322  0.00949  0.39099  1.0000
  C   C1962     1.0  0.98418  0.22483  0.44301  1.0000
  S   S651      1.0  0.90300  0.07350  0.48152  1.0000
  H   H1946     1.0  0.97955  0.20216  0.47689  1.0000
  H   H1947     1.0  0.90090  0.17302  0.47219  1.0000
  S   S652      1.0  0.98889  0.10932  0.47978  1.0000
  C   C1963     1.0  0.90179  0.16393  0.47772  1.0000
  S   S653      1.0  0.97032  0.27618  0.48486  1.0000
  H   H1948     1.0  0.69513  0.03729  0.48035  1.0000
  H   H1949     1.0  0.52898  0.99569  0.31771  1.0000
  C   C1964     1.0  0.65988  0.99744  0.46560  1.0000
  C   C1965     1.0  0.70329  0.04022  0.47813  1.0000
  H   H1950     1.0  0.60715  0.00066  0.39065  1.0000
  H   H1951     1.0  0.97998  0.16129  0.44917  1.0000
  C   C1966     1.0  0.70884  0.03922  0.48715  1.0000
  C   C1967     1.0  0.60983  0.99942  0.39883  1.0000
  H   H1952     1.0  0.60949  0.02972  0.28523  1.0000
  Fe  Fe326     1.0  0.67244  0.99719  0.41894  1.0000
  C   C1968     1.0  0.57160  0.99682  0.30135  1.0000
  H   H1953     1.0  0.52220  0.01474  0.24718  1.0000
  H   H1954     1.0  0.64944  0.99798  0.49859  1.0000
  H   H1955     1.0  0.78366  0.05562  0.52968  1.0000
  C   C1969     1.0  0.95996  0.22306  0.50707  1.0000
  H   H1956     1.0  0.72821  0.99413  0.49342  1.0000
  H   H1957     1.0  0.82207  0.03904  0.54613  1.0000
  C   C1970     1.0  0.65165  0.01630  0.54070  1.0000
  C   C1971     1.0  0.50692  0.99957  0.64506  1.0000
  N   N168      1.0  0.51419  0.03969  0.70784  1.0000
  S   S654      1.0  0.57836  0.06673  0.73160  1.0000
  C   C1972     1.0  0.75280  0.02407  0.49386  1.0000
  H   H1958     1.0  0.80477  0.05490  0.52714  1.0000
  C   C1973     1.0  0.88169  0.99452  0.51049  1.0000
  H   H1959     1.0  0.64658  0.02425  0.53609  1.0000
  C   C1974     1.0  0.93420  0.24210  0.52350  1.0000
  N   N169      1.0  0.80782  0.03856  0.53950  1.0000
  C   C1975     1.0  0.51041  0.03186  0.71908  1.0000
  S   S655      1.0  0.63715  0.01249  0.51654  1.0000
  H   H1960     1.0  0.94644  0.13074  0.54012  1.0000
  H   H1961     1.0  0.58656  0.99637  0.66312  1.0000
  C   C1976     1.0  0.83846  0.02670  0.51247  1.0000
  C   C1977     1.0  0.78406  0.03929  0.54257  1.0000
  S   S656      1.0  0.91226  0.18425  0.52569  1.0000
  H   H1962     1.0  0.98572  0.13642  0.51175  1.0000
  H   H1963     1.0  0.54877  0.99587  0.69184  1.0000
  H   H1964     1.0  0.90541  0.17935  0.50699  1.0000
  C   C1978     1.0  0.84063  0.04672  0.50395  1.0000
  Fe  Fe327     1.0  0.56289  0.03978  0.69067  1.0000
  S   S657      1.0  0.56215  0.02535  0.70684  1.0000
  S   S658      1.0  0.56005  0.05881  0.69114  1.0000
  Fe  Fe328     1.0  0.56848  0.02294  0.67450  1.0000
  S   S659      1.0  0.56817  0.00709  0.68922  1.0000
  S   S660      1.0  0.57357  0.02012  0.65610  1.0000
  Fe  Fe329     1.0  0.55219  0.01842  0.69840  1.0000
  S   S661      1.0  0.53763  0.01055  0.71109  1.0000
  Fe  Fe330     1.0  0.57814  0.01537  0.69641  1.0000
  S   S662      1.0  0.59358  0.00524  0.70432  1.0000
  S   S663      1.0  0.55145  0.03370  0.68292  1.0000
  S   S664      1.0  0.57992  0.03035  0.68086  1.0000
  C   C1979     1.0  0.57258  0.00045  0.73070  1.0000
  C   C1980     1.0  0.56267  0.99807  0.72893  1.0000
  C   C1981     1.0  0.51895  0.01383  0.68717  1.0000
  Fe  Fe331     1.0  0.70140  0.01205  0.51305  1.0000
  S   S665      1.0  0.72908  0.03212  0.51938  1.0000
  H   H1965     1.0  0.54469  0.04752  0.72549  1.0000
  C   C1982     1.0  0.98900  0.29703  0.53720  1.0000
  Fe  Fe332     1.0  0.98295  0.17252  0.52698  1.0000
  S   S666      1.0  0.97400  0.19020  0.51796  1.0000
  S   S667      1.0  0.98647  0.15615  0.51994  1.0000
  Fe  Fe333     1.0  0.98847  0.18288  0.54476  1.0000
  S   S668      1.0  0.97972  0.20119  0.53727  1.0000
  H   H1966     1.0  0.96511  0.12957  0.55361  1.0000
  Fe  Fe334     1.0  0.96583  0.19286  0.53645  1.0000
  S   S669      1.0  0.94705  0.20064  0.54402  1.0000
  H   H1967     1.0  0.91731  0.23811  0.53261  1.0000
  H   H1968     1.0  0.96928  0.12975  0.50917  1.0000
  S   S670      1.0  0.97377  0.17471  0.54540  1.0000
  C   C1983     1.0  0.94528  0.23804  0.51668  1.0000
  Fe  Fe335     1.0  0.78914  0.01729  0.52649  1.0000
  S   S671      1.0  0.77375  0.01602  0.54191  1.0000
  Fe  Fe336     1.0  0.80898  0.02886  0.51076  1.0000
  C   C1984     1.0  0.93398  0.18558  0.52631  1.0000
  H   H1969     1.0  0.99446  0.27013  0.51165  1.0000
  C   C1985     1.0  0.99010  0.29120  0.51970  1.0000
  S   S672      1.0  0.80858  0.01324  0.52592  1.0000
  C   C1986     1.0  0.51080  0.00131  0.70524  1.0000
  H   H1970     1.0  0.98583  0.29050  0.51325  1.0000
  S   S673      1.0  0.94405  0.13924  0.51403  1.0000
  H   H1971     1.0  0.96873  0.30867  0.52439  1.0000
  H   H1972     1.0  0.59512  0.02911  0.69846  1.0000
  H   H1973     1.0  0.55607  0.00529  0.72544  1.0000
  C   C1987     1.0  0.65183  0.01410  0.51223  1.0000
  C   C1988     1.0  0.65328  0.99634  0.55203  1.0000
  N   N170      1.0  0.75522  0.01206  0.49584  1.0000
  H   H1974     1.0  0.51901  0.01807  0.67804  1.0000
  N   N171      1.0  0.94822  0.22714  0.51410  1.0000
  H   H1975     1.0  0.66759  0.02272  0.53568  1.0000
  H   H1976     1.0  0.55649  0.01110  0.62867  1.0000
  H   H1977     1.0  0.99155  0.22875  0.51855  1.0000
  C   C1989     1.0  0.93023  0.15722  0.54563  1.0000
  H   H1978     1.0  0.51798  0.02692  0.72323  1.0000
  Fe  Fe337     1.0  0.63562  0.99378  0.52440  1.0000
  S   S674      1.0  0.81852  0.04319  0.50774  1.0000
  H   H1979     1.0  0.73487  0.01355  0.53952  1.0000
  C   C1990     1.0  0.96460  0.13548  0.54487  1.0000
  C   C1991     1.0  0.99574  0.20390  0.55709  1.0000
  H   H1980     1.0  0.96379  0.22269  0.57960  1.0000
  C   C1992     1.0  0.89766  0.25557  0.50476  1.0000
  C   C1993     1.0  0.96974  0.23819  0.54554  1.0000
  H   H1981     1.0  0.60125  0.06193  0.71104  1.0000
  H   H1982     1.0  0.96708  0.29369  0.52842  1.0000
  H   H1983     1.0  0.96165  0.22949  0.49859  1.0000
  H   H1984     1.0  0.92289  0.21818  0.52815  1.0000
  H   H1985     1.0  0.59500  0.06569  0.69222  1.0000
  H   H1986     1.0  0.97113  0.18276  0.49455  1.0000
  H   H1987     1.0  0.98345  0.10546  0.50532  1.0000
  S   S675      1.0  0.97500  0.24381  0.50451  1.0000
  S   S676      1.0  0.98697  0.22654  0.57895  1.0000
  S   S677      1.0  0.78942  0.03393  0.51270  1.0000
  C   C1994     1.0  0.80095  0.04790  0.53339  1.0000
  C   C1995     1.0  0.60144  0.02238  0.71899  1.0000
  C   C1996     1.0  0.82036  0.03804  0.53797  1.0000
  H   H1988     1.0  0.60574  0.02149  0.72626  1.0000
  C   C1997     1.0  0.51883  0.00279  0.71074  1.0000
  C   C1998     1.0  0.99201  0.23781  0.51731  1.0000
  C   C1999     1.0  0.89798  0.00324  0.50929  1.0000
  C   C2000     1.0  0.59675  0.05681  0.69747  1.0000
  S   S678      1.0  0.98902  0.25701  0.55552  1.0000
  S   S679      1.0  0.91977  0.27218  0.50982  1.0000
  S   S680      1.0  0.93100  0.18883  0.49364  1.0000
  H   H1989     1.0  0.59182  0.04916  0.68599  1.0000
  N   N172      1.0  0.95271  0.14295  0.54522  1.0000
  Fe  Fe338     1.0  0.94873  0.12628  0.50223  1.0000
  H   H1990     1.0  0.97759  0.31610  0.50246  1.0000
  H   H1991     1.0  0.54782  0.06688  0.72432  1.0000
  Fe  Fe339     1.0  0.95775  0.28697  0.49742  1.0000
  H   H1992     1.0  0.96633  0.30097  0.53970  1.0000
  C   C2001     1.0  0.52749  0.05178  0.69539  1.0000
  C   C2002     1.0  0.52025  0.05603  0.68731  1.0000
  C   C2003     1.0  0.85032  0.02333  0.51331  1.0000
  C   C2004     1.0  0.66343  0.01543  0.54043  1.0000
  C   C2005     1.0  0.55313  0.03190  0.73623  1.0000
  S   S681      1.0  0.69976  0.01976  0.52845  1.0000
  C   C2006     1.0  0.98466  0.24688  0.51095  1.0000
  H   H1993     1.0  0.78733  0.02265  0.55473  1.0000
  N   N173      1.0  0.96202  0.22409  0.56210  1.0000
  H   H1994     1.0  0.97176  0.23581  0.56312  1.0000
  H   H1995     1.0  0.97475  0.24501  0.54187  1.0000
  S   S682      1.0  0.68954  0.01943  0.50025  1.0000
  H   H1996     1.0  0.52259  0.06245  0.67932  1.0000
  H   H1997     1.0  0.82344  0.04505  0.53056  1.0000
  H   H1998     1.0  0.99626  0.10082  0.51946  1.0000
  Fe  Fe340     1.0  0.96368  0.26102  0.49766  1.0000
  H   H1999     1.0  0.87602  0.00328  0.50957  1.0000
  C   C2007     1.0  0.59495  0.04754  0.69398  1.0000
  H   H2000     1.0  0.96701  0.13007  0.53812  1.0000
  C   C2008     1.0  0.52437  0.04346  0.70561  1.0000
  H   H2001     1.0  0.74879  0.04225  0.51543  1.0000
  C   C2009     1.0  0.95001  0.15360  0.54832  1.0000
  S   S683      1.0  0.98750  0.28508  0.56625  1.0000
  H   H2002     1.0  0.77485  0.03938  0.54356  1.0000
  H   H2003     1.0  0.53293  0.06909  0.72338  1.0000
  H   H2004     1.0  0.92239  0.14323  0.50657  1.0000
  S   S684      1.0  0.52004  0.04782  0.73335  1.0000
  H   H2005     1.0  0.93011  0.06672  0.50777  1.0000
  C   C2010     1.0  0.99600  0.29319  0.56909  1.0000
  H   H2006     1.0  0.96551  0.20901  0.57554  1.0000
  C   C2011     1.0  0.66072  0.00593  0.51738  1.0000
  C   C2012     1.0  0.66990  0.00495  0.54606  1.0000
  C   C2013     1.0  0.53242  0.03695  0.73626  1.0000
  H   H2007     1.0  0.92157  0.16295  0.54543  1.0000
  C   C2014     1.0  0.50995  0.05203  0.68959  1.0000
  C   C2015     1.0  0.96051  0.21832  0.57460  1.0000
  S   S685      1.0  0.95211  0.27149  0.51084  1.0000
  H   H2008     1.0  0.98487  0.30995  0.56321  1.0000
  C   C2016     1.0  0.91441  0.26192  0.50611  1.0000
  H   H2009     1.0  0.96683  0.22198  0.51194  1.0000
  Fe  Fe341     1.0  0.98887  0.19650  0.51987  1.0000
  H   H2010     1.0  0.51890  0.99836  0.71980  1.0000
  S   S686      1.0  0.87220  0.02737  0.51045  1.0000
  C   C2017     1.0  0.99394  0.21412  0.56129  1.0000
  H   H2011     1.0  0.95526  0.22255  0.53742  1.0000
  Fe  Fe342     1.0  0.70460  0.00085  0.53768  1.0000
  H   H2012     1.0  0.57370  0.00941  0.72849  1.0000
  H   H2013     1.0  0.63744  0.00727  0.54653  1.0000
  H   H2014     1.0  0.89630  0.27008  0.51244  1.0000
  C   C2018     1.0  0.59671  0.03623  0.70113  1.0000
  S   S687      1.0  0.89937  0.23807  0.49385  1.0000
  H   H2015     1.0  0.83307  0.02025  0.51554  1.0000
  C   C2019     1.0  0.95880  0.22562  0.54301  1.0000
  C   C2020     1.0  0.99037  0.19301  0.57702  1.0000
  C   C2021     1.0  0.98816  0.20329  0.58120  1.0000
  C   C2022     1.0  0.99003  0.21384  0.57337  1.0000
  Fe  Fe343     1.0  0.72353  0.99377  0.51723  1.0000
  C   C2023     1.0  0.91742  0.24498  0.49765  1.0000
  C   C2024     1.0  0.91450  0.16123  0.50785  1.0000
  H   H2016     1.0  0.98511  0.20303  0.59056  1.0000
  C   C2025     1.0  0.94430  0.13912  0.54272  1.0000
  H   H2017     1.0  0.60424  0.04185  0.72336  1.0000
  H   H2018     1.0  0.67909  0.00132  0.51806  1.0000
  C   C2026     1.0  0.97334  0.31917  0.49509  1.0000
  H   H2019     1.0  0.75465  0.99594  0.50868  1.0000
  Fe  Fe344     1.0  0.99634  0.24084  0.56801  1.0000
  H   H2020     1.0  0.51838  0.06837  0.74087  1.0000
  C   C2027     1.0  0.93765  0.19458  0.54004  1.0000
  C   C2028     1.0  0.94177  0.18916  0.53042  1.0000
  C   C2029     1.0  0.60029  0.05469  0.70800  1.0000
  C   C2030     1.0  0.92213  0.18694  0.53212  1.0000
  C   C2031     1.0  0.91808  0.19178  0.54215  1.0000
  C   C2032     1.0  0.92583  0.19575  0.54603  1.0000
  H   H2021     1.0  0.95083  0.18825  0.52574  1.0000
  H   H2022     1.0  0.58573  0.99820  0.64344  1.0000
  H   H2023     1.0  0.90885  0.19305  0.54650  1.0000
  H   H2024     1.0  0.92261  0.19997  0.55347  1.0000
  C   C2033     1.0  0.97470  0.15223  0.51723  1.0000
  C   C2034     1.0  0.97685  0.14178  0.51336  1.0000
  C   C2035     1.0  0.96755  0.13800  0.51185  1.0000
  C   C2036     1.0  0.95601  0.14463  0.51428  1.0000
  C   C2037     1.0  0.95391  0.15530  0.51776  1.0000
  C   C2038     1.0  0.96323  0.15909  0.51926  1.0000
  H   H2025     1.0  0.63088  0.01083  0.49417  1.0000
  H   H2026     1.0  0.85791  0.04975  0.50142  1.0000
  H   H2027     1.0  0.94501  0.16051  0.51955  1.0000
  H   H2028     1.0  0.96149  0.16721  0.52217  1.0000
  C   C2039     1.0  0.74082  0.02809  0.52660  1.0000
  C   C2040     1.0  0.74959  0.03455  0.52252  1.0000
  C   C2041     1.0  0.75954  0.03098  0.52741  1.0000
  C   C2042     1.0  0.76078  0.02098  0.53649  1.0000
  C   C2043     1.0  0.75176  0.01478  0.54095  1.0000
  C   C2044     1.0  0.74181  0.01831  0.53597  1.0000
  C   C2045     1.0  0.85741  0.03161  0.50922  1.0000
  H   H2029     1.0  0.76616  0.03610  0.52422  1.0000
  C   C2046     1.0  0.92843  0.08414  0.49669  1.0000
  H   H2030     1.0  0.93709  0.18202  0.51844  1.0000
  H   H2031     1.0  0.49894  0.04091  0.70175  1.0000
  C   C2047     1.0  0.78899  0.04838  0.53479  1.0000
  H   H2032     1.0  0.95666  0.15664  0.55035  1.0000
  Fe  Fe345     1.0  0.93825  0.27417  0.50086  1.0000
  S   S688      1.0  0.79099  0.00593  0.51410  1.0000
  C   C2048     1.0  0.98534  0.25853  0.50927  1.0000
  C   C2049     1.0  0.79108  0.02988  0.54886  1.0000
  H   H2033     1.0  0.95105  0.21855  0.57868  1.0000
  S   S689      1.0  0.72061  0.01193  0.50601  1.0000
  H   H2034     1.0  0.50478  0.01311  0.65983  1.0000
  C   C2050     1.0  0.67232  0.00756  0.51393  1.0000
  C   C2051     1.0  0.54505  0.00997  0.64593  1.0000
  C   C2052     1.0  0.54326  0.01169  0.65732  1.0000
  C   C2053     1.0  0.55192  0.01502  0.66049  1.0000
  C   C2054     1.0  0.56221  0.01691  0.65215  1.0000
  C   C2055     1.0  0.56376  0.01566  0.64065  1.0000
  C   C2056     1.0  0.55524  0.01208  0.63757  1.0000
  H   H2035     1.0  0.53539  0.01002  0.66379  1.0000
  H   H2036     1.0  0.55067  0.01600  0.66939  1.0000
  H   H2037     1.0  0.57162  0.01732  0.63413  1.0000
  H   H2038     1.0  0.93669  0.16942  0.55081  1.0000
  H   H2039     1.0  0.92333  0.23804  0.49345  1.0000
  H   H2040     1.0  0.93136  0.25154  0.49937  1.0000
  C   C2057     1.0  0.64652  0.00672  0.54653  1.0000
  C   C2058     1.0  0.53884  0.07236  0.72666  1.0000
  H   H2041     1.0  0.92655  0.14341  0.54015  1.0000
  H   H2042     1.0  0.95143  0.24376  0.51331  1.0000
  H   H2043     1.0  0.82574  0.02949  0.53583  1.0000
  H   H2044     1.0  0.75255  0.00716  0.54811  1.0000
  Fe  Fe346     1.0  0.71935  0.01799  0.52223  1.0000
  N   N174      1.0  0.50079  0.01099  0.64459  1.0000
  C   C2059     1.0  0.52705  0.00962  0.70438  1.0000
  C   C2060     1.0  0.52703  0.01525  0.69265  1.0000
  S   S690      1.0  0.56815  0.99670  0.58840  1.0000
  H   H2045     1.0  0.53331  0.02059  0.68773  1.0000
  H   H2046     1.0  0.51361  0.99589  0.65021  1.0000
  H   H2047     1.0  0.80847  0.02218  0.55197  1.0000
  C   C2061     1.0  0.65464  0.02380  0.50350  1.0000
  H   H2048     1.0  0.99340  0.32501  0.59157  1.0000
  N   N175      1.0  0.98360  0.29592  0.52919  1.0000
  H   H2049     1.0  0.85402  0.01429  0.51706  1.0000
  H   H2050     1.0  0.50635  0.02531  0.71780  1.0000
  H   H2051     1.0  0.96623  0.23857  0.52899  1.0000
  H   H2052     1.0  0.60694  0.01575  0.71373  1.0000
  H   H2053     1.0  0.53549  0.05487  0.69376  1.0000
  C   C2062     1.0  0.57312  0.06474  0.72040  1.0000
  C   C2063     1.0  0.57221  0.05353  0.72046  1.0000
  C   C2064     1.0  0.56834  0.05169  0.71142  1.0000
  C   C2065     1.0  0.56509  0.06109  0.70240  1.0000
  C   C2066     1.0  0.56591  0.07239  0.70237  1.0000
  C   C2067     1.0  0.57005  0.07420  0.71131  1.0000
  H   H2054     1.0  0.57477  0.04620  0.72733  1.0000
  H   H2055     1.0  0.56791  0.04297  0.71148  1.0000
  H   H2056     1.0  0.56346  0.07971  0.69538  1.0000
  H   H2057     1.0  0.57080  0.08291  0.71122  1.0000
  S   S691      1.0  0.96539  0.29885  0.50312  1.0000
  H   H2058     1.0  0.98585  0.32562  0.60664  1.0000
  S   S692      1.0  0.90183  0.03869  0.49567  1.0000
  C   C2068     1.0  0.92584  0.07291  0.50107  1.0000
  C   C2069     1.0  0.54356  0.03945  0.73181  1.0000
  C   C2070     1.0  0.94032  0.22005  0.51817  1.0000
  H   H2059     1.0  0.56162  0.03412  0.73339  1.0000
  H   H2060     1.0  0.97132  0.14089  0.54235  1.0000
  H   H2061     1.0  0.95287  0.21324  0.55854  1.0000
  H   H2062     1.0  0.59264  0.02025  0.72290  1.0000
  H   H2063     1.0  0.89449  0.00666  0.51751  1.0000
  C   C2071     1.0  0.96807  0.23289  0.55753  1.0000
  N   N176      1.0  0.60015  0.03423  0.71147  1.0000
  C   C2072     1.0  0.92606  0.23495  0.52760  1.0000
  C   C2073     1.0  0.93875  0.16088  0.54857  1.0000
  S   S693      1.0  0.72399  0.99977  0.53283  1.0000
  Fe  Fe347     1.0  0.81043  0.00351  0.51195  1.0000
  H   H2064     1.0  0.99164  0.17551  0.49895  1.0000
  H   H2065     1.0  0.55589  0.00113  0.56692  1.0000
  S   S694      1.0  0.53509  0.00415  0.64250  1.0000
  C   C2074     1.0  0.91790  0.06955  0.49674  1.0000
  C   C2075     1.0  0.90757  0.17180  0.50303  1.0000
  C   C2076     1.0  0.99279  0.10499  0.50210  1.0000
  H   H2066     1.0  0.90777  0.00117  0.50733  1.0000
  C   C2077     1.0  0.83357  0.03845  0.50793  1.0000
  H   H2067     1.0  0.83687  0.05584  0.50050  1.0000
  H   H2068     1.0  0.88822  0.25677  0.50614  1.0000
  H   H2069     1.0  0.94261  0.21143  0.51609  1.0000
  C   C2078     1.0  0.80302  0.02965  0.54721  1.0000
  C   C2079     1.0  0.95748  0.22038  0.55499  1.0000
  C   C2080     1.0  0.93299  0.14625  0.54273  1.0000
  H   H2070     1.0  0.91607  0.06087  0.50015  1.0000
  C   C2081     1.0  0.66627  0.02524  0.49982  1.0000
  C   C2082     1.0  0.60188  0.04330  0.71499  1.0000
  H   H2071     1.0  0.53884  0.08164  0.72207  1.0000
  C   C2083     1.0  0.97081  0.30006  0.53052  1.0000
  S   S695      1.0  0.93505  0.12301  0.49497  1.0000
  H   H2072     1.0  0.93178  0.25090  0.52524  1.0000
  H   H2073     1.0  0.97963  0.26558  0.50454  1.0000
  H   H2074     1.0  0.53011  0.04011  0.71179  1.0000
  C   C2084     1.0  0.85256  0.04328  0.50443  1.0000
  C   C2085     1.0  0.91704  0.15149  0.50284  1.0000
  C   C2086     1.0  0.96500  0.23455  0.53828  1.0000
  H   H2075     1.0  0.70498  0.03559  0.49622  1.0000
  H   H2076     1.0  0.76349  0.00504  0.51028  1.0000
  C   C2087     1.0  0.92915  0.22383  0.52499  1.0000
  H   H2077     1.0  0.91790  0.16062  0.51544  1.0000
  H   H2078     1.0  0.98906  0.18485  0.58315  1.0000
  H   H2079     1.0  0.50466  0.99575  0.71003  1.0000
  C   C2088     1.0  0.67511  0.01721  0.50510  1.0000
  S   S696      1.0  0.95867  0.10736  0.50475  1.0000
  H   H2080     1.0  0.74758  0.00904  0.51417  1.0000
  S   S697      1.0  0.81201  0.01889  0.49675  1.0000
  H   H2081     1.0  0.60031  0.99382  0.55346  1.0000
  C   C2089     1.0  0.99401  0.19331  0.56494  1.0000
  H   H2082     1.0  0.65860  0.99856  0.52433  1.0000
  H   H2083     1.0  0.98389  0.30088  0.54468  1.0000
  Fe  Fe348     1.0  0.79235  0.02228  0.50031  1.0000
  H   H2084     1.0  0.67906  0.00431  0.54576  1.0000
  H   H2085     1.0  0.58511  0.00446  0.56784  1.0000
  H   H2086     1.0  0.89521  0.01039  0.50194  1.0000
  S   S698      1.0  0.50211  0.00361  0.68610  1.0000
  S   S699      1.0  0.93923  0.08757  0.50175  1.0000
  Fe  Fe349     1.0  0.88392  0.03709  0.49525  1.0000
  C   C2090     1.0  0.58687  0.99496  0.56947  1.0000
  C   C2091     1.0  0.51104  0.00665  0.69339  1.0000
  C   C2092     1.0  0.50703  0.04384  0.69998  1.0000
  C   C2093     1.0  0.99258  0.30552  0.56680  1.0000
  S   S700      1.0  0.90349  0.20432  0.49593  1.0000
  Fe  Fe350     1.0  0.91620  0.19547  0.50765  1.0000
  C   C2094     1.0  0.75529  0.00512  0.50784  1.0000
  H   H2087     1.0  0.75109  0.02842  0.50106  1.0000
  N   N177      1.0  0.66480  0.99560  0.55181  1.0000
  H   H2088     1.0  0.57220  0.99730  0.54983  1.0000
  H   H2089     1.0  0.50519  0.99887  0.59626  1.0000
  N   N178      1.0  0.53527  0.07140  0.73943  1.0000
  H   H2090     1.0  0.50394  0.03718  0.72522  1.0000
  S   S701      1.0  0.92238  0.21171  0.50588  1.0000
  H   H2091     1.0  0.51164  0.02130  0.64595  1.0000
  Fe  Fe351     1.0  0.94605  0.10453  0.49560  1.0000
  H   H2092     1.0  0.96091  0.21447  0.50491  1.0000
  H   H2093     1.0  0.50412  0.05538  0.68348  1.0000
  C   C2095     1.0  0.90223  0.26311  0.50828  1.0000
  C   C2096     1.0  0.99368  0.26115  0.51343  1.0000
  C   C2097     1.0  0.92199  0.25277  0.50086  1.0000
  C   C2098     1.0  0.50346  0.01824  0.65096  1.0000
  H   H2094     1.0  0.55139  0.07449  0.74046  1.0000
  C   C2099     1.0  0.90524  0.24654  0.49937  1.0000
  H   H2095     1.0  0.99635  0.32169  0.56740  1.0000
  H   H2096     1.0  0.64783  0.03020  0.49955  1.0000
  H   H2097     1.0  0.99540  0.22224  0.55517  1.0000
  H   H2098     1.0  0.66838  0.03272  0.49298  1.0000
  Fe  Fe352     1.0  0.91094  0.22013  0.49291  1.0000
  C   C2100     1.0  0.96680  0.31229  0.49321  1.0000
  C   C2101     1.0  0.90354  0.17258  0.49304  1.0000
  C   C2102     1.0  0.91275  0.15251  0.49294  1.0000
  Fe  Fe353     1.0  0.55173  0.28530  0.94603  1.0000
  S   S702      1.0  0.56895  0.27206  0.94476  1.0000
  H   H2099     1.0  0.51100  0.02897  0.79947  1.0000
  Fe  Fe354     1.0  0.54881  0.28442  0.97164  1.0000
  S   S703      1.0  0.56578  0.27121  0.97274  1.0000
  C   C2103     1.0  0.56490  0.20264  0.99133  1.0000
  Fe  Fe355     1.0  0.57299  0.28224  0.95556  1.0000
  Fe  Fe356     1.0  0.56009  0.26225  0.96207  1.0000
  S   S704      1.0  0.56041  0.24285  0.96865  1.0000
  S   S705      1.0  0.55648  0.29618  0.95538  1.0000
  S   S706      1.0  0.54239  0.27470  0.96242  1.0000
  H   H2100     1.0  0.53533  0.00451  0.84331  1.0000
  N   N179      1.0  0.52588  0.04620  0.90845  1.0000
  H   H2101     1.0  0.56400  0.00390  0.80378  1.0000
  C   C2104     1.0  0.58917  0.31245  0.96716  1.0000
  Fe  Fe357     1.0  0.56410  0.19462  0.93758  1.0000
  S   S707      1.0  0.54708  0.19651  0.95102  1.0000
  S   S708      1.0  0.57571  0.20735  0.93444  1.0000
  Fe  Fe358     1.0  0.55839  0.17528  0.92935  1.0000
  S   S709      1.0  0.54109  0.17622  0.94218  1.0000
  S   S710      1.0  0.56360  0.16201  0.91784  1.0000
  Fe  Fe359     1.0  0.53929  0.19570  0.93666  1.0000
  S   S711      1.0  0.52440  0.20933  0.93013  1.0000
  Fe  Fe360     1.0  0.55113  0.17676  0.95484  1.0000
  S   S712      1.0  0.54856  0.16529  0.97305  1.0000
  S   S713      1.0  0.55605  0.19484  0.92297  1.0000
  S   S714      1.0  0.56873  0.17480  0.94229  1.0000
  Fe  Fe361     1.0  0.52534  0.09796  0.91679  1.0000
  S   S715      1.0  0.53812  0.10755  0.91845  1.0000
  S   S716      1.0  0.53232  0.08353  0.90623  1.0000
  S   S717      1.0  0.51580  0.12200  0.93522  1.0000
  Fe  Fe362     1.0  0.52365  0.12366  0.91607  1.0000
  S   S718      1.0  0.52586  0.14203  0.90707  1.0000
  Fe  Fe363     1.0  0.52916  0.10515  0.93763  1.0000
  C   C2105     1.0  0.52751  0.03254  0.78857  1.0000
  Fe  Fe364     1.0  0.51400  0.05454  0.86618  1.0000
  Fe  Fe365     1.0  0.50474  0.25955  0.94189  1.0000
  H   H2102     1.0  0.51476  0.27680  0.97883  1.0000
  Fe  Fe366     1.0  0.53392  0.04320  0.84847  1.0000
  S   S719      1.0  0.52552  0.02853  0.84984  1.0000
  S   S720      1.0  0.55170  0.04360  0.83654  1.0000
  H   H2103     1.0  0.58810  0.01115  0.76131  1.0000
  Fe  Fe367     1.0  0.52108  0.02784  0.86917  1.0000
  C   C2106     1.0  0.57197  0.00692  0.80246  1.0000
  S   S721      1.0  0.51772  0.05753  0.84640  1.0000
  S   S722      1.0  0.53097  0.04138  0.86796  1.0000
  H   H2104     1.0  0.57490  0.30119  0.99094  1.0000
  C   C2107     1.0  0.53677  0.10236  0.97493  1.0000
  H   H2105     1.0  0.54547  0.09661  0.97419  1.0000
  C   C2108     1.0  0.52906  0.13761  0.98855  1.0000
  C   C2109     1.0  0.52480  0.08072  0.89705  1.0000
  C   C2110     1.0  0.53099  0.07300  0.88945  1.0000
  C   C2111     1.0  0.52516  0.06962  0.88282  1.0000
  C   C2112     1.0  0.51305  0.07398  0.88368  1.0000
  H   H2106     1.0  0.54036  0.06955  0.88873  1.0000
  H   H2107     1.0  0.53003  0.06359  0.87709  1.0000
  C   C2113     1.0  0.54884  0.04978  0.79852  1.0000
  C   C2114     1.0  0.53897  0.04865  0.80772  1.0000
  C   C2115     1.0  0.53987  0.04664  0.81940  1.0000
  C   C2116     1.0  0.55063  0.04596  0.82191  1.0000
  C   C2117     1.0  0.56054  0.04711  0.81271  1.0000
  C   C2118     1.0  0.55968  0.04890  0.80099  1.0000
  H   H2108     1.0  0.53062  0.04927  0.80581  1.0000
  H   H2109     1.0  0.53221  0.04571  0.82645  1.0000
  H   H2110     1.0  0.56880  0.04676  0.81466  1.0000
  H   H2111     1.0  0.54550  0.25534  0.92605  1.0000
  C   C2119     1.0  0.53192  0.03594  0.90489  1.0000
  C   C2120     1.0  0.52444  0.06931  0.74546  1.0000
  C   C2121     1.0  0.50827  0.20113  0.98630  1.0000
  C   C2122     1.0  0.50985  0.18288  0.97551  1.0000
  H   H2112     1.0  0.53064  0.12982  0.94597  1.0000
  H   H2113     1.0  0.52245  0.02425  0.74747  1.0000
  C   C2123     1.0  0.57153  0.16368  0.97311  1.0000
  H   H2114     1.0  0.57925  0.23383  0.98199  1.0000
  H   H2115     1.0  0.51028  0.23066  0.93844  1.0000
  C   C2124     1.0  0.54277  0.07285  0.74524  1.0000
  H   H2116     1.0  0.57369  0.16320  0.96398  1.0000
  C   C2125     1.0  0.51353  0.20322  0.92875  1.0000
  C   C2126     1.0  0.51232  0.19203  0.93527  1.0000
  C   C2127     1.0  0.50557  0.20983  0.92164  1.0000
  H   H2117     1.0  0.51809  0.18705  0.94112  1.0000
  H   H2118     1.0  0.50649  0.21852  0.91657  1.0000
  C   C2128     1.0  0.55298  0.15557  0.91616  1.0000
  C   C2129     1.0  0.55661  0.14736  0.90896  1.0000
  C   C2130     1.0  0.54834  0.14262  0.90674  1.0000
  C   C2131     1.0  0.53636  0.14612  0.91168  1.0000
  C   C2132     1.0  0.53271  0.15411  0.91912  1.0000
  C   C2133     1.0  0.54100  0.15878  0.92140  1.0000
  H   H2119     1.0  0.56584  0.14484  0.90484  1.0000
  H   H2120     1.0  0.55121  0.13658  0.90085  1.0000
  H   H2121     1.0  0.52343  0.15698  0.92283  1.0000
  H   H2122     1.0  0.53801  0.16515  0.92685  1.0000
  S   S723      1.0  0.59077  0.28668  0.95046  1.0000
  C   C2134     1.0  0.55398  0.31943  0.93154  1.0000
  H   H2123     1.0  0.49948  0.08591  0.85393  1.0000
  S   S724      1.0  0.52126  0.25457  0.92876  1.0000
  C   C2135     1.0  0.53983  0.18895  0.90674  1.0000
  C   C2136     1.0  0.58931  0.25397  0.98889  1.0000
  C   C2137     1.0  0.51826  0.99980  0.87945  1.0000
  H   H2124     1.0  0.54546  0.00793  0.85677  1.0000
  H   H2125     1.0  0.53581  0.18826  0.91630  1.0000
  C   C2138     1.0  0.50607  0.05791  0.80628  1.0000
  Fe  Fe368     1.0  0.49737  0.02702  0.77078  1.0000
  H   H2126     1.0  0.51616  0.28694  0.95788  1.0000
  C   C2139     1.0  0.56478  0.23332  0.95884  1.0000
  C   C2140     1.0  0.57202  0.23590  0.94766  1.0000
  C   C2141     1.0  0.57552  0.22783  0.94023  1.0000
  C   C2142     1.0  0.57148  0.21735  0.94383  1.0000
  C   C2143     1.0  0.56405  0.21498  0.95489  1.0000
  C   C2144     1.0  0.56087  0.22280  0.96245  1.0000
  H   H2127     1.0  0.57507  0.24402  0.94478  1.0000
  H   H2128     1.0  0.58125  0.22975  0.93164  1.0000
  H   H2129     1.0  0.56086  0.20703  0.95764  1.0000
  H   H2130     1.0  0.55513  0.22084  0.97102  1.0000
  S   S725      1.0  0.53879  0.10105  0.95223  1.0000
  C   C2145     1.0  0.50062  0.21356  0.95426  1.0000
  C   C2146     1.0  0.54003  0.26403  0.92629  1.0000
  H   H2131     1.0  0.57973  0.29988  0.92967  1.0000
  C   C2147     1.0  0.51159  0.00266  0.87091  1.0000
  C   C2148     1.0  0.53846  0.99722  0.85003  1.0000
  S   S726      1.0  0.49664  0.24676  0.95707  1.0000
  C   C2149     1.0  0.50547  0.05337  0.81839  1.0000
  H   H2132     1.0  0.56735  0.30059  0.92410  1.0000
  C   C2150     1.0  0.52159  0.01435  0.79152  1.0000
  C   C2151     1.0  0.60496  0.30039  0.95032  1.0000
  H   H2133     1.0  0.57727  0.30191  0.96739  1.0000
  H   H2134     1.0  0.49752  0.08535  0.89178  1.0000
  N   N180      1.0  0.59411  0.25943  0.97779  1.0000
  C   C2152     1.0  0.59370  0.25588  0.96815  1.0000
  H   H2135     1.0  0.51253  0.06637  0.76238  1.0000
  H   H2136     1.0  0.60506  0.27140  0.96754  1.0000
  C   C2153     1.0  0.49832  0.19691  0.98759  1.0000
  H   H2137     1.0  0.49754  0.08044  0.82095  1.0000
  C   C2154     1.0  0.59898  0.26964  0.97628  1.0000
  H   H2138     1.0  0.59711  0.26050  0.95933  1.0000
  C   C2155     1.0  0.54422  0.99920  0.85757  1.0000
  C   C2156     1.0  0.57744  0.16546  0.98993  1.0000
  C   C2157     1.0  0.49907  0.18792  0.98211  1.0000
  C   C2158     1.0  0.51543  0.03561  0.89768  1.0000
  C   C2159     1.0  0.55163  0.02168  0.74472  1.0000
  H   H2139     1.0  0.53156  0.02234  0.89663  1.0000
  C   C2160     1.0  0.50423  0.99782  0.74779  1.0000
  C   C2161     1.0  0.52459  0.23540  0.96830  1.0000
  C   C2162     1.0  0.50298  0.18758  0.93504  1.0000
  H   H2140     1.0  0.61363  0.29850  0.97735  1.0000
  C   C2163     1.0  0.53962  0.07182  0.75747  1.0000
  H   H2141     1.0  0.52546  0.13537  0.98219  1.0000
  C   C2164     1.0  0.53763  0.28415  0.92785  1.0000
  C   C2165     1.0  0.54996  0.14685  0.95201  1.0000
  H   H2142     1.0  0.55598  0.11565  0.94013  1.0000
  S   S727      1.0  0.54288  0.29465  0.93111  1.0000
  H   H2143     1.0  0.50748  0.17953  0.90211  1.0000
  C   C2166     1.0  0.57110  0.01759  0.80534  1.0000
  C   C2167     1.0  0.55304  0.12449  0.93470  1.0000
  C   C2168     1.0  0.51925  0.02558  0.79384  1.0000
  S   S728      1.0  0.58058  0.05058  0.76420  1.0000
  C   C2169     1.0  0.55475  0.13899  0.94443  1.0000
  H   H2144     1.0  0.51938  0.23652  0.97698  1.0000
  C   C2170     1.0  0.50689  0.08191  0.89107  1.0000
  H   H2145     1.0  0.58899  0.16485  0.97286  1.0000
  C   C2171     1.0  0.60452  0.00493  0.76692  1.0000
  S   S729      1.0  0.50238  0.00784  0.77861  1.0000
  H   H2146     1.0  0.50124  0.24628  0.92370  1.0000
  Fe  Fe369     1.0  0.50632  0.04511  0.74991  1.0000
  H   H2147     1.0  0.50421  0.00642  0.74886  1.0000
  H   H2148     1.0  0.50844  0.30553  0.94469  1.0000
  C   C2172     1.0  0.58131  0.02164  0.80341  1.0000
  C   C2173     1.0  0.51475  0.05133  0.90665  1.0000
  H   H2149     1.0  0.50785  0.09118  0.90360  1.0000
  H   H2150     1.0  0.51006  0.05963  0.90915  1.0000
  C   C2174     1.0  0.58024  0.16447  0.97819  1.0000
  H   H2151     1.0  0.52626  0.06823  0.77324  1.0000
  H   H2152     1.0  0.55557  0.30657  0.98533  1.0000
  H   H2153     1.0  0.55081  0.17396  0.89236  1.0000
  C   C2175     1.0  0.53084  0.10572  0.98567  1.0000
  C   C2176     1.0  0.49936  0.05474  0.80043  1.0000
  C   C2177     1.0  0.61349  0.99500  0.76933  1.0000
  C   C2178     1.0  0.53015  0.22551  0.95215  1.0000
  C   C2179     1.0  0.52242  0.18438  0.90429  1.0000
  C   C2180     1.0  0.53614  0.16933  0.88958  1.0000
  S   S730      1.0  0.52355  0.01063  0.88229  1.0000
  C   C2181     1.0  0.52116  0.27769  0.92610  1.0000
  H   H2154     1.0  0.56404  0.13778  0.94019  1.0000
  H   H2155     1.0  0.51990  0.16574  0.88916  1.0000
  H   H2156     1.0  0.51503  0.00909  0.79544  1.0000
  H   H2157     1.0  0.51070  0.05585  0.82281  1.0000
  C   C2182     1.0  0.53258  0.24246  0.96208  1.0000
  S   S731      1.0  0.50380  0.04076  0.86902  1.0000
  H   H2158     1.0  0.54080  0.03196  0.90616  1.0000
  H   H2159     1.0  0.54943  0.18511  0.90594  1.0000
  C   C2183     1.0  0.52809  0.26627  0.92625  1.0000
  C   C2184     1.0  0.52393  0.17078  0.89241  1.0000
  C   C2185     1.0  0.51431  0.11709  0.97700  1.0000
  H   H2160     1.0  0.50810  0.32016  0.96715  1.0000
  C   C2186     1.0  0.51329  0.28632  0.97634  1.0000
  C   C2187     1.0  0.51976  0.18736  0.97384  1.0000
  Fe  Fe370     1.0  0.50490  0.11119  0.93273  1.0000
  S   S732      1.0  0.50090  0.25530  0.98476  1.0000
  S   S733      1.0  0.56289  0.01397  0.75205  1.0000
  H   H2161     1.0  0.54658  0.12391  0.93006  1.0000
  H   H2162     1.0  0.56069  0.12700  0.92781  1.0000
  C   C2188     1.0  0.53932  0.24078  0.95098  1.0000
  H   H2163     1.0  0.51684  0.08434  0.96557  1.0000
  H   H2164     1.0  0.58767  0.19496  0.98319  1.0000
  H   H2165     1.0  0.58310  0.31706  0.97373  1.0000
  H   H2166     1.0  0.53368  0.24910  0.96589  1.0000
  C   C2189     1.0  0.53795  0.14876  0.95723  1.0000
  H   H2167     1.0  0.55319  0.23437  0.93203  1.0000
  H   H2168     1.0  0.54602  0.18926  0.97999  1.0000
  C   C2190     1.0  0.52105  0.06819  0.75766  1.0000
  C   C2191     1.0  0.58847  0.24653  0.96953  1.0000
  H   H2169     1.0  0.54087  0.99732  0.77371  1.0000
  C   C2192     1.0  0.53434  0.99825  0.78212  1.0000
  N   N181      1.0  0.53191  0.01014  0.78423  1.0000
  H   H2170     1.0  0.51700  0.19022  0.91005  1.0000
  C   C2193     1.0  0.59273  0.00431  0.79610  1.0000
  H   H2171     1.0  0.61724  0.31213  0.98719  1.0000
  N   N182      1.0  0.54779  0.13308  0.94224  1.0000
  H   H2172     1.0  0.54162  0.16315  0.88417  1.0000
  C   C2194     1.0  0.54545  0.23032  0.93470  1.0000
  S   S734      1.0  0.57131  0.02587  0.77376  1.0000
  C   C2195     1.0  0.53093  0.14266  0.95499  1.0000
  H   H2173     1.0  0.58615  0.18836  0.97246  1.0000
  H   H2174     1.0  0.61682  0.31077  0.94989  1.0000
  H   H2175     1.0  0.59934  0.29990  0.98743  1.0000
  S   S735      1.0  0.51782  0.09401  0.93636  1.0000
  H   H2176     1.0  0.52571  0.04138  0.79005  1.0000
  H   H2177     1.0  0.57698  0.31063  0.91643  1.0000
  H   H2178     1.0  0.54563  0.24620  0.94632  1.0000
  S   S736      1.0  0.60571  0.32481  0.96665  1.0000
  H   H2179     1.0  0.49812  0.09701  0.96042  1.0000
  Fe  Fe371     1.0  0.56940  0.02787  0.75549  1.0000
  C   C2196     1.0  0.52328  0.22692  0.96329  1.0000
  H   H2180     1.0  0.57944  0.31448  0.93989  1.0000
  Fe  Fe372     1.0  0.58834  0.03128  0.76436  1.0000
  H   H2181     1.0  0.54894  0.22078  0.93486  1.0000
  H   H2182     1.0  0.51581  0.11635  0.95911  1.0000
  C   C2197     1.0  0.52873  0.06934  0.76371  1.0000
  C   C2198     1.0  0.52015  0.11353  0.96636  1.0000
  C   C2199     1.0  0.53607  0.13469  0.94754  1.0000
  C   C2200     1.0  0.54021  0.01676  0.77935  1.0000
  H   H2183     1.0  0.53852  0.19840  0.90230  1.0000
  C   C2201     1.0  0.50897  0.30516  0.98152  1.0000
  H   H2184     1.0  0.55548  0.15158  0.95368  1.0000
  H   H2185     1.0  0.55379  0.27094  0.92812  1.0000
  S   S737      1.0  0.53959  0.29222  0.98727  1.0000
  S   S738      1.0  0.51075  0.17081  0.96975  1.0000
  H   H2186     1.0  0.51195  0.27953  0.92594  1.0000
  C   C2202     1.0  0.51952  0.11295  0.98677  1.0000
  C   C2203     1.0  0.56321  0.19219  0.97820  1.0000
  H   H2187     1.0  0.56258  0.02278  0.80887  1.0000
  Fe  Fe373     1.0  0.57717  0.05117  0.74673  1.0000
  C   C2204     1.0  0.56006  0.16380  0.97978  1.0000
  C   C2205     1.0  0.51699  0.17840  0.89977  1.0000
  N   N183      1.0  0.56549  0.31472  0.93227  1.0000
  H   H2188     1.0  0.56713  0.18783  0.97086  1.0000
  H   H2189     1.0  0.51180  0.06387  0.80141  1.0000
  H   H2190     1.0  0.62095  0.99584  0.77199  1.0000
  C   C2206     1.0  0.57276  0.30607  0.92523  1.0000
  C   C2207     1.0  0.50964  0.31064  0.96964  1.0000
  C   C2208     1.0  0.49979  0.09608  0.96902  1.0000
  S   S739      1.0  0.55958  0.04658  0.75407  1.0000
  H   H2191     1.0  0.53408  0.15506  0.96290  1.0000
  H   H2192     1.0  0.58784  0.24390  0.96190  1.0000
  C   C2209     1.0  0.54472  0.27288  0.92743  1.0000
  N   N184      1.0  0.51192  0.30410  0.96135  1.0000
  S   S740      1.0  0.54728  0.05259  0.78403  1.0000
  H   H2193     1.0  0.54009  0.23415  0.92791  1.0000
  Fe  Fe374     1.0  0.56330  0.04510  0.77152  1.0000
  H   H2194     1.0  0.54572  0.07258  0.76214  1.0000
  H   H2195     1.0  0.50985  0.21375  0.95364  1.0000
  C   C2210     1.0  0.51894  0.19661  0.97913  1.0000
  H   H2196     1.0  0.61116  0.29577  0.94382  1.0000
  H   H2197     1.0  0.52158  0.14412  0.95899  1.0000
  C   C2211     1.0  0.51396  0.29209  0.96453  1.0000
  C   C2212     1.0  0.58588  0.30388  0.96359  1.0000
  C   C2213     1.0  0.52597  0.28667  0.92674  1.0000
  N   N185      1.0  0.53441  0.18272  0.90167  1.0000
  S   S741      1.0  0.51141  0.11442  0.91306  1.0000
  S   S742      1.0  0.60471  0.01869  0.76901  1.0000
  C   C2214     1.0  0.52677  0.03046  0.89952  1.0000
  C   C2215     1.0  0.51272  0.08525  0.89776  1.0000
  H   H2198     1.0  0.58080  0.02997  0.80540  1.0000
  H   H2199     1.0  0.52908  0.21897  0.94822  1.0000
  H   H2200     1.0  0.60015  0.01820  0.79686  1.0000
  C   C2216     1.0  0.59497  0.00371  0.76340  1.0000
  C   C2217     1.0  0.60816  0.30893  0.95375  1.0000
  C   C2218     1.0  0.53138  0.10607  0.96531  1.0000
  C   C2219     1.0  0.54074  0.01854  0.74828  1.0000
  H   H2201     1.0  0.52046  0.29538  0.92702  1.0000
  H   H2202     1.0  0.52662  0.19997  0.97798  1.0000
  H   H2203     1.0  0.53772  0.13979  0.98382  1.0000
  H   H2204     1.0  0.50168  0.14760  0.91805  1.0000
  C   C2220     1.0  0.51022  0.08887  0.97196  1.0000
  H   H2205     1.0  0.53962  0.01053  0.75471  1.0000
  C   C2221     1.0  0.51264  0.30985  0.94890  1.0000
  H   H2206     1.0  0.54852  0.01330  0.77389  1.0000
  S   S743      1.0  0.50007  0.06089  0.78534  1.0000
  C   C2222     1.0  0.54128  0.17543  0.89429  1.0000
  C   C2223     1.0  0.60040  0.31493  0.96224  1.0000
  H   H2207     1.0  0.52038  0.08232  0.98536  1.0000
  H   H2208     1.0  0.50555  0.12271  0.97779  1.0000
  H   H2209     1.0  0.51696  0.22154  0.96805  1.0000
  H   H2210     1.0  0.55021  0.31678  0.92583  1.0000
  C   C2224     1.0  0.60861  0.29476  0.98612  1.0000
  H   H2211     1.0  0.50538  0.08992  0.83202  1.0000
  H   H2212     1.0  0.50685  0.31039  0.98808  1.0000
  C   C2225     1.0  0.49920  0.08433  0.83669  1.0000
  S   S744      1.0  0.51094  0.03741  0.76745  1.0000
  C   C2226     1.0  0.58402  0.24460  0.99060  1.0000
  H   H2213     1.0  0.52805  0.18361  0.96857  1.0000
  C   C2227     1.0  0.59388  0.29777  0.95520  1.0000
  C   C2228     1.0  0.53805  0.02811  0.78126  1.0000
  C   C2229     1.0  0.50940  0.04616  0.90117  1.0000
  H   H2214     1.0  0.56729  0.04993  0.79386  1.0000
  H   H2215     1.0  0.54449  0.03345  0.77704  1.0000
  S   S745      1.0  0.58666  0.03256  0.74607  1.0000
  C   C2230     1.0  0.50153  0.23079  0.93775  1.0000
  N   N186      1.0  0.53822  0.23222  0.94625  1.0000
  H   H2216     1.0  0.52624  0.99626  0.78133  1.0000
  H   H2217     1.0  0.58342  0.20422  0.96975  1.0000
  C   C2231     1.0  0.55847  0.29791  0.99053  1.0000
  S   S746      1.0  0.50541  0.27116  0.95303  1.0000
  C   C2232     1.0  0.51080  0.29292  0.98488  1.0000
  H   H2218     1.0  0.50933  0.01167  0.86620  1.0000
  C   C2233     1.0  0.56336  0.32612  0.94644  1.0000
  C   C2234     1.0  0.59219  0.01499  0.79874  1.0000
  S   S747      1.0  0.50522  0.06926  0.87617  1.0000
  C   C2235     1.0  0.54597  0.19910  0.99240  1.0000
  H   H2219     1.0  0.50074  0.05047  0.89940  1.0000
  H   H2220     1.0  0.50195  0.17907  0.94045  1.0000
  C   C2236     1.0  0.58360  0.24089  0.98084  1.0000
  H   H2221     1.0  0.50253  0.99612  0.86197  1.0000
  C   C2237     1.0  0.53149  0.05165  0.91415  1.0000
  C   C2238     1.0  0.51220  0.08773  0.98306  1.0000
  Fe  Fe375     1.0  0.50900  0.04259  0.84938  1.0000
  C   C2239     1.0  0.57029  0.31815  0.93939  1.0000
  C   C2240     1.0  0.50381  0.09404  0.99100  1.0000
  H   H2222     1.0  0.50084  0.20463  0.95340  1.0000
  C   C2241     1.0  0.49784  0.04593  0.82478  1.0000
  H   H2223     1.0  0.51141  0.03150  0.89340  1.0000
  C   C2242     1.0  0.58240  0.19612  0.97663  1.0000
  C   C2243     1.0  0.55754  0.16376  0.99179  1.0000
  H   H2224     1.0  0.59168  0.27757  0.97701  1.0000
  C   C2244     1.0  0.53105  0.02631  0.74417  1.0000
  H   H2225     1.0  0.53387  0.04550  0.92223  1.0000
  H   H2226     1.0  0.52201  0.30922  0.94420  1.0000
  C   C2245     1.0  0.55119  0.19317  0.98322  1.0000
  H   H2227     1.0  0.53956  0.05413  0.90802  1.0000
  H   H2228     1.0  0.52563  0.05987  0.91671  1.0000
  H   H2229     1.0  0.60397  0.26818  0.98314  1.0000
  N   N187      1.0  0.58269  0.00045  0.79787  1.0000
  H   H2230     1.0  0.60124  0.99931  0.79232  1.0000
  H   H2231     1.0  0.50790  0.31925  0.94782  1.0000
  N   N188      1.0  0.56993  0.19678  0.98235  1.0000
  H   H2232     1.0  0.60861  0.28563  0.98608  1.0000
  C   C2246     1.0  0.50774  0.99384  0.86852  1.0000
  H   H2233     1.0  0.60214  0.56743  0.00491  1.0000
  S   S748      1.0  0.58425  0.34882  0.00826  1.0000
  H   H2234     1.0  0.89000  0.49274  0.08751  1.0000
  C   C2247     1.0  0.58504  0.56747  0.00293  1.0000
  S   S749      1.0  0.54454  0.58942  0.01067  1.0000
  H   H2235     1.0  0.53042  0.34955  0.00728  1.0000
  C   C2248     1.0  0.62780  0.46447  0.99338  1.0000
  H   H2236     1.0  0.97957  0.50555  0.15652  1.0000
  C   C2249     1.0  0.53958  0.63618  0.00883  1.0000
  Fe  Fe376     1.0  0.65918  0.40911  0.01058  1.0000
  H   H2237     1.0  0.94559  0.54426  0.22679  1.0000
  S   S750      1.0  0.66491  0.40916  0.02670  1.0000
  H   H2238     1.0  0.76019  0.52324  0.02194  1.0000
  C   C2250     1.0  0.93473  0.46273  0.17512  1.0000
  H   H2239     1.0  0.96456  0.47585  0.16719  1.0000
  H   H2240     1.0  0.77897  0.40701  0.01770  1.0000
  S   S751      1.0  0.64092  0.40947  0.00948  1.0000
  C   C2251     1.0  0.97488  0.53587  0.23255  1.0000
  H   H2241     1.0  0.89723  0.43832  0.00197  1.0000
  C   C2252     1.0  0.89091  0.43994  0.02421  1.0000
  Fe  Fe377     1.0  0.72864  0.43421  0.03803  1.0000
  S   S752      1.0  0.72596  0.45278  0.03929  1.0000
  S   S753      1.0  0.74034  0.42034  0.04864  1.0000
  Fe  Fe378     1.0  0.71369  0.44062  0.02011  1.0000
  S   S754      1.0  0.70977  0.45996  0.01941  1.0000
  S   S755      1.0  0.70803  0.43372  0.00775  1.0000
  Fe  Fe379     1.0  0.72877  0.45689  0.01971  1.0000
  S   S756      1.0  0.74129  0.46810  0.00843  1.0000
  Fe  Fe380     1.0  0.70722  0.45430  0.03904  1.0000
  S   S757      1.0  0.69259  0.46413  0.05103  1.0000
  S   S758      1.0  0.73308  0.43802  0.01841  1.0000
  S   S759      1.0  0.70953  0.43512  0.03980  1.0000
  H   H2242     1.0  0.52125  0.32707  0.00643  1.0000
  S   S760      1.0  0.63034  0.50392  0.00638  1.0000
  H   H2243     1.0  0.85786  0.48856  0.04053  1.0000
  C   C2253     1.0  0.53624  0.64967  0.02534  1.0000
  S   S761      1.0  0.63208  0.53182  0.99995  1.0000
  Fe  Fe381     1.0  0.64332  0.51413  0.00595  1.0000
  S   S762      1.0  0.65337  0.50925  0.02020  1.0000
  H   H2244     1.0  0.57228  0.65622  0.01702  1.0000
  H   H2245     1.0  0.81661  0.47241  0.04404  1.0000
  H   H2246     1.0  0.99398  0.51690  0.21049  1.0000
  C   C2254     1.0  0.70580  0.40034  0.03886  1.0000
  Fe  Fe382     1.0  0.71463  0.51648  0.04014  1.0000
  S   S763      1.0  0.70506  0.53523  0.03495  1.0000
  S   S764      1.0  0.70997  0.50546  0.05820  1.0000
  Fe  Fe383     1.0  0.73213  0.51684  0.01697  1.0000
  S   S765      1.0  0.72430  0.53565  0.00972  1.0000
  S   S766      1.0  0.74691  0.50541  0.00657  1.0000
  Fe  Fe384     1.0  0.72326  0.53855  0.02746  1.0000
  S   S767      1.0  0.72749  0.55489  0.02896  1.0000
  Fe  Fe385     1.0  0.70696  0.53060  0.01770  1.0000
  S   S768      1.0  0.69421  0.53659  0.00582  1.0000
  S   S769      1.0  0.73267  0.52010  0.03406  1.0000
  S   S770      1.0  0.71486  0.51154  0.02353  1.0000
  C   C2255     1.0  0.50707  0.59065  0.99695  1.0000
  C   C2256     1.0  0.69645  0.48922  0.01897  1.0000
  H   H2247     1.0  0.71766  0.40212  0.00971  1.0000
  H   H2248     1.0  0.92422  0.49768  0.19221  1.0000
  H   H2249     1.0  0.71040  0.39024  0.99754  1.0000
  S   S771      1.0  0.95437  0.53404  0.19667  1.0000
  H   H2250     1.0  0.97496  0.47410  0.22158  1.0000
  H   H2251     1.0  0.58780  0.37255  0.02812  1.0000
  C   C2257     1.0  0.92713  0.49075  0.18698  1.0000
  C   C2258     1.0  0.94026  0.45631  0.18435  1.0000
  H   H2252     1.0  0.71505  0.48585  0.01798  1.0000
  H   H2253     1.0  0.83159  0.43768  0.01178  1.0000
  C   C2259     1.0  0.62520  0.36474  0.02219  1.0000
  C   C2260     1.0  0.97058  0.41854  0.16858  1.0000
  C   C2261     1.0  0.96907  0.41427  0.18072  1.0000
  C   C2262     1.0  0.79214  0.46264  0.08213  1.0000
  N   N189      1.0  0.71056  0.49598  0.00181  1.0000
  H   H2254     1.0  0.77229  0.49995  0.99307  1.0000
  C   C2263     1.0  0.99450  0.50756  0.16152  1.0000
  H   H2255     1.0  0.92184  0.48394  0.19111  1.0000
  C   C2264     1.0  0.97078  0.51725  0.08984  1.0000
  H   H2256     1.0  0.92943  0.42615  0.18634  1.0000
  H   H2257     1.0  0.87651  0.49800  0.09760  1.0000
  H   H2258     1.0  0.81241  0.47599  0.07480  1.0000
  N   N190      1.0  0.99349  0.42266  0.23363  1.0000
  H   H2259     1.0  0.94086  0.46645  0.23779  1.0000
  C   C2265     1.0  0.74106  0.46675  0.04954  1.0000
  H   H2260     1.0  0.54874  0.57807  0.04080  1.0000
  H   H2261     1.0  0.79221  0.49049  0.06741  1.0000
  C   C2266     1.0  0.85112  0.48509  0.03922  1.0000
  H   H2262     1.0  0.89567  0.50723  0.09629  1.0000
  H   H2263     1.0  0.62671  0.48253  0.99361  1.0000
  Fe  Fe386     1.0  0.80770  0.44560  0.03625  1.0000
  S   S772      1.0  0.79902  0.45520  0.05085  1.0000
  S   S773      1.0  0.80861  0.45730  0.01837  1.0000
  Fe  Fe387     1.0  0.81100  0.42222  0.05294  1.0000
  S   S774      1.0  0.80240  0.42987  0.06899  1.0000
  S   S775      1.0  0.81637  0.40263  0.05565  1.0000
  Fe  Fe388     1.0  0.78911  0.44090  0.05845  1.0000
  S   S776      1.0  0.76972  0.44457  0.06663  1.0000
  Fe  Fe389     1.0  0.81319  0.44338  0.05979  1.0000
  S   S777      1.0  0.82011  0.45298  0.06887  1.0000
  S   S778      1.0  0.79674  0.43212  0.04317  1.0000
  S   S779      1.0  0.82290  0.43494  0.04443  1.0000
  Fe  Fe390     1.0  0.80682  0.51232  0.02189  1.0000
  S   S780      1.0  0.80880  0.52360  0.03278  1.0000
  S   S781      1.0  0.81965  0.50571  0.00648  1.0000
  Fe  Fe391     1.0  0.78341  0.50792  0.03737  1.0000
  S   S782      1.0  0.78328  0.51812  0.05026  1.0000
  S   S783      1.0  0.77050  0.49766  0.03793  1.0000
  Fe  Fe392     1.0  0.78935  0.53111  0.03394  1.0000
  S   S784      1.0  0.77990  0.55006  0.03174  1.0000
  Fe  Fe393     1.0  0.80262  0.50982  0.04818  1.0000
  S   S785      1.0  0.81148  0.50037  0.06322  1.0000
  S   S786      1.0  0.78817  0.52140  0.02123  1.0000
  S   S787      1.0  0.80195  0.49807  0.03723  1.0000
  Fe  Fe394     1.0  0.96563  0.49425  0.12116  1.0000
  S   S788      1.0  0.94797  0.50594  0.11945  1.0000
  S   S789      1.0  0.98100  0.50304  0.11440  1.0000
  Fe  Fe395     1.0  0.95491  0.47334  0.13491  1.0000
  S   S790      1.0  0.93635  0.48337  0.13423  1.0000
  S   S791      1.0  0.95957  0.45539  0.14628  1.0000
  Fe  Fe396     1.0  0.94418  0.49058  0.11527  1.0000
  S   S792      1.0  0.93591  0.49547  0.09934  1.0000
  Fe  Fe397     1.0  0.94195  0.49764  0.13837  1.0000
  S   S793      1.0  0.93250  0.50692  0.15321  1.0000
  S   S794      1.0  0.96249  0.47940  0.11560  1.0000
  S   S795      1.0  0.95986  0.48711  0.14036  1.0000
  Fe  Fe398     1.0  0.87668  0.48617  0.06130  1.0000
  S   S796      1.0  0.87661  0.47168  0.07757  1.0000
  S   S797      1.0  0.86411  0.50352  0.05702  1.0000
  Fe  Fe399     1.0  0.89858  0.47319  0.04708  1.0000
  S   S798      1.0  0.90086  0.45758  0.06202  1.0000
  S   S799      1.0  0.91021  0.47394  0.02881  1.0000
  Fe  Fe400     1.0  0.88136  0.45952  0.06507  1.0000
  S   S800      1.0  0.87476  0.44379  0.06545  1.0000
  Fe  Fe401     1.0  0.89620  0.47075  0.07349  1.0000
  S   S801      1.0  0.90508  0.46663  0.08886  1.0000
  S   S802      1.0  0.87952  0.47408  0.04936  1.0000
  S   S803      1.0  0.89582  0.48626  0.05815  1.0000
  H   H2264     1.0  0.91263  0.49814  0.99865  1.0000
  C   C2267     1.0  0.95230  0.45607  0.16090  1.0000
  C   C2268     1.0  0.94074  0.46263  0.16342  1.0000
  H   H2265     1.0  0.51865  0.34971  0.99349  1.0000
  C   C2269     1.0  0.73489  0.40994  0.01232  1.0000
  C   C2270     1.0  0.95185  0.44980  0.18184  1.0000
  C   C2271     1.0  0.95791  0.44979  0.17013  1.0000
  H   H2266     1.0  0.93630  0.46741  0.15638  1.0000
  H   H2267     1.0  0.98793  0.55486  0.23318  1.0000
  H   H2268     1.0  0.79685  0.45550  0.08792  1.0000
  H   H2269     1.0  0.96691  0.44482  0.16822  1.0000
  C   C2272     1.0  0.92850  0.48669  0.09581  1.0000
  C   C2273     1.0  0.92344  0.49113  0.08591  1.0000
  C   C2274     1.0  0.91666  0.48486  0.08332  1.0000
  C   C2275     1.0  0.91487  0.47409  0.09067  1.0000
  C   C2276     1.0  0.92025  0.46948  0.10035  1.0000
  C   C2277     1.0  0.92705  0.47573  0.10292  1.0000
  H   H2270     1.0  0.92457  0.49959  0.08033  1.0000
  H   H2271     1.0  0.91262  0.48847  0.07581  1.0000
  H   H2272     1.0  0.91894  0.46113  0.10605  1.0000
  H   H2273     1.0  0.93094  0.47219  0.11053  1.0000
  C   C2278     1.0  0.82616  0.50127  0.06118  1.0000
  C   C2279     1.0  0.83037  0.51097  0.05371  1.0000
  C   C2280     1.0  0.84201  0.51165  0.05257  1.0000
  C   C2281     1.0  0.84955  0.50252  0.05867  1.0000
  C   C2282     1.0  0.84542  0.49270  0.06594  1.0000
  C   C2283     1.0  0.83368  0.49220  0.06735  1.0000
  H   H2274     1.0  0.82455  0.51813  0.04914  1.0000
  H   H2275     1.0  0.84514  0.51931  0.04702  1.0000
  H   H2276     1.0  0.85117  0.48564  0.07071  1.0000
  H   H2277     1.0  0.83040  0.48480  0.07328  1.0000
  C   C2284     1.0  0.79631  0.46881  0.02079  1.0000
  C   C2285     1.0  0.78606  0.46637  0.02894  1.0000
  C   C2286     1.0  0.77753  0.47542  0.03360  1.0000
  C   C2287     1.0  0.77921  0.48692  0.02998  1.0000
  C   C2288     1.0  0.78888  0.48949  0.02096  1.0000
  C   C2289     1.0  0.79743  0.48045  0.01634  1.0000
  H   H2278     1.0  0.78513  0.45737  0.03236  1.0000
  H   H2279     1.0  0.77019  0.47332  0.04067  1.0000
  H   H2280     1.0  0.79020  0.49836  0.01799  1.0000
  H   H2281     1.0  0.80533  0.48240  0.01007  1.0000
  C   C2290     1.0  0.83523  0.44972  0.06858  1.0000
  C   C2291     1.0  0.83959  0.45727  0.07231  1.0000
  C   C2292     1.0  0.85172  0.45551  0.07139  1.0000
  C   C2293     1.0  0.85952  0.44601  0.06695  1.0000
  C   C2294     1.0  0.85515  0.43829  0.06343  1.0000
  C   C2295     1.0  0.84301  0.44019  0.06415  1.0000
  H   H2282     1.0  0.83359  0.46456  0.07585  1.0000
  H   H2283     1.0  0.85502  0.46145  0.07420  1.0000
  H   H2284     1.0  0.86116  0.43085  0.06011  1.0000
  H   H2285     1.0  0.83970  0.43426  0.06135  1.0000
  C   C2296     1.0  0.95816  0.52398  0.16044  1.0000
  C   C2297     1.0  0.94870  0.52086  0.16941  1.0000
  C   C2298     1.0  0.94063  0.51593  0.16710  1.0000
  C   C2299     1.0  0.94224  0.51370  0.15593  1.0000
  C   C2300     1.0  0.95183  0.51663  0.14703  1.0000
  C   C2301     1.0  0.95964  0.52195  0.14922  1.0000
  H   H2286     1.0  0.94746  0.52248  0.17808  1.0000
  H   H2287     1.0  0.93318  0.51381  0.17398  1.0000
  H   H2288     1.0  0.95313  0.51500  0.13837  1.0000
  H   H2289     1.0  0.96692  0.52437  0.14224  1.0000
  C   C2302     1.0  0.90137  0.44465  0.00359  1.0000
  H   H2290     1.0  0.84586  0.43377  0.01534  1.0000
  H   H2291     1.0  0.61905  0.46432  0.99883  1.0000
  H   H2292     1.0  0.58076  0.56735  0.02846  1.0000
  C   C2303     1.0  0.88975  0.43892  0.03626  1.0000
  C   C2304     1.0  0.50644  0.65881  0.00780  1.0000
  H   H2293     1.0  0.78726  0.44866  0.00884  1.0000
  H   H2294     1.0  0.63674  0.34750  0.02397  1.0000
  H   H2295     1.0  0.95551  0.50701  0.08686  1.0000
  C   C2305     1.0  0.81271  0.51059  0.99461  1.0000
  C   C2306     1.0  0.94795  0.49242  0.22249  1.0000
  H   H2296     1.0  0.76135  0.40588  0.03421  1.0000
  H   H2297     1.0  0.64627  0.48070  0.00669  1.0000
  H   H2298     1.0  0.82653  0.46251  0.03506  1.0000
  Fe  Fe402     1.0  0.96183  0.42352  0.21717  1.0000
  H   H2299     1.0  0.49856  0.65727  0.01439  1.0000
  C   C2307     1.0  0.57105  0.56897  0.03190  1.0000
  H   H2300     1.0  0.73943  0.55993  0.05304  1.0000
  C   C2308     1.0  0.71689  0.40248  0.01875  1.0000
  Fe  Fe403     1.0  0.96960  0.53400  0.20385  1.0000
  C   C2309     1.0  0.95533  0.47536  0.19653  1.0000
  H   H2301     1.0  0.69815  0.39822  0.04551  1.0000
  S   S804      1.0  0.55744  0.61170  0.00061  1.0000
  C   C2310     1.0  0.89185  0.48074  0.99855  1.0000
  C   C2311     1.0  0.90394  0.47586  0.99713  1.0000
  C   C2312     1.0  0.90950  0.47377  0.00647  1.0000
  C   C2313     1.0  0.90297  0.47640  0.01733  1.0000
  C   C2314     1.0  0.89092  0.48147  0.01864  1.0000
  C   C2315     1.0  0.88537  0.48363  0.00930  1.0000
  S   S805      1.0  0.84765  0.40915  0.99493  1.0000
  H   H2302     1.0  0.91889  0.47016  0.00524  1.0000
  H   H2303     1.0  0.88593  0.48426  0.02663  1.0000
  H   H2304     1.0  0.87606  0.48763  0.01039  1.0000
  H   H2305     1.0  0.84197  0.50195  0.03085  1.0000
  Fe  Fe404     1.0  0.59732  0.33181  0.00703  1.0000
  S   S806      1.0  0.49921  0.33671  0.99509  1.0000
  C   C2316     1.0  0.53180  0.63937  0.02864  1.0000
  H   H2306     1.0  0.99263  0.55069  0.21329  1.0000
  H   H2307     1.0  0.50753  0.64502  0.99923  1.0000
  H   H2308     1.0  0.67639  0.53742  0.99424  1.0000
  H   H2309     1.0  0.80538  0.52810  0.99781  1.0000
  N   N191      1.0  0.78090  0.40590  0.04933  1.0000
  H   H2310     1.0  0.50449  0.61795  0.02028  1.0000
  C   C2317     1.0  0.82092  0.39758  0.04252  1.0000
  C   C2318     1.0  0.82229  0.40548  0.03160  1.0000
  C   C2319     1.0  0.82505  0.40137  0.02118  1.0000
  C   C2320     1.0  0.90902  0.44579  0.01985  1.0000
  C   C2321     1.0  0.82493  0.38154  0.03262  1.0000
  C   C2322     1.0  0.82222  0.38564  0.04301  1.0000
  H   H2311     1.0  0.82114  0.41475  0.03120  1.0000
  C   C2323     1.0  0.96421  0.50129  0.08672  1.0000
  H   H2312     1.0  0.90644  0.50085  0.02931  1.0000
  H   H2313     1.0  0.82105  0.37955  0.05145  1.0000
  C   C2324     1.0  0.96295  0.47338  0.18589  1.0000
  H   H2314     1.0  0.88224  0.48248  0.09801  1.0000
  H   H2315     1.0  0.94387  0.48635  0.16788  1.0000
  H   H2316     1.0  0.68317  0.50466  0.99640  1.0000
  H   H2317     1.0  0.95614  0.44471  0.18889  1.0000
  Fe  Fe405     1.0  0.96823  0.52649  0.18234  1.0000
  C   C2325     1.0  0.77953  0.40663  0.02659  1.0000
  C   C2326     1.0  0.74209  0.55345  0.02966  1.0000
  C   C2327     1.0  0.74661  0.56351  0.02703  1.0000
  C   C2328     1.0  0.75820  0.56248  0.02778  1.0000
  C   C2329     1.0  0.76530  0.55138  0.03116  1.0000
  C   C2330     1.0  0.76068  0.54136  0.03400  1.0000
  C   C2331     1.0  0.74909  0.54240  0.03329  1.0000
  H   H2318     1.0  0.74119  0.57211  0.02433  1.0000
  H   H2319     1.0  0.76173  0.57027  0.02562  1.0000
  H   H2320     1.0  0.76602  0.53278  0.03676  1.0000
  H   H2321     1.0  0.74556  0.53467  0.03571  1.0000
  H   H2322     1.0  0.51287  0.33975  0.02102  1.0000
  H   H2323     1.0  0.80305  0.44403  0.00384  1.0000
  C   C2332     1.0  0.94022  0.54279  0.23597  1.0000
  H   H2324     1.0  0.88640  0.50738  0.04103  1.0000
  C   C2333     1.0  0.51207  0.33065  0.02344  1.0000
  H   H2325     1.0  0.54960  0.64832  0.99686  1.0000
  H   H2326     1.0  0.74169  0.41144  0.01591  1.0000
  H   H2327     1.0  0.91476  0.44717  0.03468  1.0000
  N   N192      1.0  0.97313  0.50520  0.08817  1.0000
  H   H2328     1.0  0.74602  0.52955  0.99493  1.0000
  C   C2334     1.0  0.66406  0.51760  0.01673  1.0000
  C   C2335     1.0  0.66582  0.52552  0.00588  1.0000
  C   C2336     1.0  0.67503  0.53139  0.00267  1.0000
  C   C2337     1.0  0.68252  0.52938  0.01029  1.0000
  C   C2338     1.0  0.68068  0.52161  0.02123  1.0000
  C   C2339     1.0  0.67138  0.51579  0.02448  1.0000
  H   H2329     1.0  0.66012  0.52709  0.99992  1.0000
  Fe  Fe406     1.0  0.83709  0.39733  0.99351  1.0000
  H   H2330     1.0  0.68639  0.52008  0.02718  1.0000
  H   H2331     1.0  0.67001  0.50970  0.03290  1.0000
  C   C2340     1.0  0.88470  0.49100  0.09667  1.0000
  C   C2341     1.0  0.76884  0.51489  0.00731  1.0000
  C   C2342     1.0  0.49835  0.63035  0.03153  1.0000
  C   C2343     1.0  0.89960  0.48055  0.12213  1.0000
  S   S807      1.0  0.98332  0.52837  0.18842  1.0000
  C   C2344     1.0  0.69755  0.47533  0.05342  1.0000
  C   C2345     1.0  0.70730  0.47912  0.04556  1.0000
  C   C2346     1.0  0.71117  0.48826  0.04714  1.0000
  C   C2347     1.0  0.70538  0.49361  0.05669  1.0000
  C   C2348     1.0  0.69583  0.48962  0.06480  1.0000
  C   C2349     1.0  0.69181  0.48057  0.06308  1.0000
  H   H2332     1.0  0.71169  0.47522  0.03804  1.0000
  H   H2333     1.0  0.71870  0.49110  0.04099  1.0000
  H   H2334     1.0  0.69131  0.49375  0.07220  1.0000
  H   H2335     1.0  0.68426  0.47765  0.06921  1.0000
  C   C2350     1.0  0.76163  0.43802  0.06137  1.0000
  C   C2351     1.0  0.76339  0.43858  0.04930  1.0000
  C   C2352     1.0  0.75656  0.43350  0.04532  1.0000
  C   C2353     1.0  0.74828  0.42751  0.05342  1.0000
  C   C2354     1.0  0.74665  0.42685  0.06545  1.0000
  C   C2355     1.0  0.75314  0.43229  0.06939  1.0000
  H   H2336     1.0  0.76985  0.44311  0.04305  1.0000
  H   H2337     1.0  0.75787  0.43398  0.03600  1.0000
  H   H2338     1.0  0.74026  0.42225  0.07174  1.0000
  H   H2339     1.0  0.75173  0.43187  0.07872  1.0000
  C   C2356     1.0  0.57259  0.58957  0.02809  1.0000
  C   C2357     1.0  0.76695  0.43897  0.00779  1.0000
  C   C2358     1.0  0.76035  0.44987  0.01024  1.0000
  C   C2359     1.0  0.75292  0.45732  0.00292  1.0000
  S   S808      1.0  0.95935  0.42409  0.23602  1.0000
  S   S809      1.0  0.93747  0.44720  0.23100  1.0000
  H   H2340     1.0  0.77211  0.43294  0.01385  1.0000
  H   H2341     1.0  0.76041  0.45212  0.01823  1.0000
  H   H2342     1.0  0.73923  0.40306  0.00706  1.0000
  H   H2343     1.0  0.93768  0.48261  0.20499  1.0000
  C   C2360     1.0  0.55413  0.58457  0.03745  1.0000
  C   C2361     1.0  0.95858  0.46893  0.23049  1.0000
  H   H2344     1.0  0.94220  0.43202  0.16755  1.0000
  S   S810      1.0  0.55522  0.34407  0.00582  1.0000
  H   H2345     1.0  0.91700  0.50925  0.00283  1.0000
  N   N193      1.0  0.77309  0.51637  0.99541  1.0000
  S   S811      1.0  0.96986  0.54906  0.21116  1.0000
  C   C2362     1.0  0.85112  0.47315  0.04324  1.0000
  C   C2363     1.0  0.99500  0.49400  0.11517  1.0000
  H   H2346     1.0  0.77080  0.46799  0.06700  1.0000
  C   C2364     1.0  0.67732  0.41534  0.02197  1.0000
  C   C2365     1.0  0.68010  0.42085  0.02928  1.0000
  C   C2366     1.0  0.68945  0.42669  0.02498  1.0000
  C   C2367     1.0  0.69612  0.42682  0.01346  1.0000
  C   C2368     1.0  0.69344  0.42113  0.00630  1.0000
  C   C2369     1.0  0.68406  0.41544  0.01053  1.0000
  H   H2347     1.0  0.67488  0.42080  0.03814  1.0000
  H   H2348     1.0  0.69148  0.43107  0.03056  1.0000
  H   H2349     1.0  0.69869  0.42097  0.99749  1.0000
  H   H2350     1.0  0.68209  0.41105  0.00492  1.0000
  C   C2370     1.0  0.79008  0.40698  0.02881  1.0000
  H   H2351     1.0  0.83533  0.44674  0.01904  1.0000
  C   C2371     1.0  0.77751  0.46955  0.07034  1.0000
  H   H2352     1.0  0.79597  0.45894  0.99927  1.0000
  H   H2353     1.0  0.79045  0.40196  0.06283  1.0000
  H   H2354     1.0  0.69439  0.48462  0.02809  1.0000
  C   C2372     1.0  0.88011  0.51297  0.01417  1.0000
  C   C2373     1.0  0.78967  0.48210  0.07055  1.0000
  C   C2374     1.0  0.74920  0.47835  0.03092  1.0000
  H   H2355     1.0  0.89761  0.44068  0.04937  1.0000
  S   S812      1.0  0.93247  0.45649  0.19892  1.0000
  H   H2356     1.0  0.79785  0.40751  0.02171  1.0000
  H   H2357     1.0  0.59400  0.38183  0.01458  1.0000
  H   H2358     1.0  0.72841  0.49487  0.00212  1.0000
  C   C2375     1.0  0.94095  0.48440  0.22891  1.0000
  H   H2359     1.0  0.92575  0.46775  0.17700  1.0000
  C   C2376     1.0  0.82645  0.38937  0.02170  1.0000
  S   S813      1.0  0.97645  0.41041  0.20877  1.0000
  Fe  Fe407     1.0  0.94213  0.44444  0.21259  1.0000
  H   H2360     1.0  0.96703  0.52367  0.08259  1.0000
  N   N194      1.0  0.73752  0.47641  0.05445  1.0000
  C   C2377     1.0  0.74016  0.48691  0.04799  1.0000
  C   C2378     1.0  0.74605  0.48802  0.03615  1.0000
  C   C2379     1.0  0.73093  0.47535  0.06672  1.0000
  H   H2361     1.0  0.73750  0.49457  0.05187  1.0000
  H   H2362     1.0  0.74819  0.49630  0.03103  1.0000
  H   H2363     1.0  0.72721  0.48408  0.06915  1.0000
  H   H2364     1.0  0.72332  0.47137  0.06804  1.0000
  H   H2365     1.0  0.73676  0.46971  0.07271  1.0000
  C   C2380     1.0  0.71826  0.53243  0.06052  1.0000
  C   C2381     1.0  0.72774  0.52333  0.06325  1.0000
  H   H2366     1.0  0.71024  0.53042  0.06009  1.0000
  H   H2367     1.0  0.72707  0.51425  0.06494  1.0000
  H   H2368     1.0  0.52711  0.63667  0.03760  1.0000
  H   H2369     1.0  0.97197  0.46855  0.18573  1.0000
  N   N195      1.0  0.60564  0.36571  0.02056  1.0000
  C   C2382     1.0  0.61390  0.37120  0.02096  1.0000
  C   C2383     1.0  0.60820  0.35375  0.02178  1.0000
  C   C2384     1.0  0.98399  0.49785  0.08839  1.0000
  H   H2370     1.0  0.89291  0.50989  0.99835  1.0000
  C   C2385     1.0  0.59383  0.37259  0.01932  1.0000
  H   H2371     1.0  0.60161  0.34933  0.02170  1.0000
  H   H2372     1.0  0.96193  0.42855  0.15443  1.0000
  Fe  Fe408     1.0  0.53891  0.59467  0.99340  1.0000
  C   C2386     1.0  0.96021  0.48865  0.22004  1.0000
  H   H2373     1.0  0.75916  0.54357  0.00942  1.0000
  C   C2387     1.0  0.88780  0.50798  0.03165  1.0000
  C   C2388     1.0  0.83887  0.44125  0.01232  1.0000
  N   N196      1.0  0.94824  0.42240  0.18319  1.0000
  H   H2374     1.0  0.93535  0.43307  0.19405  1.0000
  H   H2375     1.0  0.70063  0.39648  0.02494  1.0000
  H   H2376     1.0  0.92537  0.49499  0.17806  1.0000
  C   C2389     1.0  0.89155  0.50943  0.00770  1.0000
  H   H2377     1.0  0.73152  0.41826  0.00638  1.0000
  H   H2378     1.0  0.88410  0.43805  0.02131  1.0000
  H   H2379     1.0  0.93547  0.41757  0.19876  1.0000
  Fe  Fe409     1.0  0.95659  0.51531  0.20659  1.0000
  H   H2380     1.0  0.56726  0.56654  0.02579  1.0000
  C   C2390     1.0  0.99445  0.43347  0.18500  1.0000
  S   S814      1.0  0.96923  0.50771  0.19171  1.0000
  H   H2381     1.0  0.98750  0.45835  0.23386  1.0000
  C   C2391     1.0  0.49752  0.62529  0.02280  1.0000
  N   N197      1.0  0.65525  0.45239  0.02018  1.0000
  C   C2392     1.0  0.66152  0.45393  0.02722  1.0000
  C   C2393     1.0  0.64996  0.46184  0.01279  1.0000
  C   C2394     1.0  0.66219  0.46526  0.02730  1.0000
  C   C2395     1.0  0.65054  0.47326  0.01255  1.0000
  C   C2396     1.0  0.65658  0.47498  0.01997  1.0000
  C   C2397     1.0  0.65482  0.44049  0.02003  1.0000
  H   H2382     1.0  0.66598  0.44639  0.03286  1.0000
  H   H2383     1.0  0.64518  0.46057  0.00707  1.0000
  H   H2384     1.0  0.66696  0.46648  0.03307  1.0000
  H   H2385     1.0  0.80186  0.42898  0.99508  1.0000
  S   S815      1.0  0.77225  0.42107  0.99632  1.0000
  H   H2386     1.0  0.66282  0.43665  0.01396  1.0000
  H   H2387     1.0  0.65438  0.43465  0.02895  1.0000
  H   H2388     1.0  0.64694  0.44045  0.01708  1.0000
  C   C2398     1.0  0.95778  0.41636  0.18795  1.0000
  S   S816      1.0  0.94157  0.50712  0.21740  1.0000
  H   H2389     1.0  0.99099  0.50083  0.08986  1.0000
  C   C2399     1.0  0.96551  0.47694  0.22397  1.0000
  S   S817      1.0  0.96844  0.53008  0.16313  1.0000
  H   H2390     1.0  0.87274  0.51619  0.00987  1.0000
  C   C2400     1.0  0.56755  0.60143  0.02832  1.0000
  S   S818      1.0  0.58006  0.58273  0.00222  1.0000
  H   H2391     1.0  0.77942  0.41558  0.06200  1.0000
  C   C2401     1.0  0.57790  0.56059  0.00216  1.0000
  N   N198      1.0  0.94494  0.53110  0.24256  1.0000
  C   C2402     1.0  0.96360  0.55590  0.23202  1.0000
  C   C2403     1.0  0.89843  0.44142  0.04005  1.0000
  N   N199      1.0  0.56587  0.58132  0.03259  1.0000
  H   H2392     1.0  0.95838  0.47213  0.20469  1.0000
  S   S819      1.0  0.96142  0.44272  0.21037  1.0000
  H   H2393     1.0  0.62138  0.33755  0.02388  1.0000
  H   H2394     1.0  0.96448  0.51809  0.09839  1.0000
  H   H2395     1.0  0.65686  0.48384  0.02005  1.0000
  C   C2404     1.0  0.76303  0.53593  0.00550  1.0000
  C   C2405     1.0  0.94965  0.42670  0.17130  1.0000
  H   H2396     1.0  0.56928  0.56311  0.04074  1.0000
  C   C2406     1.0  0.89910  0.50441  0.02496  1.0000
  H   H2397     1.0  0.93097  0.54354  0.23568  1.0000
  C   C2407     1.0  0.93655  0.42491  0.19095  1.0000
  C   C2408     1.0  0.91278  0.50160  0.00619  1.0000
  Fe  Fe410     1.0  0.56196  0.59277  0.99939  1.0000
  H   H2398     1.0  0.77515  0.40164  0.06808  1.0000
  H   H2399     1.0  0.54039  0.63148  0.00219  1.0000
  H   H2400     1.0  0.61191  0.38068  0.02000  1.0000
  C   C2409     1.0  0.77055  0.40543  0.04726  1.0000
  C   C2410     1.0  0.80467  0.47536  0.08229  1.0000
  C   C2411     1.0  0.53368  0.63250  0.02039  1.0000
  H   H2401     1.0  0.80760  0.46808  0.08946  1.0000
  H   H2402     1.0  0.98972  0.50782  0.17051  1.0000
  C   C2412     1.0  0.79054  0.40674  0.04028  1.0000
  C   C2413     1.0  0.78149  0.40628  0.06114  1.0000
  S   S820      1.0  0.94273  0.42507  0.21824  1.0000
  Fe  Fe411     1.0  0.98309  0.51013  0.19908  1.0000
  H   H2403     1.0  0.85790  0.46724  0.04763  1.0000
  C   C2414     1.0  0.95882  0.47749  0.17551  1.0000
  H   H2404     1.0  0.88217  0.43626  0.04266  1.0000
  N   N200      1.0  0.89158  0.49056  0.10504  1.0000
  C   C2415     1.0  0.89657  0.49979  0.10365  1.0000
  C   C2416     1.0  0.89301  0.48101  0.11414  1.0000
  H   H2405     1.0  0.88939  0.47351  0.11504  1.0000
  C   C2417     1.0  0.73808  0.52598  0.06363  1.0000
  H   H2406     1.0  0.74558  0.51897  0.06555  1.0000
  C   C2418     1.0  0.90328  0.49959  0.11142  1.0000
  H   H2407     1.0  0.96570  0.49469  0.21501  1.0000
  C   C2419     1.0  0.71926  0.54411  0.05819  1.0000
  H   H2408     1.0  0.50238  0.33161  0.04117  1.0000
  S   S821      1.0  0.66798  0.39637  0.99874  1.0000
  C   C2420     1.0  0.76605  0.43552  0.99805  1.0000
  H   H2409     1.0  0.73923  0.45834  0.05474  1.0000
  C   C2421     1.0  0.61940  0.34702  0.02305  1.0000
  H   H2410     1.0  0.71196  0.55115  0.05579  1.0000
  C   C2422     1.0  0.54883  0.59632  0.03795  1.0000
  C   C2423     1.0  0.74684  0.46760  0.03770  1.0000
  H   H2411     1.0  0.75351  0.47918  0.02165  1.0000
  C   C2424     1.0  0.73873  0.53776  0.06138  1.0000
  H   H2412     1.0  0.90765  0.50669  0.11002  1.0000
  H   H2413     1.0  0.90098  0.47284  0.12914  1.0000
  H   H2414     1.0  0.53947  0.59893  0.04163  1.0000
  H   H2415     1.0  0.79863  0.40732  0.04191  1.0000
  H   H2416     1.0  0.74683  0.53977  0.06158  1.0000
  C   C2425     1.0  0.98870  0.50624  0.15364  1.0000
  H   H2417     1.0  0.72522  0.56461  0.04971  1.0000
  C   C2426     1.0  0.90479  0.48990  0.12072  1.0000
  N   N201      1.0  0.72943  0.54664  0.05858  1.0000
  H   H2418     1.0  0.82651  0.49400  0.02832  1.0000
  H   H2419     1.0  0.74930  0.46001  0.03378  1.0000
  H   H2420     1.0  0.91026  0.48951  0.12659  1.0000
  C   C2427     1.0  0.94362  0.48133  0.19665  1.0000
  C   C2428     1.0  0.70721  0.39931  0.02733  1.0000
  H   H2421     1.0  0.71306  0.40540  0.05058  1.0000
  C   C2429     1.0  0.73016  0.55895  0.05650  1.0000
  H   H2422     1.0  0.82599  0.37228  0.03304  1.0000
  H   H2423     1.0  0.80181  0.48373  0.08544  1.0000
  C   C2430     1.0  0.71413  0.40438  0.04169  1.0000
  H   H2424     1.0  0.84202  0.45968  0.04523  1.0000
  N   N202      1.0  0.90052  0.44322  0.01620  1.0000
  S   S822      1.0  0.60004  0.52829  0.00259  1.0000
  C   C2431     1.0  0.94707  0.48344  0.17595  1.0000
  N   N203      1.0  0.72505  0.40636  0.02160  1.0000
  C   C2432     1.0  0.72376  0.40738  0.03289  1.0000
  H   H2425     1.0  0.72648  0.56219  0.06479  1.0000
  H   H2426     1.0  0.76914  0.50614  0.01280  1.0000
  H   H2427     1.0  0.73008  0.41069  0.03513  1.0000
  N   N204      1.0  0.93963  0.48524  0.18644  1.0000
  H   H2428     1.0  0.91653  0.44861  0.01351  1.0000
  C   C2433     1.0  0.83339  0.48806  0.03250  1.0000
  N   N205      1.0  0.79518  0.47333  0.07837  1.0000
  C   C2434     1.0  0.87826  0.51222  0.02623  1.0000
  Fe  Fe412     1.0  0.61989  0.52163  0.99862  1.0000
  H   H2429     1.0  0.57694  0.54317  0.00177  1.0000
  C   C2435     1.0  0.76968  0.40589  0.03585  1.0000
  H   H2430     1.0  0.76283  0.40494  0.05439  1.0000
  C   C2436     1.0  0.75282  0.45426  0.99266  1.0000
  C   C2437     1.0  0.51147  0.65195  0.99933  1.0000
  C   C2438     1.0  0.84222  0.49260  0.03379  1.0000
  N   N206      1.0  0.83340  0.47634  0.03653  1.0000
  C   C2439     1.0  0.84210  0.46892  0.04187  1.0000
  C   C2440     1.0  0.96609  0.48978  0.08532  1.0000
  N   N207      1.0  0.90084  0.50508  0.01314  1.0000
  C   C2441     1.0  0.90810  0.44494  0.03182  1.0000
  C   C2442     1.0  0.82362  0.47186  0.03587  1.0000
  H   H2431     1.0  0.81981  0.47698  0.02813  1.0000
  C   C2443     1.0  0.96082  0.42478  0.16381  1.0000
  S   S823      1.0  0.97055  0.51588  0.21506  1.0000
  C   C2444     1.0  0.78321  0.46062  0.07826  1.0000
  S   S824      1.0  0.52956  0.61886  0.02449  1.0000
  C   C2445     1.0  0.83721  0.45955  0.99730  1.0000
  Fe  Fe413     1.0  0.95688  0.44350  0.22933  1.0000
  C   C2446     1.0  0.96938  0.54661  0.22627  1.0000
  C   C2447     1.0  0.54275  0.65287  0.01387  1.0000
  H   H2432     1.0  0.57132  0.64954  0.00103  1.0000
  C   C2448     1.0  0.76360  0.52460  0.01251  1.0000
  C   C2449     1.0  0.78079  0.48035  0.06641  1.0000
  H   H2433     1.0  0.78095  0.45207  0.08111  1.0000
  C   C2450     1.0  0.70805  0.49003  0.01325  1.0000
  H   H2434     1.0  0.77660  0.48726  0.06006  1.0000
  H   H2435     1.0  0.95676  0.41319  0.19740  1.0000
  H   H2436     1.0  0.50911  0.59802  0.99872  1.0000
  S   S825      1.0  0.83002  0.38408  0.00877  1.0000
  C   C2451     1.0  0.60116  0.55016  0.00434  1.0000
  C   C2452     1.0  0.70180  0.50113  0.99575  1.0000
  H   H2437     1.0  0.63187  0.36921  0.02202  1.0000
  C   C2453     1.0  0.94628  0.47261  0.23284  1.0000
  H   H2438     1.0  0.82931  0.46333  0.00311  1.0000
  H   H2439     1.0  0.85740  0.43419  0.99569  1.0000
  C   C2454     1.0  0.97712  0.48221  0.08559  1.0000
  H   H2440     1.0  0.58184  0.58708  0.02395  1.0000
  H   H2441     1.0  0.61006  0.54625  0.00532  1.0000
  H   H2442     1.0  0.91829  0.49438  0.01159  1.0000
  H   H2443     1.0  0.97661  0.40954  0.18458  1.0000
  H   H2444     1.0  0.82597  0.40749  0.01277  1.0000
  H   H2445     1.0  0.81645  0.37494  0.99820  1.0000
  Fe  Fe414     1.0  0.64981  0.39819  0.99609  1.0000
  H   H2446     1.0  0.53482  0.65496  0.03169  1.0000
  H   H2447     1.0  0.97953  0.52871  0.22812  1.0000
  H   H2448     1.0  0.97651  0.43141  0.19035  1.0000
  C   C2455     1.0  0.68750  0.49434  0.01282  1.0000
  C   C2456     1.0  0.59418  0.54326  0.00331  1.0000
  Fe  Fe415     1.0  0.94009  0.42761  0.23660  1.0000
  H   H2449     1.0  0.59024  0.36893  0.01397  1.0000
  H   H2450     1.0  0.95943  0.56424  0.22719  1.0000
  Fe  Fe416     1.0  0.53940  0.60893  0.01009  1.0000
  H   H2451     1.0  0.98919  0.47771  0.12079  1.0000
  C   C2457     1.0  0.54449  0.64601  0.00571  1.0000
  C   C2458     1.0  0.98537  0.42778  0.19172  1.0000
  H   H2452     1.0  0.97891  0.51958  0.09014  1.0000
  H   H2453     1.0  0.97859  0.47318  0.08481  1.0000
  C   C2459     1.0  0.79483  0.44977  0.00127  1.0000
  C   C2460     1.0  0.62796  0.35258  0.02318  1.0000
  H   H2454     1.0  0.94046  0.54993  0.23995  1.0000
  C   C2461     1.0  0.58245  0.54848  0.00244  1.0000
  C   C2462     1.0  0.72279  0.49631  0.99577  1.0000
  H   H2455     1.0  0.55149  0.61401  0.03335  1.0000
  H   H2456     1.0  0.99013  0.50543  0.13572  1.0000
  H   H2457     1.0  0.95890  0.48668  0.08439  1.0000
  C   C2463     1.0  0.69014  0.50042  0.00116  1.0000
  H   H2458     1.0  0.89697  0.45376  0.99986  1.0000
  H   H2459     1.0  0.57282  0.60800  0.02442  1.0000
  S   S826      1.0  0.66106  0.42509  0.99626  1.0000
  H   H2460     1.0  0.93145  0.48728  0.23078  1.0000
  H   H2461     1.0  0.97932  0.41723  0.16291  1.0000
  C   C2464     1.0  0.99052  0.46537  0.23519  1.0000
  H   H2462     1.0  0.56892  0.56458  0.00126  1.0000
  C   C2465     1.0  0.55559  0.60480  0.03330  1.0000
  H   H2463     1.0  0.67848  0.49380  0.01718  1.0000
  N   N208      1.0  0.84329  0.44828  0.00076  1.0000
  C   C2466     1.0  0.57748  0.65463  0.99440  1.0000
  H   H2464     1.0  0.86945  0.51486  0.03143  1.0000
  H   H2465     1.0  0.63911  0.36093  0.99391  1.0000
  C   C2467     1.0  0.99463  0.50622  0.14197  1.0000
  Fe  Fe417     1.0  0.64358  0.42464  0.99410  1.0000
  H   H2466     1.0  0.99256  0.44153  0.17855  1.0000
  H   H2467     1.0  0.99467  0.48038  0.08769  1.0000
  S   S827      1.0  0.53215  0.61374  0.99392  1.0000
  C   C2468     1.0  0.98613  0.48624  0.08718  1.0000
  S   S828      1.0  0.96536  0.45426  0.23517  1.0000
  C   C2469     1.0  0.54714  0.34410  0.99585  1.0000
  C   C2470     1.0  0.98779  0.41736  0.20008  1.0000
  H   H2468     1.0  0.91071  0.44286  0.99866  1.0000
  H   H2469     1.0  0.62251  0.39722  0.99419  1.0000
  C   C2471     1.0  0.63150  0.36817  0.99335  1.0000
  C   C2472     1.0  0.53482  0.34707  0.99894  1.0000
  Fe  Fe418     1.0  0.57466  0.34272  0.99858  1.0000
  C   C2473     1.0  0.76746  0.53738  0.99338  1.0000
  C   C2474     1.0  0.99249  0.43257  0.22353  1.0000
  C   C2475     1.0  0.63208  0.37932  0.99417  1.0000
  H   H2470     1.0  0.78671  0.50120  0.99336  1.0000
  H   H2471     1.0  0.50579  0.62696  0.03573  1.0000
  S   S829      1.0  0.64541  0.38114  0.99589  1.0000
  H   H2472     1.0  0.95217  0.50259  0.24039  1.0000
  C   C2476     1.0  0.62218  0.38860  0.99352  1.0000
  H   H2473     1.0  0.94401  0.52251  0.22982  1.0000
  C   C2477     1.0  0.59660  0.56218  0.00420  1.0000
  C   C2478     1.0  0.94638  0.52146  0.23810  1.0000
  S   S830      1.0  0.62948  0.44137  0.99346  1.0000
  H   H2474     1.0  0.98312  0.43631  0.22300  1.0000
  C   C2479     1.0  0.85287  0.44328  0.99315  1.0000
  H   H2475     1.0  0.99628  0.43953  0.22440  1.0000
  H   H2476     1.0  0.95810  0.56152  0.24849  1.0000
  H   H2477     1.0  0.98585  0.63439  0.45618  1.0000
  C   C2480     1.0  0.96214  0.32736  0.47620  1.0000
  C   C2481     1.0  0.93150  0.45401  0.26245  1.0000
  C   C2482     1.0  0.95993  0.63798  0.47650  1.0000
  H   H2478     1.0  0.98844  0.52691  0.33621  1.0000
  C   C2483     1.0  0.97098  0.63973  0.46972  1.0000
  H   H2479     1.0  0.99146  0.56849  0.30175  1.0000
  H   H2480     1.0  0.94654  0.53741  0.25674  1.0000
  H   H2481     1.0  0.97537  0.64005  0.43013  1.0000
  H   H2482     1.0  0.91300  0.45280  0.28932  1.0000
  C   C2484     1.0  0.97215  0.36694  0.48893  1.0000
  H   H2483     1.0  0.94377  0.46684  0.27607  1.0000
  S   S831      1.0  0.97997  0.46082  0.35705  1.0000
  C   C2485     1.0  0.95527  0.62946  0.47472  1.0000
  H   H2484     1.0  0.92575  0.45506  0.30230  1.0000
  H   H2485     1.0  0.97910  0.33547  0.48925  1.0000
  C   C2486     1.0  0.92022  0.45508  0.28213  1.0000
  H   H2486     1.0  0.95509  0.51777  0.26740  1.0000
  S   S832      1.0  0.98909  0.42011  0.27686  1.0000
  C   C2487     1.0  0.98606  0.58447  0.42416  1.0000
  C   C2488     1.0  0.92647  0.46309  0.29520  1.0000
  C   C2489     1.0  0.97265  0.62451  0.45946  1.0000
  C   C2490     1.0  0.95418  0.50879  0.25466  1.0000
  C   C2491     1.0  0.95255  0.51866  0.25923  1.0000
  Fe  Fe419     1.0  0.94862  0.43328  0.30019  1.0000
  S   S833      1.0  0.95941  0.44210  0.28371  1.0000
  S   S834      1.0  0.93147  0.42968  0.30012  1.0000
  Fe  Fe420     1.0  0.96541  0.43216  0.31508  1.0000
  S   S835      1.0  0.97777  0.44070  0.29982  1.0000
  S   S836      1.0  0.97027  0.42574  0.33272  1.0000
  Fe  Fe421     1.0  0.96134  0.45299  0.29491  1.0000
  S   S837      1.0  0.95814  0.47264  0.28811  1.0000
  Fe  Fe422     1.0  0.97474  0.42907  0.28991  1.0000
  S   S838      1.0  0.97978  0.65325  0.48767  1.0000
  S   S839      1.0  0.94913  0.44535  0.31108  1.0000
  S   S840      1.0  0.96386  0.41928  0.30563  1.0000
  N   N209      1.0  0.92812  0.46027  0.28375  1.0000
  N   N210      1.0  0.97454  0.41931  0.38649  1.0000
  C   C2492     1.0  0.98218  0.43208  0.34498  1.0000
  C   C2493     1.0  0.96461  0.42466  0.37055  1.0000
  C   C2494     1.0  0.98499  0.42290  0.24380  1.0000
  H   H2487     1.0  0.95786  0.50009  0.25934  1.0000
  C   C2495     1.0  0.93749  0.46273  0.27482  1.0000
  H   H2488     1.0  0.99343  0.38997  0.43765  1.0000
  Fe  Fe423     1.0  0.98266  0.53263  0.27275  1.0000
  C   C2496     1.0  0.98439  0.43978  0.35040  1.0000
  S   S841      1.0  0.96645  0.54196  0.26566  1.0000
  C   C2497     1.0  0.98840  0.48001  0.24609  1.0000
  H   H2489     1.0  0.99069  0.43647  0.35583  1.0000
  C   C2498     1.0  0.99298  0.40651  0.42494  1.0000
  C   C2499     1.0  0.92171  0.45200  0.27141  1.0000
  H   H2490     1.0  0.98244  0.32992  0.45452  1.0000
  C   C2500     1.0  0.99179  0.48651  0.27534  1.0000
  H   H2491     1.0  0.95840  0.64767  0.44521  1.0000
  C   C2501     1.0  0.99202  0.58663  0.43144  1.0000
  S   S842      1.0  0.95178  0.64641  0.48712  1.0000
  C   C2502     1.0  0.93945  0.45943  0.26412  1.0000
  C   C2503     1.0  0.96154  0.62285  0.46613  1.0000
  H   H2492     1.0  0.94724  0.46078  0.25729  1.0000
  H   H2493     1.0  0.98290  0.37976  0.48094  1.0000
  H   H2494     1.0  0.97448  0.64659  0.47055  1.0000
  H   H2495     1.0  0.97608  0.57047  0.41640  1.0000
  S   S843      1.0  0.99181  0.54132  0.28055  1.0000
  H   H2496     1.0  0.93308  0.45104  0.25439  1.0000
  H   H2497     1.0  0.97382  0.40716  0.37702  1.0000
  H   H2498     1.0  0.98082  0.40140  0.39483  1.0000
  C   C2504     1.0  0.98592  0.48203  0.31507  1.0000
  H   H2499     1.0  0.96333  0.44872  0.38043  1.0000
  H   H2500     1.0  0.97468  0.43334  0.39385  1.0000
  H   H2501     1.0  0.98365  0.48421  0.25342  1.0000
  C   C2505     1.0  0.98573  0.41353  0.25354  1.0000
  H   H2502     1.0  0.97745  0.46664  0.30939  1.0000
  H   H2503     1.0  0.98272  0.46082  0.28417  1.0000
  C   C2506     1.0  0.99244  0.47442  0.27820  1.0000
  C   C2507     1.0  0.94775  0.52980  0.25310  1.0000
  C   C2508     1.0  0.98389  0.47162  0.24386  1.0000
  C   C2509     1.0  0.97124  0.41620  0.37806  1.0000
  C   C2510     1.0  0.97111  0.47793  0.28284  1.0000
  C   C2511     1.0  0.98211  0.47015  0.28197  1.0000
  S   S844      1.0  0.92736  0.42050  0.25262  1.0000
  H   H2504     1.0  0.91833  0.47001  0.29684  1.0000
  C   C2512     1.0  0.98080  0.49435  0.27564  1.0000
  C   C2513     1.0  0.97046  0.49007  0.27951  1.0000
  C   C2514     1.0  0.96843  0.54374  0.25037  1.0000
  H   H2505     1.0  0.98835  0.59407  0.43573  1.0000
  H   H2506     1.0  0.98024  0.50372  0.27293  1.0000
  H   H2507     1.0  0.96195  0.49614  0.28014  1.0000
  C   C2515     1.0  0.97743  0.63284  0.46141  1.0000
  S   S845      1.0  0.96971  0.34802  0.46864  1.0000
  H   H2508     1.0  0.98788  0.45733  0.31822  1.0000
  H   H2509     1.0  0.98215  0.58132  0.40431  1.0000
  H   H2510     1.0  0.97231  0.36497  0.48066  1.0000
  H   H2511     1.0  0.97869  0.52617  0.24944  1.0000
  S   S846      1.0  0.99008  0.52392  0.38301  1.0000
  H   H2512     1.0  0.95770  0.33056  0.46895  1.0000
  C   C2516     1.0  0.96869  0.33425  0.47809  1.0000
  Fe  Fe424     1.0  0.98789  0.35146  0.46388  1.0000
  H   H2513     1.0  0.95775  0.61646  0.46465  1.0000
  N   N211      1.0  0.99077  0.57521  0.41862  1.0000
  S   S847      1.0  0.97991  0.61672  0.44815  1.0000
  C   C2517     1.0  0.99060  0.49161  0.31425  1.0000
  H   H2514     1.0  0.98676  0.42292  0.34643  1.0000
  H   H2515     1.0  0.97907  0.41206  0.40321  1.0000
  H   H2516     1.0  0.93402  0.46627  0.29572  1.0000
  C   C2518     1.0  0.99108  0.44279  0.26814  1.0000
  C   C2519     1.0  0.97827  0.45153  0.34900  1.0000
  C   C2520     1.0  0.98691  0.46367  0.30977  1.0000
  H   H2517     1.0  0.98573  0.41133  0.43056  1.0000
  C   C2521     1.0  0.97390  0.43608  0.33795  1.0000
  C   C2522     1.0  0.96808  0.44797  0.33604  1.0000
  C   C2523     1.0  0.97021  0.45568  0.34164  1.0000
  S   S848      1.0  0.98366  0.51644  0.28722  1.0000
  H   H2518     1.0  0.99035  0.48228  0.35419  1.0000
  H   H2519     1.0  0.96161  0.45110  0.33065  1.0000
  H   H2520     1.0  0.96537  0.46475  0.34052  1.0000
  H   H2521     1.0  0.99146  0.45884  0.30257  1.0000
  Fe  Fe425     1.0  0.99338  0.45261  0.36839  1.0000
  H   H2522     1.0  0.98296  0.44506  0.27435  1.0000
  H   H2523     1.0  0.91568  0.44750  0.27028  1.0000
  C   C2524     1.0  0.97456  0.53450  0.24458  1.0000
  H   H2524     1.0  0.97740  0.48132  0.32086  1.0000
  H   H2525     1.0  0.94671  0.62809  0.47986  1.0000
  H   H2526     1.0  0.96217  0.42224  0.36371  1.0000
  C   C2525     1.0  0.96524  0.43954  0.37994  1.0000
  C   C2526     1.0  0.97797  0.37530  0.48907  1.0000
  C   C2527     1.0  0.92914  0.42207  0.26601  1.0000
  C   C2528     1.0  0.91980  0.42149  0.27590  1.0000
  C   C2529     1.0  0.92073  0.42348  0.28645  1.0000
  C   C2530     1.0  0.93109  0.42584  0.28725  1.0000
  C   C2531     1.0  0.94061  0.42593  0.27751  1.0000
  C   C2532     1.0  0.93958  0.42422  0.26686  1.0000
  H   H2527     1.0  0.91173  0.41975  0.27534  1.0000
  H   H2528     1.0  0.91336  0.42331  0.29396  1.0000
  H   H2529     1.0  0.94873  0.42746  0.27809  1.0000
  H   H2530     1.0  0.94689  0.42452  0.25937  1.0000
  N   N212      1.0  0.99195  0.47369  0.30858  1.0000
  C   C2533     1.0  0.97173  0.43083  0.38742  1.0000
  H   H2531     1.0  0.99117  0.41078  0.39060  1.0000
  H   H2532     1.0  0.97756  0.43036  0.24446  1.0000
  H   H2533     1.0  0.95677  0.44310  0.36550  1.0000
  C   C2534     1.0  0.96157  0.43639  0.37155  1.0000
  S   S849      1.0  0.99252  0.52199  0.31336  1.0000
  H   H2534     1.0  0.98264  0.50299  0.38424  1.0000
  H   H2535     1.0  0.97888  0.41372  0.26154  1.0000
  H   H2536     1.0  0.98956  0.41692  0.31621  1.0000
  H   H2537     1.0  0.97771  0.59033  0.42288  1.0000
  H   H2538     1.0  0.99254  0.64936  0.42283  1.0000
  C   C2535     1.0  0.96582  0.65190  0.44174  1.0000
  S   S850      1.0  0.99160  0.45628  0.38611  1.0000
  H   H2539     1.0  0.97567  0.46946  0.24924  1.0000
  C   C2536     1.0  0.99209  0.50071  0.38339  1.0000
  S   S851      1.0  0.99251  0.36908  0.45980  1.0000
  C   C2537     1.0  0.97431  0.33011  0.48753  1.0000
  C   C2538     1.0  0.98508  0.65282  0.42929  1.0000
  H   H2540     1.0  0.98965  0.56625  0.40609  1.0000
  C   C2539     1.0  0.98175  0.41043  0.39412  1.0000
  H   H2541     1.0  0.98570  0.49839  0.31918  1.0000
  C   C2540     1.0  0.97536  0.64761  0.43328  1.0000
  C   C2541     1.0  0.98432  0.57319  0.41105  1.0000
  H   H2542     1.0  0.99107  0.50000  0.36036  1.0000
  H   H2543     1.0  0.99421  0.46017  0.26356  1.0000
  S   S852      1.0  0.99195  0.42742  0.40874  1.0000
  C   C2542     1.0  0.95101  0.51017  0.24406  1.0000
  C   C2543     1.0  0.96290  0.55438  0.24406  1.0000
  H   H2544     1.0  0.99390  0.48252  0.38318  1.0000
  Fe  Fe426     1.0  0.99478  0.52421  0.29370  1.0000
  C   C2544     1.0  0.99495  0.53161  0.33030  1.0000
  H   H2545     1.0  0.99535  0.56811  0.28081  1.0000
  Fe  Fe427     1.0  0.96074  0.66011  0.48742  1.0000
  H   H2546     1.0  0.99533  0.40888  0.29832  1.0000
  C   C2545     1.0  0.99555  0.40418  0.25306  1.0000
  C   C2546     1.0  0.99576  0.43114  0.26699  1.0000
  H   H2547     1.0  0.99639  0.39707  0.26071  1.0000
  H   H2548     1.0  0.99585  0.46651  0.41844  1.0000
  H   H2549     1.0  0.99607  0.59645  0.39207  1.0000
  S   S853      1.0  0.99596  0.55506  0.36567  1.0000
  H   H2550     1.0  0.96959  0.49013  0.65298  1.0000
  H   H2551     1.0  0.98653  0.61086  0.50789  1.0000
  H   H2552     1.0  0.99373  0.35168  0.59798  1.0000
  H   H2553     1.0  0.94928  0.48861  0.72453  1.0000
  Fe  Fe428     1.0  0.97173  0.56025  0.71549  1.0000
  S   S854      1.0  0.96705  0.54367  0.72728  1.0000
  H   H2554     1.0  0.94739  0.57553  0.73995  1.0000
  C   C2547     1.0  0.96616  0.36104  0.49950  1.0000
  H   H2555     1.0  0.97864  0.43489  0.66325  1.0000
  C   C2548     1.0  0.97324  0.51516  0.65763  1.0000
  Fe  Fe429     1.0  0.96093  0.54209  0.71215  1.0000
  S   S855      1.0  0.94342  0.53735  0.71607  1.0000
  S   S856      1.0  0.99081  0.35225  0.53825  1.0000
  S   S857      1.0  0.96398  0.55958  0.70106  1.0000
  H   H2556     1.0  0.98532  0.40770  0.68608  1.0000
  H   H2557     1.0  0.95852  0.64175  0.51019  1.0000
  S   S858      1.0  0.96669  0.46506  0.68766  1.0000
  H   H2558     1.0  0.93572  0.54621  0.73819  1.0000
  C   C2549     1.0  0.96614  0.63571  0.51316  1.0000
  H   H2559     1.0  0.95135  0.49474  0.66836  1.0000
  H   H2560     1.0  0.96253  0.50103  0.70151  1.0000
  C   C2550     1.0  0.97916  0.43702  0.72752  1.0000
  S   S859      1.0  0.99119  0.55404  0.67521  1.0000
  S   S860      1.0  0.96975  0.47347  0.70989  1.0000
  S   S861      1.0  0.97740  0.48864  0.68308  1.0000
  Fe  Fe430     1.0  0.98476  0.53485  0.71826  1.0000
  H   H2561     1.0  0.99542  0.35058  0.49731  1.0000
  C   C2551     1.0  0.97718  0.44679  0.73239  1.0000
  H   H2562     1.0  0.98616  0.62431  0.54157  1.0000
  Fe  Fe431     1.0  0.97650  0.45737  0.70227  1.0000
  S   S862      1.0  0.94386  0.49378  0.69673  1.0000
  S   S863      1.0  0.97833  0.53179  0.70402  1.0000
  C   C2552     1.0  0.94388  0.50578  0.70214  1.0000
  C   C2553     1.0  0.95436  0.50736  0.70352  1.0000
  C   C2554     1.0  0.95431  0.51710  0.70765  1.0000
  C   C2555     1.0  0.94377  0.52525  0.71054  1.0000
  C   C2556     1.0  0.93327  0.52358  0.70930  1.0000
  C   C2557     1.0  0.93334  0.51392  0.70502  1.0000
  H   H2563     1.0  0.96238  0.51803  0.70895  1.0000
  H   H2564     1.0  0.92507  0.52981  0.71157  1.0000
  C   C2558     1.0  0.97560  0.50536  0.65268  1.0000
  C   C2559     1.0  0.95752  0.50049  0.66516  1.0000
  H   H2565     1.0  0.98354  0.50350  0.64596  1.0000
  H   H2566     1.0  0.95638  0.53547  0.66639  1.0000
  H   H2567     1.0  0.94753  0.51229  0.67661  1.0000
  H   H2568     1.0  0.92520  0.51273  0.70400  1.0000
  S   S864      1.0  0.99130  0.47133  0.65841  1.0000
  H   H2569     1.0  0.96891  0.62459  0.50105  1.0000
  C   C2560     1.0  0.99424  0.54326  0.66701  1.0000
  C   C2561     1.0  0.99354  0.53164  0.67254  1.0000
  H   H2570     1.0  0.95755  0.47739  0.73440  1.0000
  C   C2562     1.0  0.98356  0.45127  0.66099  1.0000
  H   H2571     1.0  0.99313  0.63509  0.53041  1.0000
  C   C2563     1.0  0.98371  0.44113  0.65745  1.0000
  Fe  Fe432     1.0  0.98205  0.54939  0.69418  1.0000
  H   H2572     1.0  0.96969  0.52928  0.67194  1.0000
  C   C2564     1.0  0.99041  0.45918  0.65371  1.0000
  H   H2573     1.0  0.99592  0.51238  0.70957  1.0000
  C   C2565     1.0  0.95546  0.51038  0.66991  1.0000
  H   H2574     1.0  0.97831  0.45281  0.66944  1.0000
  H   H2575     1.0  0.96591  0.64537  0.52566  1.0000
  Fe  Fe433     1.0  0.98311  0.47135  0.67751  1.0000
  S   S865      1.0  0.97829  0.43876  0.71284  1.0000
  H   H2576     1.0  0.95609  0.52597  0.68087  1.0000
  C   C2566     1.0  0.96772  0.49792  0.65656  1.0000
  N   N213      1.0  0.96345  0.51735  0.66638  1.0000
  C   C2567     1.0  0.96127  0.52753  0.67162  1.0000
  C   C2568     1.0  0.97032  0.63765  0.52196  1.0000
  C   C2569     1.0  0.97768  0.37767  0.49982  1.0000
  C   C2570     1.0  0.98220  0.42571  0.73435  1.0000
  Fe  Fe434     1.0  0.96172  0.48172  0.69433  1.0000
  H   H2577     1.0  0.99340  0.61462  0.52362  1.0000
  S   S866      1.0  0.99006  0.55156  0.70776  1.0000
  S   S867      1.0  0.99339  0.46232  0.69151  1.0000
  C   C2571     1.0  0.95756  0.51400  0.73639  1.0000
  N   N214      1.0  0.98000  0.63011  0.52562  1.0000
  H   H2578     1.0  0.99369  0.64840  0.56078  1.0000
  H   H2579     1.0  0.96928  0.59158  0.73646  1.0000
  Fe  Fe435     1.0  0.98589  0.47895  0.69816  1.0000
  S   S868      1.0  0.96833  0.57671  0.72204  1.0000
  H   H2580     1.0  0.98811  0.34466  0.51889  1.0000
  H   H2581     1.0  0.97931  0.52096  0.65447  1.0000
  H   H2582     1.0  0.98431  0.33862  0.59502  1.0000
  H   H2583     1.0  0.97468  0.45549  0.72737  1.0000
  N   N215      1.0  0.97184  0.37180  0.51016  1.0000
  C   C2572     1.0  0.99068  0.41422  0.68275  1.0000
  H   H2584     1.0  0.97433  0.51748  0.73520  1.0000
  H   H2585     1.0  0.96395  0.38217  0.52306  1.0000
  C   C2573     1.0  0.98186  0.61841  0.51181  1.0000
  H   H2586     1.0  0.94402  0.48640  0.74037  1.0000
  H   H2587     1.0  0.94469  0.57345  0.72137  1.0000
  H   H2588     1.0  0.99552  0.38729  0.59801  1.0000
  H   H2589     1.0  0.98387  0.42202  0.69801  1.0000
  C   C2574     1.0  0.96604  0.36364  0.51011  1.0000
  H   H2590     1.0  0.97855  0.63951  0.53881  1.0000
  C   C2575     1.0  0.97200  0.62606  0.50801  1.0000
  C   C2576     1.0  0.99101  0.43866  0.64679  1.0000
  H   H2591     1.0  0.99098  0.52917  0.68197  1.0000
  C   C2577     1.0  0.99057  0.33049  0.59831  1.0000
  C   C2578     1.0  0.97140  0.37463  0.52131  1.0000
  S   S869      1.0  0.98468  0.65904  0.51542  1.0000
  H   H2592     1.0  0.98577  0.49868  0.72956  1.0000
  S   S870      1.0  0.99441  0.48755  0.70646  1.0000
  H   H2593     1.0  0.98368  0.41808  0.73070  1.0000
  C   C2579     1.0  0.97276  0.58253  0.74039  1.0000
  H   H2594     1.0  0.95250  0.52238  0.73845  1.0000
  C   C2580     1.0  0.95196  0.48646  0.73307  1.0000
  H   H2595     1.0  0.92934  0.57351  0.72819  1.0000
  H   H2596     1.0  0.97976  0.37685  0.52111  1.0000
  C   C2581     1.0  0.97350  0.57350  0.73493  1.0000
  H   H2597     1.0  0.98247  0.38398  0.49984  1.0000
  C   C2582     1.0  0.97623  0.50067  0.73140  1.0000
  C   C2583     1.0  0.97807  0.56184  0.73998  1.0000
  S   S871      1.0  0.99328  0.42471  0.64369  1.0000
  H   H2598     1.0  0.96169  0.35448  0.49942  1.0000
  C   C2584     1.0  0.98573  0.62058  0.52069  1.0000
  H   H2599     1.0  0.99613  0.51405  0.67021  1.0000
  H   H2600     1.0  0.99594  0.43694  0.69012  1.0000
  C   C2585     1.0  0.97026  0.49261  0.73081  1.0000
  C   C2586     1.0  0.98463  0.63235  0.53455  1.0000
  H   H2601     1.0  0.97903  0.55485  0.73567  1.0000
  C   C2587     1.0  0.99415  0.35049  0.51543  1.0000
  H   H2602     1.0  0.97040  0.36695  0.52879  1.0000
  N   N216      1.0  0.95821  0.49510  0.73325  1.0000
  C   C2588     1.0  0.93834  0.56785  0.72661  1.0000
  C   C2589     1.0  0.95186  0.50577  0.73568  1.0000
  H   H2603     1.0  0.96139  0.35901  0.51830  1.0000
  H   H2604     1.0  0.97535  0.48431  0.72855  1.0000
  H   H2605     1.0  0.94234  0.50790  0.73723  1.0000
  N   N217      1.0  0.94148  0.56140  0.73786  1.0000
  C   C2590     1.0  0.98984  0.42226  0.68942  1.0000
  C   C2591     1.0  0.96980  0.51132  0.73442  1.0000
  H   H2606     1.0  0.93867  0.56171  0.72111  1.0000
  H   H2607     1.0  0.57296  0.65971  0.98714  1.0000
  C   C2592     1.0  0.98358  0.42424  0.74584  1.0000
  C   C2593     1.0  0.53041  0.64322  0.95291  1.0000
  C   C2594     1.0  0.97837  0.44533  0.74390  1.0000
  H   H2608     1.0  0.98758  0.51857  0.84529  1.0000
  H   H2609     1.0  0.68962  0.51311  0.93302  1.0000
  C   C2595     1.0  0.78669  0.45550  0.98363  1.0000
  Fe  Fe436     1.0  0.77088  0.40629  0.96281  1.0000
  S   S872      1.0  0.77126  0.42428  0.96389  1.0000
  S   S873      1.0  0.78597  0.39577  0.95181  1.0000
  H   H2610     1.0  0.97658  0.45295  0.74759  1.0000
  C   C2596     1.0  0.97657  0.52160  0.83308  1.0000
  H   H2611     1.0  0.93983  0.49681  0.88110  1.0000
  Fe  Fe437     1.0  0.75233  0.42901  0.96276  1.0000
  S   S874      1.0  0.74461  0.44484  0.95036  1.0000
  S   S875      1.0  0.75257  0.41154  0.95976  1.0000
  S   S876      1.0  0.97591  0.51761  0.80049  1.0000
  Fe  Fe438     1.0  0.55045  0.61563  0.98441  1.0000
  S   S877      1.0  0.88653  0.45682  0.97590  1.0000
  S   S878      1.0  0.55115  0.63227  0.97054  1.0000
  H   H2612     1.0  0.81660  0.46510  0.98412  1.0000
  S   S879      1.0  0.59374  0.65508  0.96521  1.0000
  H   H2613     1.0  0.86133  0.49213  0.97798  1.0000
  H   H2614     1.0  0.86768  0.49757  0.92585  1.0000
  H   H2615     1.0  0.64492  0.52292  0.94030  1.0000
  H   H2616     1.0  0.83493  0.52941  0.94747  1.0000
  C   C2597     1.0  0.94794  0.54906  0.75895  1.0000
  S   S880      1.0  0.55668  0.59698  0.98212  1.0000
  H   H2617     1.0  0.78773  0.43957  0.96412  1.0000
  H   H2618     1.0  0.87204  0.42184  0.98074  1.0000
  Fe  Fe439     1.0  0.72930  0.52183  0.95131  1.0000
  S   S881      1.0  0.72730  0.52710  0.93271  1.0000
  Fe  Fe440     1.0  0.71625  0.50234  0.95757  1.0000
  S   S882      1.0  0.71329  0.50570  0.93936  1.0000
  C   C2598     1.0  0.58198  0.63719  0.97301  1.0000
  Fe  Fe441     1.0  0.73195  0.50777  0.93338  1.0000
  S   S883      1.0  0.74514  0.50097  0.91835  1.0000
  Fe  Fe442     1.0  0.70891  0.52464  0.94047  1.0000
  S   S884      1.0  0.69434  0.53782  0.93303  1.0000
  S   S885      1.0  0.73537  0.50256  0.95148  1.0000
  S   S886      1.0  0.71038  0.52117  0.95921  1.0000
  C   C2599     1.0  0.75253  0.37919  0.96832  1.0000
  S   S887      1.0  0.83474  0.40547  0.95086  1.0000
  H   H2619     1.0  0.76930  0.38859  0.94151  1.0000
  S   S888      1.0  0.79073  0.50569  0.94353  1.0000
  C   C2600     1.0  0.85179  0.49105  0.93110  1.0000
  Fe  Fe443     1.0  0.80013  0.51205  0.92505  1.0000
  H   H2620     1.0  0.83141  0.37381  0.94811  1.0000
  S   S889      1.0  0.79107  0.51949  0.90995  1.0000
  C   C2601     1.0  0.74147  0.38352  0.96549  1.0000
  C   C2602     1.0  0.69169  0.44323  0.98049  1.0000
  C   C2603     1.0  0.95936  0.49403  0.80465  1.0000
  Fe  Fe444     1.0  0.80557  0.48985  0.94295  1.0000
  S   S890      1.0  0.80139  0.47208  0.94893  1.0000
  S   S891      1.0  0.81421  0.49559  0.92407  1.0000
  C   C2604     1.0  0.51616  0.58232  0.99170  1.0000
  Fe  Fe445     1.0  0.97790  0.46024  0.88780  1.0000
  C   C2605     1.0  0.72879  0.39462  0.95157  1.0000
  S   S892      1.0  0.96946  0.44975  0.90511  1.0000
  Fe  Fe446     1.0  0.97272  0.48062  0.86787  1.0000
  S   S893      1.0  0.98432  0.53122  0.82213  1.0000
  S   S894      1.0  0.95852  0.49416  0.86021  1.0000
  H   H2621     1.0  0.96734  0.49243  0.79752  1.0000
  C   C2606     1.0  0.52154  0.65427  0.99082  1.0000
  H   H2622     1.0  0.67140  0.49534  0.96612  1.0000
  C   C2607     1.0  0.92723  0.49241  0.89728  1.0000
  S   S895      1.0  0.97225  0.46167  0.87125  1.0000
  S   S896      1.0  0.97703  0.47952  0.88496  1.0000
  Fe  Fe447     1.0  0.91126  0.46781  0.95088  1.0000
  S   S897      1.0  0.92402  0.47687  0.93615  1.0000
  S   S898      1.0  0.87254  0.45833  0.95153  1.0000
  S   S899      1.0  0.90577  0.45141  0.95146  1.0000
  C   C2608     1.0  0.99304  0.48235  0.80898  1.0000
  S   S900      1.0  0.98742  0.46516  0.75613  1.0000
  C   C2609     1.0  0.84500  0.50520  0.97760  1.0000
  S   S901      1.0  0.88469  0.48370  0.98696  1.0000
  C   C2610     1.0  0.68751  0.46402  0.98789  1.0000
  H   H2623     1.0  0.58893  0.58412  0.97480  1.0000
  Fe  Fe448     1.0  0.97225  0.47524  0.76752  1.0000
  S   S902      1.0  0.95722  0.48928  0.76144  1.0000
  Fe  Fe449     1.0  0.82412  0.50411  0.93108  1.0000
  C   C2611     1.0  0.67086  0.51977  0.93791  1.0000
  S   S903      1.0  0.96711  0.45915  0.77998  1.0000
  H   H2624     1.0  0.65327  0.55744  0.94453  1.0000
  H   H2625     1.0  0.99325  0.44240  0.90917  1.0000
  C   C2612     1.0  0.67137  0.50219  0.95816  1.0000
  C   C2613     1.0  0.62450  0.37442  0.96143  1.0000
  H   H2626     1.0  0.76258  0.53470  0.95031  1.0000
  H   H2627     1.0  0.77123  0.37788  0.96173  1.0000
  H   H2628     1.0  0.72724  0.46667  0.98207  1.0000
  Fe  Fe450     1.0  0.96389  0.53176  0.79036  1.0000
  S   S904      1.0  0.94662  0.52897  0.78962  1.0000
  C   C2614     1.0  0.66046  0.55054  0.94730  1.0000
  C   C2615     1.0  0.93953  0.55031  0.74268  1.0000
  H   H2629     1.0  0.84204  0.38056  0.94985  1.0000
  C   C2616     1.0  0.53213  0.62198  0.96063  1.0000
  N   N218      1.0  0.52511  0.63306  0.95888  1.0000
  C   C2617     1.0  0.77238  0.52745  0.98844  1.0000
  S   S905      1.0  0.82450  0.41135  0.98400  1.0000
  H   H2630     1.0  0.52543  0.64888  0.98428  1.0000
  C   C2618     1.0  0.76150  0.38693  0.94823  1.0000
  C   C2619     1.0  0.93636  0.48980  0.88774  1.0000
  Fe  Fe451     1.0  0.76429  0.41807  0.98315  1.0000
  H   H2631     1.0  0.76864  0.53902  0.90337  1.0000
  C   C2620     1.0  0.97472  0.50787  0.85200  1.0000
  C   C2621     1.0  0.76699  0.53741  0.94121  1.0000
  H   H2632     1.0  0.90909  0.47394  0.98876  1.0000
  Fe  Fe452     1.0  0.88742  0.46179  0.95658  1.0000
  H   H2633     1.0  0.87891  0.43186  0.95651  1.0000
  Fe  Fe453     1.0  0.98329  0.44914  0.76959  1.0000
  H   H2634     1.0  0.93742  0.50682  0.80963  1.0000
  C   C2622     1.0  0.81388  0.50301  0.98729  1.0000
  H   H2635     1.0  0.98618  0.41549  0.75099  1.0000
  C   C2623     1.0  0.77808  0.53995  0.93854  1.0000
  H   H2636     1.0  0.64797  0.39479  0.96815  1.0000
  H   H2637     1.0  0.95071  0.54418  0.76704  1.0000
  Fe  Fe454     1.0  0.80285  0.51315  0.94887  1.0000
  C   C2624     1.0  0.55153  0.33074  0.94599  1.0000
  Fe  Fe455     1.0  0.74689  0.40663  0.97935  1.0000
  H   H2638     1.0  0.98913  0.48345  0.80161  1.0000
  H   H2639     1.0  0.53273  0.60341  0.96753  1.0000
  H   H2640     1.0  0.61287  0.41333  0.96451  1.0000
  H   H2641     1.0  0.91975  0.50489  0.80462  1.0000
  H   H2642     1.0  0.98412  0.46317  0.91055  1.0000
  Fe  Fe456     1.0  0.98041  0.53240  0.80477  1.0000
  C   C2625     1.0  0.95446  0.50147  0.76770  1.0000
  C   C2626     1.0  0.94296  0.50812  0.77053  1.0000
  C   C2627     1.0  0.94053  0.51676  0.77710  1.0000
  C   C2628     1.0  0.94963  0.51881  0.78071  1.0000
  C   C2629     1.0  0.96116  0.51250  0.77739  1.0000
  C   C2630     1.0  0.96358  0.50400  0.77075  1.0000
  H   H2643     1.0  0.93587  0.50621  0.76812  1.0000
  H   H2644     1.0  0.72659  0.41438  0.96855  1.0000
  H   H2645     1.0  0.96824  0.51383  0.78024  1.0000
  H   H2646     1.0  0.97255  0.49939  0.76802  1.0000
  S   S906      1.0  0.99531  0.53429  0.78907  1.0000
  C   C2631     1.0  0.96107  0.51072  0.83970  1.0000
  C   C2632     1.0  0.85018  0.50601  0.95363  1.0000
  Fe  Fe457     1.0  0.98157  0.54720  0.78018  1.0000
  S   S907      1.0  0.90989  0.42907  0.98095  1.0000
  H   H2647     1.0  0.74696  0.45990  0.98709  1.0000
  H   H2648     1.0  0.95359  0.50862  0.83821  1.0000
  H   H2649     1.0  0.64421  0.37694  0.96523  1.0000
  H   H2650     1.0  0.80930  0.50108  0.97216  1.0000
  H   H2651     1.0  0.81870  0.49397  0.98925  1.0000
  C   C2633     1.0  0.98185  0.43408  0.75055  1.0000
  H   H2652     1.0  0.91593  0.48518  0.91330  1.0000
  H   H2653     1.0  0.67289  0.44667  0.98240  1.0000
  H   H2654     1.0  0.65877  0.46520  0.97327  1.0000
  S   S908      1.0  0.65370  0.51249  0.98783  1.0000
  H   H2655     1.0  0.92361  0.50145  0.89821  1.0000
  N   N219      1.0  0.83172  0.37308  0.96592  1.0000
  S   S909      1.0  0.97741  0.53378  0.77344  1.0000
  C   C2634     1.0  0.93823  0.50014  0.80488  1.0000
  H   H2656     1.0  0.63227  0.41318  0.96773  1.0000
  C   C2635     1.0  0.95723  0.45723  0.91427  1.0000
  C   C2636     1.0  0.95458  0.46949  0.91248  1.0000
  C   C2637     1.0  0.94463  0.47532  0.91960  1.0000
  C   C2638     1.0  0.93710  0.46897  0.92844  1.0000
  C   C2639     1.0  0.93977  0.45668  0.93035  1.0000
  C   C2640     1.0  0.94988  0.45083  0.92333  1.0000
  H   H2657     1.0  0.96015  0.47454  0.90563  1.0000
  H   H2658     1.0  0.94262  0.48483  0.91809  1.0000
  H   H2659     1.0  0.93403  0.45171  0.93716  1.0000
  H   H2660     1.0  0.95191  0.44132  0.92481  1.0000
  Fe  Fe458     1.0  0.90522  0.44751  0.97078  1.0000
  C   C2641     1.0  0.84660  0.48154  0.93724  1.0000
  C   C2642     1.0  0.85315  0.47135  0.94325  1.0000
  C   C2643     1.0  0.86482  0.47076  0.94326  1.0000
  C   C2644     1.0  0.88148  0.41861  0.97935  1.0000
  C   C2645     1.0  0.74558  0.51236  0.97258  1.0000
  H   H2661     1.0  0.83754  0.48201  0.93737  1.0000
  H   H2662     1.0  0.84905  0.46406  0.94811  1.0000
  C   C2646     1.0  0.99075  0.45150  0.81787  1.0000
  H   H2663     1.0  0.65273  0.50911  0.96271  1.0000
  H   H2664     1.0  0.79645  0.53535  0.98039  1.0000
  C   C2647     1.0  0.98071  0.56812  0.75621  1.0000
  C   C2648     1.0  0.85530  0.49794  0.97258  1.0000
  Fe  Fe459     1.0  0.66877  0.41247  0.98425  1.0000
  S   S910      1.0  0.64944  0.48742  0.97971  1.0000
  H   H2665     1.0  0.64375  0.52881  0.95289  1.0000
  Fe  Fe460     1.0  0.98964  0.52068  0.78405  1.0000
  H   H2666     1.0  0.81325  0.44786  0.95284  1.0000
  H   H2667     1.0  0.78013  0.45983  0.96777  1.0000
  C   C2649     1.0  0.92821  0.49911  0.80204  1.0000
  C   C2650     1.0  0.68563  0.55712  0.95891  1.0000
  H   H2668     1.0  0.86258  0.40548  0.94075  1.0000
  H   H2669     1.0  0.74551  0.50753  0.96640  1.0000
  C   C2651     1.0  0.75805  0.50584  0.91606  1.0000
  C   C2652     1.0  0.76574  0.50693  0.90499  1.0000
  C   C2653     1.0  0.77593  0.51111  0.90311  1.0000
  C   C2654     1.0  0.77867  0.51373  0.91243  1.0000
  C   C2655     1.0  0.77111  0.51237  0.92356  1.0000
  C   C2656     1.0  0.76070  0.50867  0.92531  1.0000
  H   H2670     1.0  0.76369  0.50481  0.89779  1.0000
  H   H2671     1.0  0.78173  0.51221  0.89446  1.0000
  H   H2672     1.0  0.77304  0.51457  0.93073  1.0000
  H   H2673     1.0  0.75484  0.50788  0.93387  1.0000
  H   H2674     1.0  0.74064  0.45002  0.97339  1.0000
  C   C2657     1.0  0.59270  0.56581  0.97396  1.0000
  C   C2658     1.0  0.67909  0.53267  0.95433  1.0000
  C   C2659     1.0  0.68080  0.53991  0.94307  1.0000
  C   C2660     1.0  0.67150  0.54886  0.93958  1.0000
  S   S911      1.0  0.65129  0.41346  0.98050  1.0000
  C   C2661     1.0  0.82093  0.44948  0.97717  1.0000
  H   H2675     1.0  0.68622  0.52569  0.95704  1.0000
  H   H2676     1.0  0.67282  0.55449  0.93088  1.0000
  H   H2677     1.0  0.52475  0.64992  0.94730  1.0000
  N   N220      1.0  0.93696  0.46916  0.89527  1.0000
  C   C2662     1.0  0.94950  0.56052  0.75418  1.0000
  H   H2678     1.0  0.92457  0.46462  0.91128  1.0000
  S   S912      1.0  0.84926  0.39237  0.97710  1.0000
  C   C2663     1.0  0.68156  0.51205  0.93956  1.0000
  C   C2664     1.0  0.56309  0.63846  0.96906  1.0000
  C   C2665     1.0  0.57251  0.63210  0.97436  1.0000
  C   C2666     1.0  0.59773  0.54489  0.97343  1.0000
  C   C2667     1.0  0.86349  0.41429  0.94017  1.0000
  H   H2679     1.0  0.57262  0.62318  0.97930  1.0000
  C   C2668     1.0  0.77814  0.54406  0.91787  1.0000
  S   S913      1.0  0.82761  0.44048  0.98851  1.0000
  C   C2669     1.0  0.65863  0.54312  0.95843  1.0000
  H   H2680     1.0  0.54163  0.62065  0.95770  1.0000
  C   C2670     1.0  0.69743  0.55378  0.95337  1.0000
  H   H2681     1.0  0.87921  0.47960  0.93670  1.0000
  C   C2671     1.0  0.80122  0.52629  0.98233  1.0000
  H   H2682     1.0  0.79237  0.54521  0.92460  1.0000
  N   N221      1.0  0.70308  0.55040  0.97173  1.0000
  C   C2672     1.0  0.94110  0.47807  0.88682  1.0000
  C   C2673     1.0  0.90082  0.42087  0.97929  1.0000
  C   C2674     1.0  0.96511  0.50508  0.85003  1.0000
  C   C2675     1.0  0.73487  0.45603  0.95704  1.0000
  Fe  Fe461     1.0  0.89372  0.47255  0.97344  1.0000
  C   C2676     1.0  0.83210  0.52095  0.95124  1.0000
  C   C2677     1.0  0.71991  0.47492  0.96674  1.0000
  C   C2678     1.0  0.72003  0.47424  0.95538  1.0000
  C   C2679     1.0  0.72744  0.46479  0.95057  1.0000
  C   C2680     1.0  0.98149  0.55916  0.75068  1.0000
  S   S914      1.0  0.52545  0.34414  0.97048  1.0000
  H   H2683     1.0  0.71437  0.48100  0.95028  1.0000
  H   H2684     1.0  0.72751  0.46434  0.94175  1.0000
  C   C2681     1.0  0.79922  0.39912  0.95152  1.0000
  C   C2682     1.0  0.80887  0.39712  0.94218  1.0000
  C   C2683     1.0  0.81960  0.39947  0.94193  1.0000
  C   C2684     1.0  0.82086  0.40351  0.95116  1.0000
  C   C2685     1.0  0.81124  0.40546  0.96056  1.0000
  C   C2686     1.0  0.80037  0.40337  0.96069  1.0000
  H   H2685     1.0  0.80800  0.39389  0.93506  1.0000
  H   H2686     1.0  0.82699  0.39801  0.93461  1.0000
  C   C2687     1.0  0.98033  0.51627  0.84361  1.0000
  C   C2688     1.0  0.92285  0.48330  0.90568  1.0000
  C   C2689     1.0  0.94283  0.54394  0.75324  1.0000
  H   H2687     1.0  0.86418  0.44566  0.97573  1.0000
  C   C2690     1.0  0.53378  0.34412  0.98026  1.0000
  C   C2691     1.0  0.81410  0.45166  0.95958  1.0000
  S   S915      1.0  0.73818  0.53250  0.95697  1.0000
  C   C2692     1.0  0.86363  0.49025  0.93070  1.0000
  C   C2693     1.0  0.74389  0.53084  0.97758  1.0000
  C   C2694     1.0  0.92925  0.49074  0.79565  1.0000
  N   N222      1.0  0.94898  0.49307  0.80139  1.0000
  H   H2688     1.0  0.75316  0.53604  0.93419  1.0000
  H   H2689     1.0  0.81444  0.37872  0.96251  1.0000
  C   C2695     1.0  0.56314  0.64994  0.96248  1.0000
  C   C2696     1.0  0.80926  0.46357  0.95955  1.0000
  H   H2690     1.0  0.95353  0.56458  0.75852  1.0000
  S   S916      1.0  0.71139  0.48737  0.97213  1.0000
  C   C2697     1.0  0.76186  0.54178  0.91106  1.0000
  H   H2691     1.0  0.67345  0.55942  0.97536  1.0000
  H   H2692     1.0  0.93159  0.52165  0.77962  1.0000
  H   H2693     1.0  0.50764  0.64362  0.96192  1.0000
  H   H2694     1.0  0.70798  0.42161  0.96146  1.0000
  S   S917      1.0  0.98493  0.43221  0.76437  1.0000
  C   C2698     1.0  0.68181  0.50325  0.94979  1.0000
  C   C2699     1.0  0.76170  0.53820  0.93205  1.0000
  N   N223      1.0  0.60092  0.55539  0.97423  1.0000
  H   H2695     1.0  0.58933  0.63220  0.97701  1.0000
  C   C2700     1.0  0.99262  0.45321  0.83683  1.0000
  C   C2701     1.0  0.96686  0.51891  0.83118  1.0000
  H   H2696     1.0  0.67083  0.52674  0.93004  1.0000
  H   H2697     1.0  0.75683  0.55086  0.90826  1.0000
  H   H2698     1.0  0.53763  0.33098  0.93807  1.0000
  H   H2699     1.0  0.81218  0.40854  0.96772  1.0000
  Fe  Fe462     1.0  0.59670  0.33388  0.98178  1.0000
  Fe  Fe463     1.0  0.50597  0.34858  0.97832  1.0000
  H   H2700     1.0  0.73369  0.38226  0.97238  1.0000
  C   C2702     1.0  0.95004  0.48477  0.79526  1.0000
  C   C2703     1.0  0.94023  0.48351  0.79224  1.0000
  H   H2701     1.0  0.95854  0.47920  0.79248  1.0000
  H   H2702     1.0  0.94126  0.47710  0.78708  1.0000
  C   C2704     1.0  0.97504  0.46376  0.82948  1.0000
  H   H2703     1.0  0.96077  0.48740  0.81282  1.0000
  H   H2704     1.0  0.77553  0.52867  0.97899  1.0000
  H   H2705     1.0  0.72156  0.39246  0.95926  1.0000
  H   H2706     1.0  0.75584  0.53561  0.91390  1.0000
  C   C2705     1.0  0.94608  0.56665  0.74364  1.0000
  H   H2707     1.0  0.67882  0.55967  0.95393  1.0000
  H   H2708     1.0  0.75893  0.44083  0.98251  1.0000
  C   C2706     1.0  0.80251  0.51878  0.97490  1.0000
  H   H2709     1.0  0.98691  0.56984  0.80227  1.0000
  C   C2707     1.0  0.82004  0.44464  0.96832  1.0000
  N   N224      1.0  0.74045  0.38958  0.95434  1.0000
  H   H2710     1.0  0.70383  0.50572  0.98663  1.0000
  C   C2708     1.0  0.83833  0.37028  0.97417  1.0000
  C   C2709     1.0  0.52716  0.61221  0.96624  1.0000
  N   N225      1.0  0.62659  0.38505  0.96327  1.0000
  C   C2710     1.0  0.61792  0.39514  0.96295  1.0000
  S   S918      1.0  0.99143  0.47834  0.85788  1.0000
  C   C2711     1.0  0.61985  0.40542  0.96449  1.0000
  H   H2711     1.0  0.85327  0.46614  0.96941  1.0000
  C   C2712     1.0  0.71295  0.44010  0.97839  1.0000
  C   C2713     1.0  0.69934  0.40134  0.98577  1.0000
  C   C2714     1.0  0.85669  0.44967  0.98182  1.0000
  H   H2712     1.0  0.55055  0.33863  0.96888  1.0000
  N   N226      1.0  0.66071  0.51882  0.94628  1.0000
  S   S919      1.0  0.98513  0.56468  0.76955  1.0000
  S   S920      1.0  0.73287  0.39640  0.98866  1.0000
  H   H2713     1.0  0.51104  0.60631  0.97453  1.0000
  N   N227      1.0  0.76045  0.47559  0.93439  1.0000
  C   C2715     1.0  0.75568  0.47615  0.94594  1.0000
  C   C2716     1.0  0.77114  0.47834  0.92893  1.0000
  C   C2717     1.0  0.76153  0.47975  0.95228  1.0000
  C   C2718     1.0  0.77725  0.48196  0.93501  1.0000
  C   C2719     1.0  0.77237  0.48271  0.94674  1.0000
  C   C2720     1.0  0.75424  0.47152  0.92805  1.0000
  H   H2714     1.0  0.74724  0.47394  0.95026  1.0000
  H   H2715     1.0  0.77493  0.47793  0.91977  1.0000
  H   H2716     1.0  0.75764  0.48030  0.96140  1.0000
  H   H2717     1.0  0.78570  0.48422  0.93066  1.0000
  H   H2718     1.0  0.77702  0.48554  0.95152  1.0000
  H   H2719     1.0  0.75705  0.47453  0.91836  1.0000
  H   H2720     1.0  0.75585  0.46175  0.93038  1.0000
  H   H2721     1.0  0.74461  0.47526  0.93036  1.0000
  H   H2722     1.0  0.88744  0.43537  0.94174  1.0000
  H   H2723     1.0  0.96370  0.52327  0.82324  1.0000
  C   C2721     1.0  0.85615  0.43533  0.93579  1.0000
  H   H2724     1.0  0.60925  0.58323  0.97604  1.0000
  C   C2722     1.0  0.84077  0.46618  0.98602  1.0000
  H   H2725     1.0  0.88953  0.42040  0.95005  1.0000
  H   H2726     1.0  0.84782  0.42287  0.93344  1.0000
  S   S921      1.0  0.74521  0.42452  0.98224  1.0000
  C   C2723     1.0  0.74314  0.52467  0.96975  1.0000
  H   H2727     1.0  0.86596  0.49283  0.95646  1.0000
  C   C2724     1.0  0.78367  0.54337  0.92680  1.0000
  C   C2725     1.0  0.98160  0.46098  0.83810  1.0000
  H   H2728     1.0  0.58868  0.54442  0.97868  1.0000
  H   H2729     1.0  0.86609  0.44543  0.93947  1.0000
  C   C2726     1.0  0.88284  0.42870  0.94817  1.0000
  C   C2727     1.0  0.87267  0.41593  0.94396  1.0000
  H   H2730     1.0  0.95831  0.50299  0.80603  1.0000
  H   H2731     1.0  0.93799  0.45467  0.88815  1.0000
  C   C2728     1.0  0.70850  0.41477  0.96934  1.0000
  N   N228      1.0  0.87355  0.42703  0.94367  1.0000
  H   H2732     1.0  0.84964  0.44300  0.93281  1.0000
  H   H2733     1.0  0.61502  0.37412  0.96459  1.0000
  H   H2734     1.0  0.53914  0.64068  0.94703  1.0000
  H   H2735     1.0  0.97773  0.50368  0.86007  1.0000
  S   S922      1.0  0.96690  0.54643  0.79633  1.0000
  H   H2736     1.0  0.70973  0.55046  0.98629  1.0000
  H   H2737     1.0  0.92161  0.48994  0.79323  1.0000
  Fe  Fe464     1.0  0.85872  0.40558  0.97751  1.0000
  S   S923      1.0  0.91263  0.46281  0.96988  1.0000
  H   H2738     1.0  0.69322  0.43512  0.97758  1.0000
  Fe  Fe465     1.0  0.64016  0.50325  0.98778  1.0000
  C   C2729     1.0  0.51317  0.63480  0.96304  1.0000
  H   H2739     1.0  0.53170  0.64727  0.95948  1.0000
  C   C2730     1.0  0.66082  0.51005  0.95620  1.0000
  C   C2731     1.0  0.98734  0.48868  0.81780  1.0000
  S   S924      1.0  0.87838  0.40040  0.97193  1.0000
  C   C2732     1.0  0.85517  0.42406  0.93609  1.0000
  C   C2733     1.0  0.86546  0.43666  0.93963  1.0000
  S   S925      1.0  0.81697  0.49663  0.95001  1.0000
  H   H2740     1.0  0.88450  0.43312  0.98422  1.0000
  Fe  Fe466     1.0  0.99589  0.47512  0.87530  1.0000
  H   H2741     1.0  0.74948  0.39624  0.93695  1.0000
  C   C2734     1.0  0.64953  0.52688  0.94440  1.0000
  H   H2742     1.0  0.87893  0.40827  0.94739  1.0000
  H   H2743     1.0  0.65097  0.53549  0.93867  1.0000
  H   H2744     1.0  0.97887  0.49467  0.81748  1.0000
  C   C2735     1.0  0.92781  0.47165  0.90450  1.0000
  C   C2736     1.0  0.52815  0.34717  0.99113  1.0000
  H   H2745     1.0  0.79298  0.40480  0.96801  1.0000
  H   H2746     1.0  0.74229  0.54034  0.97533  1.0000
  C   C2737     1.0  0.54613  0.34100  0.97724  1.0000
  H   H2747     1.0  0.84283  0.50502  0.98697  1.0000
  S   S926      1.0  0.89267  0.47868  0.95444  1.0000
  C   C2738     1.0  0.73475  0.45664  0.96844  1.0000
  C   C2739     1.0  0.71904  0.41067  0.97335  1.0000
  S   S927      1.0  0.84801  0.42060  0.96678  1.0000
  C   C2740     1.0  0.63736  0.38495  0.96484  1.0000
  H   H2748     1.0  0.82370  0.43542  0.96833  1.0000
  C   C2741     1.0  0.78909  0.44163  0.97173  1.0000
  H   H2749     1.0  0.54597  0.33683  0.95148  1.0000
  H   H2750     1.0  0.82283  0.52270  0.95631  1.0000
  N   N229      1.0  0.70090  0.44696  0.98156  1.0000
  S   S928      1.0  0.59862  0.37393  0.98775  1.0000
  H   H2751     1.0  0.95174  0.45552  0.89058  1.0000
  C   C2742     1.0  0.94206  0.45692  0.89413  1.0000
  C   C2743     1.0  0.87012  0.48014  0.93690  1.0000
  H   H2752     1.0  0.69007  0.49729  0.95127  1.0000
  H   H2753     1.0  0.98813  0.49206  0.83402  1.0000
  Fe  Fe467     1.0  0.97911  0.46083  0.79024  1.0000
  Fe  Fe468     1.0  0.83592  0.42289  0.98413  1.0000
  H   H2754     1.0  0.58375  0.56623  0.97364  1.0000
  S   S929      1.0  0.81081  0.52125  0.93037  1.0000
  H   H2755     1.0  0.69984  0.55364  0.94406  1.0000
  H   H2756     1.0  0.80638  0.47767  0.96836  1.0000
  C   C2744     1.0  0.66796  0.53424  0.96201  1.0000
  S   S930      1.0  0.97091  0.46277  0.80892  1.0000
  H   H2757     1.0  0.62942  0.36635  0.96650  1.0000
  Fe  Fe469     1.0  0.64122  0.52917  0.98180  1.0000
  N   N230      1.0  0.76741  0.54124  0.92056  1.0000
  C   C2745     1.0  0.58200  0.64870  0.96648  1.0000
  H   H2758     1.0  0.68908  0.55363  0.98655  1.0000
  C   C2746     1.0  0.88855  0.42504  0.98119  1.0000
  C   C2747     1.0  0.81970  0.37639  0.96905  1.0000
  C   C2748     1.0  0.85793  0.49835  0.96051  1.0000
  H   H2759     1.0  0.83574  0.47498  0.98321  1.0000
  C   C2749     1.0  0.75028  0.39127  0.94573  1.0000
  H   H2760     1.0  0.94082  0.45072  0.90283  1.0000
  C   C2750     1.0  0.70991  0.39713  0.98969  1.0000
  C   C2751     1.0  0.98944  0.56057  0.80126  1.0000
  H   H2761     1.0  0.78236  0.53920  0.94555  1.0000
  H   H2762     1.0  0.60365  0.53669  0.97714  1.0000
  H   H2763     1.0  0.90302  0.39581  0.97058  1.0000
  H   H2764     1.0  0.98612  0.56016  0.79376  1.0000
  C   C2752     1.0  0.99257  0.48719  0.82713  1.0000
  S   S931      1.0  0.64446  0.54483  0.96740  1.0000
  H   H2765     1.0  0.71911  0.44244  0.98217  1.0000
  S   S932      1.0  0.98346  0.47746  0.77829  1.0000
  S   S933      1.0  0.68530  0.41582  0.97070  1.0000
  C   C2753     1.0  0.74784  0.50625  0.98364  1.0000
  H   H2766     1.0  0.52044  0.56636  0.98536  1.0000
  C   C2754     1.0  0.70609  0.55036  0.95997  1.0000
  C   C2755     1.0  0.83769  0.37300  0.95359  1.0000
  H   H2767     1.0  0.62724  0.37421  0.95193  1.0000
  C   C2756     1.0  0.69151  0.55365  0.97722  1.0000
  C   C2757     1.0  0.88672  0.40812  0.97541  1.0000
  C   C2758     1.0  0.97959  0.45906  0.81936  1.0000
  C   C2759     1.0  0.81606  0.46140  0.97717  1.0000
  H   H2768     1.0  0.59823  0.54503  0.96411  1.0000
  C   C2760     1.0  0.68014  0.44975  0.98322  1.0000
  C   C2761     1.0  0.89894  0.40393  0.97362  1.0000
  C   C2762     1.0  0.69856  0.41022  0.97564  1.0000
  C   C2763     1.0  0.51347  0.57280  0.98943  1.0000
  C   C2764     1.0  0.85056  0.46118  0.97826  1.0000
  H   H2769     1.0  0.78273  0.54632  0.90876  1.0000
  H   H2770     1.0  0.75322  0.37481  0.97729  1.0000
  S   S934      1.0  0.84328  0.50435  0.92488  1.0000
  H   H2771     1.0  0.96641  0.46960  0.83067  1.0000
  Fe  Fe470     1.0  0.83769  0.40762  0.96758  1.0000
  C   C2765     1.0  0.81030  0.46850  0.96827  1.0000
  H   H2772     1.0  0.91541  0.40695  0.97422  1.0000
  H   H2773     1.0  0.85237  0.50650  0.94423  1.0000
  C   C2766     1.0  0.90596  0.41021  0.97569  1.0000
  H   H2774     1.0  0.94817  0.47615  0.87935  1.0000
  H   H2775     1.0  0.66664  0.52862  0.97067  1.0000
  H   H2776     1.0  0.71333  0.43060  0.98214  1.0000
  C   C2767     1.0  0.72720  0.46607  0.97333  1.0000
  H   H2777     1.0  0.97805  0.46481  0.84577  1.0000
  H   H2778     1.0  0.72074  0.54828  0.97317  1.0000
  S   S935      1.0  0.79632  0.52427  0.96244  1.0000
  C   C2768     1.0  0.79521  0.43294  0.97946  1.0000
  C   C2769     1.0  0.61217  0.55486  0.97478  1.0000
  C   C2770     1.0  0.76260  0.38092  0.95962  1.0000
  H   H2779     1.0  0.78065  0.50829  0.98051  1.0000
  C   C2771     1.0  0.69893  0.45720  0.98522  1.0000
  H   H2780     1.0  0.78332  0.46434  0.98520  1.0000
  Fe  Fe471     1.0  0.99143  0.45920  0.86246  1.0000
  C   C2772     1.0  0.61537  0.56485  0.97537  1.0000
  H   H2781     1.0  0.71352  0.53657  0.98196  1.0000
  C   C2773     1.0  0.81401  0.37713  0.98068  1.0000
  H   H2782     1.0  0.60935  0.39519  0.96182  1.0000
  H   H2783     1.0  0.76701  0.54614  0.98784  1.0000
  S   S936      1.0  0.58380  0.35141  0.98077  1.0000
  C   C2774     1.0  0.63957  0.39506  0.96643  1.0000
  C   C2775     1.0  0.80868  0.50708  0.97751  1.0000
  S   S937      1.0  0.62856  0.51989  0.97996  1.0000
  H   H2784     1.0  0.70619  0.46010  0.98621  1.0000
  H   H2785     1.0  0.55593  0.65487  0.95829  1.0000
  H   H2786     1.0  0.82961  0.51854  0.97434  1.0000
  C   C2776     1.0  0.78477  0.45298  0.97382  1.0000
  C   C2777     1.0  0.51497  0.61385  0.97024  1.0000
  C   C2778     1.0  0.79704  0.43577  0.98914  1.0000
  C   C2779     1.0  0.50790  0.62522  0.96873  1.0000
  H   H2787     1.0  0.98493  0.55505  0.80925  1.0000
  C   C2780     1.0  0.65022  0.46496  0.97909  1.0000
  H   H2788     1.0  0.99428  0.44780  0.81010  1.0000
  H   H2789     1.0  0.65138  0.44690  0.97898  1.0000
  S   S938      1.0  0.76531  0.39964  0.98220  1.0000
  C   C2781     1.0  0.57252  0.65510  0.96130  1.0000
  S   S939      1.0  0.53095  0.58360  0.98711  1.0000
  H   H2790     1.0  0.97595  0.58684  0.75519  1.0000
  H   H2791     1.0  0.84443  0.36468  0.95291  1.0000
  C   C2782     1.0  0.68262  0.55701  0.97092  1.0000
  S   S940      1.0  0.99488  0.44903  0.78117  1.0000
  C   C2783     1.0  0.60699  0.57546  0.97531  1.0000
  H   H2792     1.0  0.98514  0.55016  0.75440  1.0000
  H   H2793     1.0  0.84787  0.36791  0.97167  1.0000
  H   H2794     1.0  0.83216  0.51710  0.94387  1.0000
  H   H2795     1.0  0.61871  0.54663  0.97497  1.0000
  C   C2784     1.0  0.63074  0.40534  0.96627  1.0000
  H   H2796     1.0  0.94156  0.53504  0.75691  1.0000
  C   C2785     1.0  0.64605  0.45459  0.98230  1.0000
  C   C2786     1.0  0.55281  0.34102  0.98500  1.0000
  H   H2797     1.0  0.80451  0.38008  0.98304  1.0000
  C   C2787     1.0  0.71973  0.40187  0.98357  1.0000
  C   C2788     1.0  0.59560  0.57598  0.97454  1.0000
  C   C2789     1.0  0.99365  0.46020  0.90861  1.0000
  N   N231      1.0  0.83999  0.51290  0.95866  1.0000
  H   H2798     1.0  0.71522  0.54757  0.95564  1.0000
  H   H2799     1.0  0.62427  0.56429  0.97600  1.0000
  C   C2790     1.0  0.83748  0.51277  0.97043  1.0000
  C   C2791     1.0  0.82069  0.37426  0.98916  1.0000
  H   H2800     1.0  0.79841  0.42404  0.97803  1.0000
  C   C2792     1.0  0.64336  0.47500  0.98327  1.0000
  C   C2793     1.0  0.83292  0.37071  0.98592  1.0000
  C   C2794     1.0  0.97651  0.57985  0.75097  1.0000
  H   H2801     1.0  0.56233  0.33867  0.98259  1.0000
  H   H2802     1.0  0.72731  0.40438  0.94901  1.0000
  C   C2795     1.0  0.71222  0.54625  0.97860  1.0000
  C   C2796     1.0  0.67806  0.46025  0.98689  1.0000
  H   H2803     1.0  0.58545  0.64832  0.99084  1.0000
  H   H2804     1.0  0.74917  0.49676  0.98604  1.0000
  H   H2805     1.0  0.72809  0.39120  0.94425  1.0000
  H   H2806     1.0  0.71608  0.44162  0.96867  1.0000
  H   H2807     1.0  0.49994  0.56401  0.99067  1.0000
  C   C2797     1.0  0.50185  0.57148  0.99241  1.0000
  Fe  Fe472     1.0  0.59472  0.35591  0.99056  1.0000
  S   S941      1.0  0.60846  0.33916  0.98994  1.0000
  C   C2798     1.0  0.74589  0.52475  0.98870  1.0000
  C   C2799     1.0  0.63482  0.45432  0.98944  1.0000
  C   C2800     1.0  0.61137  0.37564  0.99082  1.0000
  H   H2808     1.0  0.60434  0.39405  0.99103  1.0000
  H   H2809     1.0  0.72334  0.50501  0.98977  1.0000
  H   H2810     1.0  0.66917  0.46551  0.98886  1.0000
  H   H2811     1.0  0.62088  0.35769  0.99110  1.0000
  C   C2801     1.0  0.63211  0.47478  0.99042  1.0000
  C   C2802     1.0  0.75942  0.44337  0.99020  1.0000
  H   H2812     1.0  0.49840  0.62663  0.97187  1.0000
  H   H2813     1.0  0.54107  0.65859  0.97687  1.0000
  H   H2814     1.0  0.56711  0.32857  0.95232  1.0000
  C   C2803     1.0  0.62116  0.36630  0.99180  1.0000
  H   H2815     1.0  0.69183  0.39762  0.99058  1.0000
  H   H2816     1.0  0.72650  0.48929  0.99062  1.0000
  H   H2817     1.0  0.68607  0.47218  0.99068  1.0000
  C   C2804     1.0  0.77847  0.50595  0.99029  1.0000
  N   N232      1.0  0.79294  0.44698  0.99101  1.0000
  C   C2805     1.0  0.61189  0.38677  0.99177  1.0000
  C   C2806     1.0  0.54682  0.32744  0.93845  1.0000
  C   C2807     1.0  0.80625  0.52218  0.99221  1.0000
  H   H2818     1.0  0.83819  0.36864  0.99244  1.0000
  C   C2808     1.0  0.74734  0.51253  0.99189  1.0000
  C   C2809     1.0  0.62664  0.98644  0.20143  1.0000
  Fe  Fe473     1.0  0.55683  0.69016  0.03224  1.0000
  C   C2810     1.0  0.58097  0.66975  0.01594  1.0000
  S   S942      1.0  0.57415  0.69037  0.03543  1.0000
  C   C2811     1.0  0.54994  0.83082  0.00896  1.0000
  H   H2819     1.0  0.55807  0.93115  0.16376  1.0000
  Fe  Fe474     1.0  0.54058  0.70479  0.01631  1.0000
  C   C2812     1.0  0.51727  0.93051  0.17588  1.0000
  C   C2813     1.0  0.50857  0.98970  0.14390  1.0000
  Fe  Fe475     1.0  0.55629  0.90924  0.20028  1.0000
  S   S943      1.0  0.56888  0.92043  0.18887  1.0000
  S   S944      1.0  0.54881  0.89856  0.19279  1.0000
  Fe  Fe476     1.0  0.55197  0.92035  0.22156  1.0000
  S   S945      1.0  0.56344  0.93298  0.21151  1.0000
  H   H2820     1.0  0.51081  0.66358  0.03454  1.0000
  Fe  Fe477     1.0  0.55556  0.93496  0.19635  1.0000
  S   S946      1.0  0.54864  0.95169  0.18451  1.0000
  Fe  Fe478     1.0  0.57571  0.91719  0.20518  1.0000
  S   S947      1.0  0.59436  0.91348  0.20698  1.0000
  S   S948      1.0  0.54256  0.92398  0.20704  1.0000
  S   S949      1.0  0.56454  0.90434  0.21599  1.0000
  Fe  Fe479     1.0  0.57183  0.75581  0.02228  1.0000
  H   H2821     1.0  0.56479  0.71922  0.05309  1.0000
  S   S950      1.0  0.58712  0.74020  0.02188  1.0000
  Fe  Fe480     1.0  0.55459  0.77342  0.03592  1.0000
  N   N233      1.0  0.53967  0.93431  0.16460  1.0000
  S   S951      1.0  0.54794  0.77953  0.05294  1.0000
  H   H2822     1.0  0.51294  0.71564  0.04301  1.0000
  H   H2823     1.0  0.55111  0.94611  0.15816  1.0000
  Fe  Fe481     1.0  0.54513  0.67804  0.02084  1.0000
  S   S952      1.0  0.55449  0.75519  0.03505  1.0000
  S   S953      1.0  0.57278  0.77325  0.02462  1.0000
  Fe  Fe482     1.0  0.51537  0.90881  0.13672  1.0000
  S   S954      1.0  0.53277  0.89699  0.13079  1.0000
  C   C2814     1.0  0.54075  0.87754  0.17927  1.0000
  Fe  Fe483     1.0  0.52151  0.93006  0.11840  1.0000
  S   S955      1.0  0.53941  0.91992  0.11102  1.0000
  S   S956      1.0  0.51510  0.94950  0.11136  1.0000
  Fe  Fe484     1.0  0.53017  0.90562  0.11247  1.0000
  S   S957      1.0  0.53612  0.89487  0.09818  1.0000
  Fe  Fe485     1.0  0.54018  0.91218  0.12999  1.0000
  S   S958      1.0  0.55584  0.91026  0.13741  1.0000
  S   S959      1.0  0.51210  0.91641  0.11847  1.0000
  S   S960      1.0  0.52301  0.92338  0.13721  1.0000
  C   C2815     1.0  0.52559  0.92898  0.18242  1.0000
  H   H2824     1.0  0.51825  0.91136  0.07769  1.0000
  Fe  Fe486     1.0  0.52775  0.84253  0.05207  1.0000
  S   S961      1.0  0.52113  0.84017  0.07169  1.0000
  S   S962      1.0  0.54569  0.83409  0.04274  1.0000
  H   H2825     1.0  0.54108  0.97669  0.19015  1.0000
  H   H2826     1.0  0.62617  0.98600  0.19276  1.0000
  H   H2827     1.0  0.50303  0.73057  0.00389  1.0000
  S   S963      1.0  0.51825  0.86154  0.04785  1.0000
  H   H2828     1.0  0.51874  0.85437  0.09769  1.0000
  C   C2816     1.0  0.57110  0.74001  0.99518  1.0000
  H   H2829     1.0  0.49748  0.96964  0.22120  1.0000
  S   S964      1.0  0.50117  0.81736  0.07848  1.0000
  C   C2817     1.0  0.50948  0.86970  0.01630  1.0000
  C   C2818     1.0  0.59634  0.89986  0.23697  1.0000
  S   S965      1.0  0.59976  0.95970  0.21728  1.0000
  C   C2819     1.0  0.52023  0.93404  0.16364  1.0000
  H   H2830     1.0  0.50044  0.92472  0.15331  1.0000
  H   H2831     1.0  0.51487  0.84823  0.11334  1.0000
  C   C2820     1.0  0.50179  0.75828  0.03746  1.0000
  H   H2832     1.0  0.52417  0.76975  0.04297  1.0000
  H   H2833     1.0  0.53986  0.84783  0.02028  1.0000
  C   C2821     1.0  0.51280  0.67471  0.04462  1.0000
  H   H2834     1.0  0.56006  0.96913  0.16710  1.0000
  C   C2822     1.0  0.55878  0.74239  0.99770  1.0000
  C   C2823     1.0  0.52305  0.95883  0.11307  1.0000
  C   C2824     1.0  0.51968  0.97106  0.10905  1.0000
  C   C2825     1.0  0.52572  0.97865  0.11065  1.0000
  C   C2826     1.0  0.53522  0.97401  0.11619  1.0000
  C   C2827     1.0  0.53860  0.96178  0.12015  1.0000
  C   C2828     1.0  0.53254  0.95421  0.11861  1.0000
  S   S966      1.0  0.52868  0.69225  0.02181  1.0000
  H   H2835     1.0  0.52307  0.98806  0.10756  1.0000
  H   H2836     1.0  0.54601  0.95814  0.12435  1.0000
  H   H2837     1.0  0.53528  0.94479  0.12163  1.0000
  C   C2829     1.0  0.52926  0.88153  0.16127  1.0000
  C   C2830     1.0  0.50467  0.80922  0.04504  1.0000
  H   H2838     1.0  0.50197  0.94401  0.23534  1.0000
  H   H2839     1.0  0.54090  0.98917  0.14052  1.0000
  C   C2831     1.0  0.49858  0.70039  0.99744  1.0000
  H   H2840     1.0  0.51205  0.75003  0.00804  1.0000
  H   H2841     1.0  0.50063  0.81856  0.04365  1.0000
  H   H2842     1.0  0.50255  0.90726  0.24230  1.0000
  Fe  Fe487     1.0  0.50634  0.83451  0.06859  1.0000
  C   C2832     1.0  0.50550  0.86299  0.99765  1.0000
  C   C2833     1.0  0.52746  0.88830  0.09334  1.0000
  C   C2834     1.0  0.53309  0.88097  0.08523  1.0000
  C   C2835     1.0  0.52654  0.87599  0.08074  1.0000
  C   C2836     1.0  0.51425  0.87841  0.08421  1.0000
  H   H2843     1.0  0.51236  0.97467  0.10473  1.0000
  C   C2837     1.0  0.51518  0.89063  0.09690  1.0000
  H   H2844     1.0  0.54259  0.87912  0.08240  1.0000
  H   H2845     1.0  0.53100  0.87034  0.07454  1.0000
  H   H2846     1.0  0.56141  0.81425  0.00574  1.0000
  H   H2847     1.0  0.51072  0.89628  0.10310  1.0000
  C   C2838     1.0  0.54808  0.79449  0.05055  1.0000
  C   C2839     1.0  0.54066  0.80124  0.05860  1.0000
  C   C2840     1.0  0.53994  0.81339  0.05624  1.0000
  C   C2841     1.0  0.54710  0.81874  0.04612  1.0000
  C   C2842     1.0  0.55507  0.81185  0.03845  1.0000
  C   C2843     1.0  0.55532  0.79981  0.04048  1.0000
  H   H2848     1.0  0.53527  0.79717  0.06658  1.0000
  H   H2849     1.0  0.53392  0.81858  0.06232  1.0000
  H   H2850     1.0  0.56093  0.81583  0.03084  1.0000
  H   H2851     1.0  0.56122  0.79465  0.03431  1.0000
  H   H2852     1.0  0.51314  0.88311  0.17450  1.0000
  H   H2853     1.0  0.54453  0.91610  0.06155  1.0000
  H   H2854     1.0  0.52662  0.77014  0.05671  1.0000
  H   H2855     1.0  0.50764  0.76603  0.01922  1.0000
  H   H2856     1.0  0.56301  0.88226  0.15658  1.0000
  H   H2857     1.0  0.55674  0.97261  0.14703  1.0000
  C   C2844     1.0  0.55990  0.87659  0.16524  1.0000
  C   C2845     1.0  0.50490  0.93509  0.24003  1.0000
  C   C2846     1.0  0.52846  0.87932  0.18185  1.0000
  C   C2847     1.0  0.50630  0.66967  0.04028  1.0000
  C   C2848     1.0  0.54216  0.98742  0.14941  1.0000
  H   H2858     1.0  0.56757  0.92237  0.23371  1.0000
  H   H2859     1.0  0.52210  0.87847  0.00301  1.0000
  S   S967      1.0  0.51376  0.83561  0.04942  1.0000
  S   S968      1.0  0.57746  0.98670  0.16885  1.0000
  C   C2849     1.0  0.59685  0.92642  0.20875  1.0000
  C   C2850     1.0  0.59094  0.93746  0.20345  1.0000
  C   C2851     1.0  0.59201  0.94775  0.20582  1.0000
  C   C2852     1.0  0.59898  0.94701  0.21355  1.0000
  C   C2853     1.0  0.60520  0.93601  0.21855  1.0000
  C   C2854     1.0  0.60428  0.92575  0.21602  1.0000
  H   H2860     1.0  0.58557  0.93808  0.19744  1.0000
  H   H2861     1.0  0.58739  0.95622  0.20170  1.0000
  H   H2862     1.0  0.61071  0.93543  0.22442  1.0000
  H   H2863     1.0  0.60918  0.91732  0.21985  1.0000
  C   C2855     1.0  0.53387  0.95423  0.19170  1.0000
  C   C2856     1.0  0.52525  0.95550  0.18561  1.0000
  C   C2857     1.0  0.51402  0.95391  0.19190  1.0000
  C   C2858     1.0  0.51135  0.95137  0.20420  1.0000
  C   C2859     1.0  0.51977  0.95091  0.21024  1.0000
  C   C2860     1.0  0.53105  0.95231  0.20398  1.0000
  H   H2864     1.0  0.52746  0.95688  0.17611  1.0000
  H   H2865     1.0  0.50761  0.95413  0.18724  1.0000
  H   H2866     1.0  0.51781  0.94902  0.21973  1.0000
  H   H2867     1.0  0.53778  0.95117  0.20871  1.0000
  C   C2861     1.0  0.55041  0.90307  0.17743  1.0000
  C   C2862     1.0  0.56126  0.90474  0.17014  1.0000
  C   C2863     1.0  0.56277  0.90716  0.15785  1.0000
  C   C2864     1.0  0.55341  0.90805  0.15279  1.0000
  C   C2865     1.0  0.54244  0.90679  0.16007  1.0000
  C   C2866     1.0  0.54096  0.90429  0.17237  1.0000
  H   H2868     1.0  0.56864  0.90373  0.17395  1.0000
  H   H2869     1.0  0.57128  0.90814  0.15224  1.0000
  H   H2870     1.0  0.53516  0.90747  0.15626  1.0000
  H   H2871     1.0  0.53249  0.90319  0.17797  1.0000
  C   C2867     1.0  0.51394  0.86959  0.99544  1.0000
  S   S969      1.0  0.57222  0.98005  0.20380  1.0000
  C   C2868     1.0  0.57757  0.70435  0.03129  1.0000
  C   C2869     1.0  0.56892  0.71471  0.02935  1.0000
  C   C2870     1.0  0.57176  0.72576  0.02645  1.0000
  C   C2871     1.0  0.58334  0.72650  0.02525  1.0000
  C   C2872     1.0  0.59203  0.71617  0.02704  1.0000
  C   C2873     1.0  0.58913  0.70514  0.03015  1.0000
  H   H2872     1.0  0.56000  0.71427  0.03022  1.0000
  H   H2873     1.0  0.56499  0.73369  0.02506  1.0000
  H   H2874     1.0  0.60101  0.71669  0.02611  1.0000
  H   H2875     1.0  0.59588  0.69720  0.03163  1.0000
  Fe  Fe488     1.0  0.56324  0.78099  0.00989  1.0000
  H   H2876     1.0  0.51277  0.76771  0.05631  1.0000
  H   H2877     1.0  0.57159  0.76382  0.05531  1.0000
  C   C2874     1.0  0.55720  0.82308  0.00182  1.0000
  N   N234      1.0  0.53211  0.91915  0.07731  1.0000
  C   C2875     1.0  0.52651  0.93547  0.08686  1.0000
  S   S970      1.0  0.54299  0.98310  0.11859  1.0000
  S   S971      1.0  0.55685  0.69075  0.01372  1.0000
  C   C2876     1.0  0.53155  0.93592  0.15810  1.0000
  C   C2877     1.0  0.50862  0.88576  0.09230  1.0000
  C   C2878     1.0  0.51029  0.76044  0.02712  1.0000
  S   S972      1.0  0.49769  0.94833  0.21205  1.0000
  C   C2879     1.0  0.51571  0.87320  0.00472  1.0000
  H   H2878     1.0  0.51381  0.93524  0.15850  1.0000
  C   C2880     1.0  0.53511  0.92765  0.08058  1.0000
  H   H2879     1.0  0.51958  0.74089  0.05576  1.0000
  C   C2881     1.0  0.50207  0.80191  0.03946  1.0000
  H   H2880     1.0  0.52284  0.78860  0.06100  1.0000
  C   C2882     1.0  0.51183  0.92577  0.08654  1.0000
  C   C2883     1.0  0.52557  0.74854  0.03739  1.0000
  H   H2881     1.0  0.56427  0.86725  0.16504  1.0000
  H   H2882     1.0  0.53386  0.93852  0.14856  1.0000
  Fe  Fe489     1.0  0.50355  0.85419  0.04691  1.0000
  N   N235      1.0  0.54608  0.98341  0.17186  1.0000
  N   N236      1.0  0.51473  0.78524  0.04916  1.0000
  H   H2883     1.0  0.52893  0.94212  0.08959  1.0000
  H   H2884     1.0  0.52060  0.99297  0.21389  1.0000
  C   C2884     1.0  0.50023  0.98164  0.17627  1.0000
  N   N237      1.0  0.54707  0.87811  0.16789  1.0000
  C   C2885     1.0  0.54151  0.87988  0.15896  1.0000
  H   H2885     1.0  0.51937  0.74051  0.99774  1.0000
  H   H2886     1.0  0.51104  0.87229  0.02348  1.0000
  Fe  Fe490     1.0  0.54685  0.76428  0.01924  1.0000
  H   H2887     1.0  0.52664  0.74125  0.00830  1.0000
  C   C2886     1.0  0.53717  0.84991  0.01175  1.0000
  H   H2888     1.0  0.54652  0.88034  0.14993  1.0000
  C   C2887     1.0  0.50310  0.71401  0.03147  1.0000
  S   S973      1.0  0.50310  0.90029  0.15220  1.0000
  H   H2889     1.0  0.58028  0.71454  0.05251  1.0000
  H   H2890     1.0  0.50279  0.92479  0.08903  1.0000
  H   H2891     1.0  0.58269  0.70847  0.99786  1.0000
  H   H2892     1.0  0.55382  0.74066  0.00673  1.0000
  H   H2893     1.0  0.54876  0.90723  0.07511  1.0000
  H   H2894     1.0  0.52230  0.67247  0.04222  1.0000
  H   H2895     1.0  0.49912  0.88769  0.09506  1.0000
  H   H2896     1.0  0.56207  0.71407  0.00865  1.0000
  C   C2888     1.0  0.53727  0.99252  0.16835  1.0000
  H   H2897     1.0  0.61252  0.97768  0.21038  1.0000
  C   C2889     1.0  0.50145  0.92594  0.23790  1.0000
  H   H2898     1.0  0.50107  0.97250  0.17647  1.0000
  S   S974      1.0  0.56410  0.76360  0.00643  1.0000
  C   C2890     1.0  0.58742  0.67786  0.00846  1.0000
  C   C2891     1.0  0.50700  0.68290  0.05173  1.0000
  C   C2892     1.0  0.51057  0.97106  0.13920  1.0000
  H   H2899     1.0  0.54844  0.82787  0.01845  1.0000
  C   C2893     1.0  0.51450  0.97795  0.14413  1.0000
  C   C2894     1.0  0.61883  0.98187  0.21145  1.0000
  N   N238      1.0  0.51293  0.73183  0.01534  1.0000
  H   H2900     1.0  0.58929  0.73052  0.04606  1.0000
  C   C2895     1.0  0.52219  0.75578  0.02715  1.0000
  H   H2901     1.0  0.55461  0.73471  0.06766  1.0000
  H   H2902     1.0  0.50854  0.92900  0.18029  1.0000
  N   N239      1.0  0.54480  0.84201  0.00407  1.0000
  C   C2896     1.0  0.51557  0.72784  0.02622  1.0000
  H   H2903     1.0  0.50390  0.69305  0.00237  1.0000
  H   H2904     1.0  0.52481  0.70910  0.99527  1.0000
  N   N240      1.0  0.57198  0.73138  0.05700  1.0000
  C   C2897     1.0  0.58163  0.74759  0.05005  1.0000
  H   H2905     1.0  0.50339  0.82028  0.10041  1.0000
  C   C2898     1.0  0.57179  0.75465  0.05593  1.0000
  H   H2906     1.0  0.60724  0.97139  0.23148  1.0000
  C   C2899     1.0  0.51699  0.74627  0.04775  1.0000
  S   S975      1.0  0.54510  0.78248  0.02132  1.0000
  C   C2900     1.0  0.51481  0.93449  0.08987  1.0000
  H   H2907     1.0  0.55425  0.93479  0.14978  1.0000
  H   H2908     1.0  0.55435  0.75544  0.06691  1.0000
  H   H2909     1.0  0.57014  0.71418  0.06657  1.0000
  H   H2910     1.0  0.54724  0.98961  0.18620  1.0000
  H   H2911     1.0  0.51447  0.80993  0.05709  1.0000
  C   C2901     1.0  0.58535  0.89718  0.23923  1.0000
  H   H2912     1.0  0.58914  0.75122  0.04472  1.0000
  C   C2902     1.0  0.55295  0.97624  0.16438  1.0000
  C   C2903     1.0  0.51718  0.79230  0.05478  1.0000
  C   C2904     1.0  0.56229  0.73823  0.06281  1.0000
  S   S976      1.0  0.54102  0.70498  0.03454  1.0000
  H   H2913     1.0  0.54315  0.92994  0.18175  1.0000
  H   H2914     1.0  0.57564  0.73656  0.00236  1.0000
  C   C2905     1.0  0.58163  0.73587  0.05079  1.0000
  Fe  Fe491     1.0  0.59054  0.97616  0.20673  1.0000
  Fe  Fe492     1.0  0.51044  0.85873  0.06746  1.0000
  H   H2915     1.0  0.53477  0.74469  0.03734  1.0000
  H   H2916     1.0  0.52792  0.84906  0.01358  1.0000
  C   C2906     1.0  0.52269  0.88143  0.17275  1.0000
  H   H2917     1.0  0.52481  0.88311  0.15419  1.0000
  H   H2918     1.0  0.51269  0.97810  0.18713  1.0000
  H   H2919     1.0  0.54514  0.87628  0.18634  1.0000
  H   H2920     1.0  0.53767  0.85920  0.00761  1.0000
  C   C2907     1.0  0.50730  0.78987  0.04157  1.0000
  H   H2921     1.0  0.53932  0.69104  0.99551  1.0000
  C   C2908     1.0  0.52144  0.67001  0.99896  1.0000
  H   H2922     1.0  0.57066  0.97782  0.23071  1.0000
  C   C2909     1.0  0.50106  0.86307  0.01851  1.0000
  H   H2923     1.0  0.50812  0.94036  0.09496  1.0000
  H   H2924     1.0  0.52162  0.73144  0.02851  1.0000
  C   C2910     1.0  0.50532  0.72724  0.01243  1.0000
  C   C2911     1.0  0.51131  0.85329  0.10547  1.0000
  C   C2912     1.0  0.53678  0.93102  0.17661  1.0000
  H   H2925     1.0  0.58972  0.68400  0.01202  1.0000
  S   S977      1.0  0.50548  0.87223  0.07908  1.0000
  S   S978      1.0  0.51504  0.69116  0.05473  1.0000
  C   C2913     1.0  0.56208  0.74993  0.06243  1.0000
  Fe  Fe493     1.0  0.53099  0.69075  0.04000  1.0000
  S   S979      1.0  0.54024  0.72029  0.00127  1.0000
  H   H2926     1.0  0.60212  0.89999  0.22830  1.0000
  C   C2914     1.0  0.51981  0.77257  0.05142  1.0000
  C   C2915     1.0  0.57180  0.71924  0.05733  1.0000
  C   C2916     1.0  0.55133  0.93675  0.15874  1.0000
  C   C2917     1.0  0.56400  0.71483  0.99924  1.0000
  C   C2918     1.0  0.50510  0.75142  0.04784  1.0000
  H   H2927     1.0  0.54423  0.92832  0.07848  1.0000
  C   C2919     1.0  0.51239  0.80440  0.05264  1.0000
  C   C2920     1.0  0.54131  0.91122  0.07058  1.0000
  S   S980      1.0  0.53269  0.75942  0.01443  1.0000
  S   S981      1.0  0.54687  0.67565  0.03938  1.0000
  H   H2928     1.0  0.50531  0.78420  0.03719  1.0000
  H   H2929     1.0  0.56271  0.87929  0.17190  1.0000
  H   H2930     1.0  0.52344  0.87934  0.19081  1.0000
  H   H2931     1.0  0.62686  0.98940  0.23223  1.0000
  H   H2932     1.0  0.57827  0.66956  0.02532  1.0000
  H   H2933     1.0  0.58275  0.89540  0.23214  1.0000
  S   S982      1.0  0.54886  0.66535  0.00912  1.0000
  C   C2921     1.0  0.52063  0.91819  0.08014  1.0000
  C   C2922     1.0  0.59071  0.67815  0.99639  1.0000
  C   C2923     1.0  0.61014  0.97883  0.23265  1.0000
  C   C2924     1.0  0.50682  0.98479  0.18222  1.0000
  H   H2934     1.0  0.50660  0.86221  0.10704  1.0000
  C   C2925     1.0  0.55110  0.97812  0.15305  1.0000
  C   C2926     1.0  0.54786  0.98121  0.18382  1.0000
  H   H2935     1.0  0.52339  0.92636  0.19196  1.0000
  S   S983      1.0  0.59872  0.98375  0.18818  1.0000
  C   C2927     1.0  0.51793  0.74140  0.00695  1.0000
  H   H2936     1.0  0.51591  0.83071  0.10484  1.0000
  C   C2928     1.0  0.50733  0.83551  0.10313  1.0000
  C   C2929     1.0  0.51149  0.66782  0.00769  1.0000
  H   H2937     1.0  0.52207  0.97424  0.14810  1.0000
  C   C2930     1.0  0.51070  0.71889  0.03445  1.0000
  C   C2931     1.0  0.49886  0.86001  0.00912  1.0000
  N   N241      1.0  0.61901  0.98284  0.22238  1.0000
  C   C2932     1.0  0.50031  0.82956  0.10062  1.0000
  C   C2933     1.0  0.57196  0.95461  0.23799  1.0000
  C   C2934     1.0  0.56526  0.97538  0.23939  1.0000
  N   N242      1.0  0.50357  0.84725  0.10318  1.0000
  H   H2938     1.0  0.60232  0.98619  0.23399  1.0000
  H   H2939     1.0  0.56615  0.94919  0.23757  1.0000
  H   H2940     1.0  0.53806  0.90376  0.06994  1.0000
  H   H2941     1.0  0.57379  0.99105  0.14566  1.0000
  H   H2942     1.0  0.52522  0.67717  0.99879  1.0000
  S   S984      1.0  0.54331  0.92040  0.24068  1.0000
  H   H2943     1.0  0.57606  0.95828  0.22876  1.0000
  N   N243      1.0  0.58083  0.66263  0.99933  1.0000
  H   H2944     1.0  0.51512  0.96198  0.13920  1.0000
  H   H2945     1.0  0.61369  0.97570  0.24076  1.0000
  C   C2935     1.0  0.50083  0.97596  0.13410  1.0000
  C   C2936     1.0  0.50030  0.71826  0.02044  1.0000
  C   C2937     1.0  0.57763  0.66222  0.01119  1.0000
  H   H2946     1.0  0.50760  0.67316  0.01426  1.0000
  H   H2947     1.0  0.58597  0.77459  0.99772  1.0000
  H   H2948     1.0  0.50207  0.98289  0.21282  1.0000
  H   H2949     1.0  0.55671  0.97557  0.18461  1.0000
  Fe  Fe494     1.0  0.58019  0.98907  0.18558  1.0000
  H   H2950     1.0  0.49949  0.70686  0.03767  1.0000
  C   C2938     1.0  0.62689  0.98828  0.22365  1.0000
  H   H2951     1.0  0.49777  0.97065  0.13019  1.0000
  S   S985      1.0  0.58787  0.99251  0.21314  1.0000
  C   C2939     1.0  0.63471  0.99198  0.20267  1.0000
  C   C2940     1.0  0.63491  0.99286  0.21384  1.0000
  H   H2952     1.0  0.52346  0.77386  0.99329  1.0000
  S   S986      1.0  0.56730  0.79500  0.99397  1.0000
  H   H2953     1.0  0.49706  0.97438  0.20592  1.0000
  H   H2954     1.0  0.55899  0.99330  0.24153  1.0000
  H   H2955     1.0  0.57913  0.94890  0.24240  1.0000
  C   C2941     1.0  0.56401  0.92393  0.24250  1.0000
  C   C2942     1.0  0.57567  0.71173  0.99313  1.0000
  C   C2943     1.0  0.55482  0.71857  0.99326  1.0000
  N   N244      1.0  0.56511  0.96383  0.24444  1.0000
  S   S987      1.0  0.63726  0.99289  0.45154  1.0000
  C   C2944     1.0  0.97101  0.73081  0.46694  1.0000
  C   C2945     1.0  0.83834  0.90801  0.47215  1.0000
  H   H2956     1.0  0.97561  0.82113  0.48055  1.0000
  C   C2946     1.0  0.82313  0.93234  0.39852  1.0000
  S   S988      1.0  0.50241  0.92744  0.28074  1.0000
  C   C2947     1.0  0.83454  0.93433  0.39486  1.0000
  H   H2957     1.0  0.85761  0.91560  0.48280  1.0000
  C   C2948     1.0  0.83944  0.90532  0.45256  1.0000
  H   H2958     1.0  0.85467  0.94443  0.45287  1.0000
  Fe  Fe495     1.0  0.50303  0.98416  0.35822  1.0000
  C   C2949     1.0  0.94936  0.88762  0.47898  1.0000
  C   C2950     1.0  0.57582  0.97918  0.26397  1.0000
  C   C2951     1.0  0.96806  0.70988  0.46376  1.0000
  Fe  Fe496     1.0  0.98515  0.84254  0.47628  1.0000
  N   N245      1.0  0.81359  0.94147  0.39722  1.0000
  C   C2952     1.0  0.69051  0.94453  0.40460  1.0000
  C   C2953     1.0  0.83599  0.98603  0.40582  1.0000
  H   H2959     1.0  0.53647  0.91376  0.29901  1.0000
  C   C2954     1.0  0.85450  0.98216  0.45667  1.0000
  N   N246      1.0  0.77415  0.91370  0.48433  1.0000
  S   S989      1.0  0.52354  0.98520  0.27596  1.0000
  H   H2960     1.0  0.51194  0.91856  0.33975  1.0000
  H   H2961     1.0  0.58185  0.97433  0.25757  1.0000
  C   C2955     1.0  0.50530  0.92014  0.33475  1.0000
  C   C2956     1.0  0.83815  0.97652  0.45386  1.0000
  S   S990      1.0  0.97492  0.78595  0.46848  1.0000
  H   H2962     1.0  0.97222  0.73881  0.46820  1.0000
  S   S991      1.0  0.61085  0.97260  0.35266  1.0000
  C   C2957     1.0  0.70626  0.95144  0.38939  1.0000
  Fe  Fe497     1.0  0.57918  0.96798  0.36813  1.0000
  S   S992      1.0  0.59541  0.95527  0.37286  1.0000
  S   S993      1.0  0.56163  0.96332  0.37693  1.0000
  Fe  Fe498     1.0  0.60200  0.97118  0.37192  1.0000
  S   S994      1.0  0.60899  0.97004  0.38799  1.0000
  Fe  Fe499     1.0  0.60271  0.95780  0.35340  1.0000
  S   S995      1.0  0.61246  0.94222  0.34518  1.0000
  C   C2958     1.0  0.93425  0.98228  0.48736  1.0000
  S   S996      1.0  0.58597  0.96917  0.34880  1.0000
  C   C2959     1.0  0.54233  0.98614  0.35424  1.0000
  H   H2963     1.0  0.51950  0.96550  0.24770  1.0000
  C   C2960     1.0  0.55865  0.96078  0.25561  1.0000
  Fe  Fe500     1.0  0.67303  0.97116  0.42601  1.0000
  H   H2964     1.0  0.73080  0.94979  0.47887  1.0000
  S   S997      1.0  0.68544  0.95367  0.43012  1.0000
  C   C2961     1.0  0.96658  0.88066  0.45108  1.0000
  H   H2965     1.0  0.77081  0.97860  0.42513  1.0000
  C   C2962     1.0  0.51212  0.91223  0.25199  1.0000
  C   C2963     1.0  0.69798  0.96099  0.38488  1.0000
  S   S998      1.0  0.65366  0.97355  0.42732  1.0000
  C   C2964     1.0  0.93746  0.89353  0.48040  1.0000
  S   S999      1.0  0.55261  0.94600  0.28997  1.0000
  Fe  Fe501     1.0  0.56977  0.93333  0.28543  1.0000
  Fe  Fe502     1.0  0.57484  0.92881  0.30973  1.0000
  S   S1000     1.0  0.55800  0.94088  0.31644  1.0000
  S   S1001     1.0  0.58778  0.91870  0.32106  1.0000
  Fe  Fe503     1.0  0.54992  0.93285  0.30698  1.0000
  S   S1002     1.0  0.53196  0.92926  0.31489  1.0000
  Fe  Fe504     1.0  0.56230  0.95282  0.29888  1.0000
  C   C2965     1.0  0.50788  0.91514  0.32499  1.0000
  S   S1003     1.0  0.56633  0.91947  0.30184  1.0000
  S   S1004     1.0  0.57989  0.94143  0.29282  1.0000
  C   C2966     1.0  0.93419  0.90576  0.47945  1.0000
  Fe  Fe505     1.0  0.75237  0.95289  0.43867  1.0000
  S   S1005     1.0  0.75015  0.93701  0.43422  1.0000
  S   S1006     1.0  0.74036  0.95878  0.45476  1.0000
  Fe  Fe506     1.0  0.77195  0.95705  0.41702  1.0000
  S   S1007     1.0  0.77100  0.94190  0.41052  1.0000
  S   S1008     1.0  0.78536  0.96756  0.40643  1.0000
  Fe  Fe507     1.0  0.75142  0.94812  0.41594  1.0000
  S   S1009     1.0  0.73888  0.95099  0.40437  1.0000
  Fe  Fe508     1.0  0.76994  0.93247  0.42936  1.0000
  S   S1010     1.0  0.78158  0.91452  0.43352  1.0000
  S   S1011     1.0  0.75246  0.96433  0.42066  1.0000
  S   S1012     1.0  0.77197  0.94736  0.43560  1.0000
  H   H2966     1.0  0.86842  0.94629  0.48679  1.0000
  S   S1013     1.0  0.91857  0.94770  0.47113  1.0000
  S   S1014     1.0  0.96297  0.67528  0.47203  1.0000
  C   C2967     1.0  0.95807  0.86169  0.45118  1.0000
  C   C2968     1.0  0.83103  0.98089  0.46368  1.0000
  Fe  Fe509     1.0  0.89963  0.95547  0.47008  1.0000
  S   S1015     1.0  0.89239  0.96635  0.45429  1.0000
  C   C2969     1.0  0.68603  0.96210  0.39039  1.0000
  H   H2967     1.0  0.52945  0.96804  0.26170  1.0000
  C   C2970     1.0  0.97604  0.66618  0.44205  1.0000
  C   C2971     1.0  0.78793  0.97754  0.44853  1.0000
  Fe  Fe510     1.0  0.83866  0.93287  0.42316  1.0000
  S   S1016     1.0  0.82720  0.95098  0.41945  1.0000
  S   S1017     1.0  0.83529  0.91570  0.42288  1.0000
  Fe  Fe511     1.0  0.85726  0.94122  0.42906  1.0000
  S   S1018     1.0  0.84757  0.96013  0.42612  1.0000
  S   S1019     1.0  0.87322  0.93270  0.43672  1.0000
  Fe  Fe512     1.0  0.83139  0.95321  0.43542  1.0000
  S   S1020     1.0  0.81799  0.96070  0.44985  1.0000
  Fe  Fe513     1.0  0.84426  0.95642  0.41030  1.0000
  S   S1021     1.0  0.84571  0.96900  0.39282  1.0000
  S   S1022     1.0  0.84133  0.93467  0.43996  1.0000
  S   S1023     1.0  0.85542  0.93803  0.41239  1.0000
  H   H2968     1.0  0.85541  0.97413  0.44250  1.0000
  H   H2969     1.0  0.96945  0.80255  0.48330  1.0000
  H   H2970     1.0  0.76577  0.92338  0.45402  1.0000
  C   C2972     1.0  0.98685  0.86899  0.44845  1.0000
  C   C2973     1.0  0.95447  0.88194  0.45250  1.0000
  H   H2971     1.0  0.58833  0.91336  0.35353  1.0000
  H   H2972     1.0  0.94050  0.92157  0.47584  1.0000
  H   H2973     1.0  0.90658  0.98361  0.48517  1.0000
  C   C2974     1.0  0.81231  0.94906  0.45962  1.0000
  C   C2975     1.0  0.80825  0.94922  0.47159  1.0000
  H   H2974     1.0  0.58155  0.97005  0.32505  1.0000
  C   C2976     1.0  0.56713  0.92742  0.26007  1.0000
  C   C2977     1.0  0.81010  0.92901  0.46367  1.0000
  C   C2978     1.0  0.81292  0.93909  0.45563  1.0000
  H   H2975     1.0  0.54354  0.98610  0.31599  1.0000
  S   S1024     1.0  0.65056  0.98882  0.39362  1.0000
  H   H2976     1.0  0.81085  0.92120  0.46059  1.0000
  H   H2977     1.0  0.81573  0.93910  0.44634  1.0000
  C   C2979     1.0  0.55856  0.98423  0.24542  1.0000
  C   C2980     1.0  0.51575  0.94244  0.24972  1.0000
  C   C2981     1.0  0.56640  0.89429  0.25224  1.0000
  C   C2982     1.0  0.74490  0.94547  0.48794  1.0000
  H   H2978     1.0  0.90101  0.98622  0.45499  1.0000
  C   C2983     1.0  0.98750  0.80295  0.45611  1.0000
  H   H2979     1.0  0.83650  0.89691  0.45644  1.0000
  C   C2984     1.0  0.73693  0.98948  0.48992  1.0000
  C   C2985     1.0  0.55544  0.92697  0.26572  1.0000
  C   C2986     1.0  0.55176  0.98124  0.25670  1.0000
  C   C2987     1.0  0.51722  0.98417  0.26503  1.0000
  Fe  Fe514     1.0  0.91320  0.95482  0.48766  1.0000
  C   C2988     1.0  0.60475  0.99226  0.40904  1.0000
  H   H2980     1.0  0.53903  0.92460  0.26411  1.0000
  N   N247      1.0  0.68246  0.95398  0.40020  1.0000
  N   N248      1.0  0.85428  0.95104  0.47835  1.0000
  C   C2989     1.0  0.88844  0.95717  0.44784  1.0000
  C   C2990     1.0  0.89251  0.94497  0.45078  1.0000
  C   C2991     1.0  0.88810  0.93753  0.44695  1.0000
  C   C2992     1.0  0.87967  0.94227  0.44006  1.0000
  C   C2993     1.0  0.87605  0.95449  0.43657  1.0000
  C   C2994     1.0  0.88048  0.96195  0.44043  1.0000
  H   H2981     1.0  0.89910  0.94123  0.45600  1.0000
  H   H2982     1.0  0.89110  0.92809  0.44948  1.0000
  H   H2983     1.0  0.86988  0.95820  0.43090  1.0000
  H   H2984     1.0  0.87762  0.97140  0.43780  1.0000
  C   C2995     1.0  0.79649  0.91479  0.43112  1.0000
  C   C2996     1.0  0.79975  0.92495  0.43118  1.0000
  C   C2997     1.0  0.81166  0.92516  0.42904  1.0000
  C   C2998     1.0  0.82037  0.91521  0.42674  1.0000
  C   C2999     1.0  0.81716  0.90496  0.42689  1.0000
  C   C3000     1.0  0.80522  0.90472  0.42917  1.0000
  H   H2985     1.0  0.79317  0.93265  0.43293  1.0000
  H   H2986     1.0  0.81406  0.93306  0.42903  1.0000
  H   H2987     1.0  0.82388  0.89723  0.42510  1.0000
  H   H2988     1.0  0.80277  0.89680  0.42920  1.0000
  H   H2989     1.0  0.82980  0.90571  0.47508  1.0000
  C   C3001     1.0  0.97600  0.72751  0.45610  1.0000
  C   C3002     1.0  0.82749  0.99162  0.47916  1.0000
  C   C3003     1.0  0.55233  0.92347  0.24805  1.0000
  C   C3004     1.0  0.97444  0.71708  0.45451  1.0000
  S   S1025     1.0  0.98891  0.75353  0.46595  1.0000
  N   N249      1.0  0.98528  0.66205  0.43361  1.0000
  H   H2990     1.0  0.55715  0.93929  0.34710  1.0000
  C   C3005     1.0  0.72020  0.97379  0.48769  1.0000
  C   C3006     1.0  0.59208  0.90241  0.25691  1.0000
  C   C3007     1.0  0.75680  0.94498  0.48683  1.0000
  H   H2991     1.0  0.51575  0.94128  0.25916  1.0000
  C   C3008     1.0  0.97014  0.86073  0.44972  1.0000
  S   S1026     1.0  0.67596  0.98347  0.40848  1.0000
  H   H2992     1.0  0.67964  0.96960  0.38689  1.0000
  C   C3009     1.0  0.70037  0.95360  0.42358  1.0000
  C   C3010     1.0  0.70358  0.96178  0.41328  1.0000
  C   C3011     1.0  0.71544  0.96106  0.40757  1.0000
  C   C3012     1.0  0.72422  0.95232  0.41227  1.0000
  C   C3013     1.0  0.72110  0.94435  0.42279  1.0000
  C   C3014     1.0  0.70917  0.94489  0.42836  1.0000
  H   H2993     1.0  0.69695  0.96837  0.40939  1.0000
  H   H2994     1.0  0.71782  0.96723  0.39942  1.0000
  H   H2995     1.0  0.72785  0.93749  0.42640  1.0000
  H   H2996     1.0  0.70678  0.93850  0.43631  1.0000
  C   C3015     1.0  0.57133  0.92598  0.24844  1.0000
  S   S1027     1.0  0.55897  0.97205  0.29807  1.0000
  C   C3016     1.0  0.95490  0.90624  0.47486  1.0000
  H   H2997     1.0  0.82753  0.96394  0.38482  1.0000
  H   H2998     1.0  0.57811  0.94400  0.36792  1.0000
  S   S1028     1.0  0.80568  0.91559  0.48572  1.0000
  H   H2999     1.0  0.55213  0.92803  0.27473  1.0000
  H   H3000     1.0  0.96695  0.70182  0.46248  1.0000
  C   C3017     1.0  0.60577  0.93667  0.33734  1.0000
  C   C3018     1.0  0.61070  0.92523  0.33554  1.0000
  C   C3019     1.0  0.60527  0.92003  0.33018  1.0000
  C   C3020     1.0  0.59502  0.92631  0.32622  1.0000
  C   C3021     1.0  0.59027  0.93798  0.32753  1.0000
  C   C3022     1.0  0.59556  0.94309  0.33328  1.0000
  H   H3001     1.0  0.61863  0.92025  0.33856  1.0000
  H   H3002     1.0  0.60898  0.91103  0.32919  1.0000
  H   H3003     1.0  0.58229  0.94285  0.32459  1.0000
  H   H3004     1.0  0.59173  0.95189  0.33466  1.0000
  C   C3023     1.0  0.62159  0.97411  0.38885  1.0000
  H   H3005     1.0  0.93072  0.88857  0.48257  1.0000
  H   H3006     1.0  0.83265  0.97929  0.41284  1.0000
  C   C3024     1.0  0.84994  0.97720  0.45032  1.0000
  C   C3025     1.0  0.63415  0.97484  0.40122  1.0000
  C   C3026     1.0  0.62503  0.97073  0.39969  1.0000
  H   H3007     1.0  0.58037  0.92630  0.24402  1.0000
  C   C3027     1.0  0.56067  0.99172  0.28072  1.0000
  H   H3008     1.0  0.63650  0.97238  0.40968  1.0000
  H   H3009     1.0  0.62040  0.96511  0.40703  1.0000
  C   C3028     1.0  0.51172  0.92879  0.28878  1.0000
  C   C3029     1.0  0.50846  0.93809  0.29456  1.0000
  C   C3030     1.0  0.51518  0.93860  0.30199  1.0000
  C   C3031     1.0  0.52517  0.92976  0.30374  1.0000
  C   C3032     1.0  0.52875  0.92064  0.29763  1.0000
  C   C3033     1.0  0.52198  0.92013  0.29018  1.0000
  H   H3010     1.0  0.55876  0.95161  0.25974  1.0000
  H   H3011     1.0  0.97619  0.85238  0.44865  1.0000
  H   H3012     1.0  0.99073  0.79800  0.44922  1.0000
  C   C3034     1.0  0.84332  0.94949  0.48457  1.0000
  C   C3035     1.0  0.97543  0.80559  0.47524  1.0000
  S   S1029     1.0  0.99141  0.83320  0.46116  1.0000
  C   C3036     1.0  0.91431  0.98657  0.48480  1.0000
  H   H3013     1.0  0.78366  0.96339  0.46309  1.0000
  H   H3014     1.0  0.53413  0.97698  0.29773  1.0000
  H   H3015     1.0  0.95172  0.87817  0.48001  1.0000
  C   C3037     1.0  0.55007  0.97106  0.36978  1.0000
  C   C3038     1.0  0.53913  0.96792  0.37400  1.0000
  C   C3039     1.0  0.52979  0.97390  0.36838  1.0000
  C   C3040     1.0  0.92435  0.97835  0.48776  1.0000
  C   C3041     1.0  0.81507  0.95271  0.39238  1.0000
  C   C3042     1.0  0.53136  0.98307  0.35854  1.0000
  H   H3016     1.0  0.53786  0.96090  0.38168  1.0000
  H   H3017     1.0  0.52134  0.97151  0.37178  1.0000
  H   H3018     1.0  0.72930  0.97665  0.46939  1.0000
  H   H3019     1.0  0.54675  0.98801  0.26159  1.0000
  C   C3043     1.0  0.96615  0.66122  0.44620  1.0000
  C   C3044     1.0  0.71723  0.97376  0.43860  1.0000
  H   H3020     1.0  0.51692  0.96010  0.33901  1.0000
  C   C3045     1.0  0.78674  0.96599  0.45367  1.0000
  C   C3046     1.0  0.79408  0.96121  0.43450  1.0000
  C   C3047     1.0  0.84230  0.98343  0.39490  1.0000
  H   H3021     1.0  0.84586  0.90434  0.44409  1.0000
  H   H3022     1.0  0.76783  0.97211  0.47698  1.0000
  H   H3023     1.0  0.51247  0.94569  0.30660  1.0000
  H   H3024     1.0  0.58299  0.98648  0.28899  1.0000
  C   C3048     1.0  0.57115  0.97315  0.27522  1.0000
  N   N250      1.0  0.83545  0.98610  0.46963  1.0000
  H   H3025     1.0  0.84493  0.94746  0.38706  1.0000
  H   H3026     1.0  0.58639  0.96125  0.30142  1.0000
  C   C3049     1.0  0.98660  0.82018  0.46328  1.0000
  H   H3027     1.0  0.52525  0.97773  0.33416  1.0000
  H   H3028     1.0  0.57104  0.92019  0.34450  1.0000
  C   C3050     1.0  0.62763  0.98134  0.37940  1.0000
  C   C3051     1.0  0.85845  0.94905  0.46719  1.0000
  C   C3052     1.0  0.77788  0.98213  0.40640  1.0000
  C   C3053     1.0  0.74689  0.95334  0.46694  1.0000
  C   C3054     1.0  0.75882  0.95279  0.46579  1.0000
  H   H3029     1.0  0.96164  0.91120  0.47266  1.0000
  H   H3030     1.0  0.80157  0.92991  0.40330  1.0000
  C   C3055     1.0  0.51541  0.92160  0.25388  1.0000
  H   H3031     1.0  0.76411  0.95595  0.45731  1.0000
  H   H3032     1.0  0.84204  0.92709  0.39620  1.0000
  Fe  Fe515     1.0  0.98654  0.77283  0.45756  1.0000
  C   C3056     1.0  0.65071  0.96732  0.47698  1.0000
  C   C3057     1.0  0.64868  0.97399  0.46596  1.0000
  C   C3058     1.0  0.75919  0.97692  0.48055  1.0000
  H   H3033     1.0  0.62507  0.98401  0.37103  1.0000
  H   H3034     1.0  0.50523  0.97347  0.29643  1.0000
  H   H3035     1.0  0.65768  0.95943  0.47746  1.0000
  H   H3036     1.0  0.65409  0.97122  0.45800  1.0000
  S   S1030     1.0  0.67081  0.98460  0.43639  1.0000
  H   H3037     1.0  0.86680  0.96076  0.47742  1.0000
  C   C3059     1.0  0.82636  0.95500  0.38852  1.0000
  C   C3060     1.0  0.80164  0.93939  0.40157  1.0000
  C   C3061     1.0  0.52532  0.97378  0.32712  1.0000
  N   N251      1.0  0.52996  0.97850  0.31568  1.0000
  H   H3038     1.0  0.59773  0.93161  0.36718  1.0000
  H   H3039     1.0  0.60203  0.91884  0.36119  1.0000
  C   C3062     1.0  0.63963  0.98412  0.46529  1.0000
  C   C3063     1.0  0.70251  0.94312  0.39928  1.0000
  H   H3040     1.0  0.95274  0.77855  0.47137  1.0000
  C   C3064     1.0  0.56467  0.93614  0.35119  1.0000
  C   C3065     1.0  0.52070  0.96377  0.32993  1.0000
  C   C3066     1.0  0.59450  0.92412  0.36660  1.0000
  H   H3041     1.0  0.75030  0.92563  0.47223  1.0000
  C   C3067     1.0  0.56674  0.94285  0.35776  1.0000
  S   S1031     1.0  0.57687  0.92957  0.26721  1.0000
  C   C3068     1.0  0.57661  0.93875  0.36277  1.0000
  H   H3042     1.0  0.80759  0.95702  0.47464  1.0000
  C   C3069     1.0  0.58124  0.89944  0.25895  1.0000
  H   H3043     1.0  0.51763  0.95057  0.32310  1.0000
  S   S1032     1.0  0.89351  0.93911  0.48048  1.0000
  Fe  Fe516     1.0  0.98978  0.75070  0.44825  1.0000
  H   H3044     1.0  0.82717  0.94556  0.48415  1.0000
  C   C3070     1.0  0.94745  0.78985  0.48900  1.0000
  N   N252      1.0  0.79182  0.98089  0.43662  1.0000
  H   H3045     1.0  0.52098  0.91983  0.26005  1.0000
  H   H3046     1.0  0.53699  0.99274  0.30353  1.0000
  H   H3047     1.0  0.55993  0.89839  0.25933  1.0000
  C   C3071     1.0  0.77985  0.91606  0.46330  1.0000
  C   C3072     1.0  0.50511  0.91444  0.24392  1.0000
  H   H3048     1.0  0.60495  0.98437  0.42720  1.0000
  H   H3049     1.0  0.51510  0.90334  0.25670  1.0000
  H   H3050     1.0  0.83814  0.91027  0.48928  1.0000
  H   H3051     1.0  0.59806  0.96921  0.29506  1.0000
  H   H3052     1.0  0.79187  0.90910  0.47482  1.0000
  C   C3073     1.0  0.95356  0.77269  0.47982  1.0000
  H   H3053     1.0  0.95488  0.85415  0.45128  1.0000
  C   C3074     1.0  0.84007  0.94466  0.46789  1.0000
  N   N253      1.0  0.84452  0.90819  0.46078  1.0000
  C   C3075     1.0  0.85522  0.91125  0.45706  1.0000
  C   C3076     1.0  0.63677  0.98544  0.38092  1.0000
  C   C3077     1.0  0.86005  0.91407  0.46487  1.0000
  C   C3078     1.0  0.72193  0.98005  0.47600  1.0000
  C   C3079     1.0  0.85390  0.91366  0.47655  1.0000
  H   H3054     1.0  0.54679  0.96706  0.27078  1.0000
  H   H3055     1.0  0.86007  0.91166  0.44798  1.0000
  S   S1033     1.0  0.89488  0.96385  0.48559  1.0000
  H   H3056     1.0  0.86853  0.91651  0.46184  1.0000
  C   C3080     1.0  0.60873  0.99019  0.41937  1.0000
  C   C3081     1.0  0.79509  0.97285  0.42964  1.0000
  C   C3082     1.0  0.76812  0.92067  0.46253  1.0000
  H   H3057     1.0  0.94844  0.89028  0.45370  1.0000
  H   H3058     1.0  0.50986  0.95111  0.24712  1.0000
  H   H3059     1.0  0.50174  0.91419  0.31038  1.0000
  H   H3060     1.0  0.79750  0.94249  0.40991  1.0000
  C   C3083     1.0  0.75943  0.92181  0.47276  1.0000
  C   C3084     1.0  0.64387  0.97087  0.48737  1.0000
  H   H3061     1.0  0.85689  0.95814  0.49157  1.0000
  H   H3062     1.0  0.51654  0.90964  0.32241  1.0000
  H   H3063     1.0  0.70892  0.93591  0.40312  1.0000
  C   C3085     1.0  0.85139  0.94590  0.46177  1.0000
  Fe  Fe517     1.0  0.91206  0.93186  0.48301  1.0000
  C   C3086     1.0  0.76263  0.91828  0.48365  1.0000
  N   N254      1.0  0.97421  0.87009  0.44993  1.0000
  H   H3064     1.0  0.56076  0.95119  0.35899  1.0000
  H   H3065     1.0  0.56732  0.88461  0.25475  1.0000
  C   C3087     1.0  0.49951  0.91784  0.31817  1.0000
  H   H3066     1.0  0.71560  0.95064  0.38546  1.0000
  H   H3067     1.0  0.77303  0.94801  0.47487  1.0000
  S   S1034     1.0  0.96755  0.85495  0.47958  1.0000
  C   C3088     1.0  0.55188  0.96943  0.26190  1.0000
  H   H3068     1.0  0.80750  0.95999  0.39156  1.0000
  C   C3089     1.0  0.97972  0.79896  0.46647  1.0000
  C   C3090     1.0  0.66571  0.98887  0.47366  1.0000
  C   C3091     1.0  0.95813  0.89395  0.47621  1.0000
  C   C3092     1.0  0.94294  0.91213  0.47661  1.0000
  C   C3093     1.0  0.78273  0.91263  0.47432  1.0000
  H   H3069     1.0  0.66478  0.96428  0.40337  1.0000
  C   C3094     1.0  0.84296  0.91067  0.48020  1.0000
  C   C3095     1.0  0.83614  0.94574  0.38979  1.0000
  S   S1035     1.0  0.98528  0.77010  0.44032  1.0000
  H   H3070     1.0  0.66624  0.94912  0.40320  1.0000
  C   C3096     1.0  0.66992  0.95514  0.40585  1.0000
  C   C3097     1.0  0.80567  0.93903  0.47968  1.0000
  C   C3098     1.0  0.70732  0.97508  0.43428  1.0000
  H   H3071     1.0  0.99148  0.85964  0.45105  1.0000
  C   C3099     1.0  0.53027  0.97338  0.30681  1.0000
  H   H3072     1.0  0.80282  0.93900  0.48898  1.0000
  H   H3073     1.0  0.68771  0.93825  0.41254  1.0000
  Fe  Fe518     1.0  0.97731  0.86709  0.48165  1.0000
  H   H3074     1.0  0.59213  0.91874  0.37558  1.0000
  C   C3100     1.0  0.95765  0.76060  0.48033  1.0000
  H   H3075     1.0  0.62741  0.98350  0.43165  1.0000
  H   H3076     1.0  0.86730  0.94985  0.46246  1.0000
  H   H3077     1.0  0.52453  0.91289  0.28573  1.0000
  H   H3078     1.0  0.97636  0.67323  0.44577  1.0000
  N   N255      1.0  0.51175  0.93285  0.24797  1.0000
  H   H3079     1.0  0.70082  0.96760  0.37729  1.0000
  H   H3080     1.0  0.95896  0.66430  0.45310  1.0000
  C   C3101     1.0  0.78976  0.95781  0.44659  1.0000
  S   S1036     1.0  0.95455  0.70452  0.48602  1.0000
  C   C3102     1.0  0.57239  0.92538  0.34982  1.0000
  Fe  Fe519     1.0  0.98182  0.66889  0.47309  1.0000
  N   N256      1.0  0.58319  0.97732  0.30668  1.0000
  C   C3103     1.0  0.86193  0.95427  0.48379  1.0000
  H   H3081     1.0  0.86364  0.98287  0.45391  1.0000
  C   C3104     1.0  0.54804  0.92500  0.25970  1.0000
  C   C3105     1.0  0.63993  0.98237  0.39187  1.0000
  C   C3106     1.0  0.80692  0.92885  0.47572  1.0000
  S   S1037     1.0  0.91907  0.91246  0.48274  1.0000
  C   C3107     1.0  0.99083  0.81359  0.45448  1.0000
  H   H3082     1.0  0.57352  0.96366  0.27740  1.0000
  H   H3083     1.0  0.79656  0.95492  0.42889  1.0000
  H   H3084     1.0  0.78894  0.94881  0.45052  1.0000
  H   H3085     1.0  0.70084  0.96984  0.43900  1.0000
  H   H3086     1.0  0.97823  0.71451  0.44612  1.0000
  H   H3087     1.0  0.66870  0.95296  0.41561  1.0000
  C   C3108     1.0  0.52106  0.95844  0.32097  1.0000
  H   H3088     1.0  0.61545  0.97371  0.30806  1.0000
  H   H3089     1.0  0.67294  0.98195  0.47068  1.0000
  C   C3109     1.0  0.52592  0.96322  0.30932  1.0000
  C   C3110     1.0  0.73998  0.94957  0.47800  1.0000
  C   C3111     1.0  0.96279  0.71334  0.47449  1.0000
  S   S1038     1.0  0.98091  0.68055  0.48485  1.0000
  C   C3112     1.0  0.63483  0.98103  0.48670  1.0000
  H   H3090     1.0  0.79612  0.94431  0.39507  1.0000
  H   H3091     1.0  0.57530  0.89959  0.26750  1.0000
  S   S1039     1.0  0.97313  0.88668  0.47431  1.0000
  N   N257      1.0  0.58429  0.92833  0.36115  1.0000
  C   C3113     1.0  0.96422  0.72385  0.47605  1.0000
  C   C3114     1.0  0.72557  0.98048  0.43229  1.0000
  H   H3092     1.0  0.83173  0.91242  0.45049  1.0000
  H   H3093     1.0  0.82198  0.92345  0.40255  1.0000
  C   C3115     1.0  0.95020  0.87236  0.45263  1.0000
  H   H3094     1.0  0.52649  0.95902  0.30229  1.0000
  C   C3116     1.0  0.58220  0.92157  0.35492  1.0000
  C   C3117     1.0  0.83597  0.94649  0.47935  1.0000
  C   C3118     1.0  0.56374  0.97943  0.28365  1.0000
  C   C3119     1.0  0.76380  0.94852  0.47573  1.0000
  H   H3095     1.0  0.83453  0.94219  0.46380  1.0000
  H   H3096     1.0  0.78668  0.91513  0.45541  1.0000
  C   C3120     1.0  0.97892  0.81613  0.47370  1.0000
  H   H3097     1.0  0.62532  0.99028  0.32157  1.0000
  H   H3098     1.0  0.59628  0.96149  0.31007  1.0000
  H   H3099     1.0  0.71852  0.96750  0.44673  1.0000
  Fe  Fe520     1.0  0.96163  0.68539  0.48556  1.0000
  H   H3100     1.0  0.66625  0.98231  0.49201  1.0000
  H   H3101     1.0  0.96012  0.72654  0.48433  1.0000
  C   C3121     1.0  0.51611  0.97310  0.25164  1.0000
  S   S1040     1.0  0.98424  0.73618  0.44436  1.0000
  C   C3122     1.0  0.59136  0.96677  0.30316  1.0000
  C   C3123     1.0  0.52179  0.97458  0.25954  1.0000
  N   N258      1.0  0.57790  0.89713  0.25007  1.0000
  H   H3102     1.0  0.94081  0.87321  0.45389  1.0000
  H   H3103     1.0  0.94871  0.79493  0.47974  1.0000
  H   H3104     1.0  0.56263  0.89787  0.24426  1.0000
  C   C3124     1.0  0.57878  0.97753  0.31835  1.0000
  H   H3105     1.0  0.59439  0.90491  0.26377  1.0000
  H   H3106     1.0  0.83440  0.97301  0.44880  1.0000
  C   C3125     1.0  0.50562  0.98097  0.24955  1.0000
  H   H3107     1.0  0.99419  0.67550  0.43227  1.0000
  H   H3108     1.0  0.82185  0.98038  0.46628  1.0000
  H   H3109     1.0  0.80310  0.98946  0.47772  1.0000
  H   H3110     1.0  0.73320  0.97943  0.43579  1.0000
  H   H3111     1.0  0.69809  0.98436  0.42042  1.0000
  H   H3112     1.0  0.79836  0.97545  0.42022  1.0000
  C   C3126     1.0  0.55169  0.98013  0.35983  1.0000
  C   C3127     1.0  0.70584  0.98311  0.42379  1.0000
  H   H3113     1.0  0.95981  0.75721  0.47240  1.0000
  H   H3114     1.0  0.96981  0.88812  0.45114  1.0000
  C   C3128     1.0  0.50116  0.99064  0.25489  1.0000
  C   C3129     1.0  0.57079  0.98748  0.32181  1.0000
  H   H3115     1.0  0.98840  0.87396  0.45414  1.0000
  N   N259      1.0  0.95122  0.77712  0.48967  1.0000
  H   H3116     1.0  0.75587  0.91950  0.49153  1.0000
  Fe  Fe521     1.0  0.65172  0.98835  0.43604  1.0000
  C   C3130     1.0  0.49853  0.98115  0.29846  1.0000
  C   C3131     1.0  0.71442  0.99094  0.47302  1.0000
  C   C3132     1.0  0.63264  0.98757  0.47568  1.0000
  S   S1041     1.0  0.58501  0.98381  0.36854  1.0000
  H   H3117     1.0  0.94201  0.97599  0.48969  1.0000
  H   H3118     1.0  0.72637  0.96563  0.49011  1.0000
  C   C3133     1.0  0.60932  0.98205  0.30880  1.0000
  C   C3134     1.0  0.59965  0.90266  0.24582  1.0000
  H   H3119     1.0  0.82230  0.98543  0.48559  1.0000
  H   H3120     1.0  0.60613  0.97835  0.32774  1.0000
  C   C3135     1.0  0.77096  0.98510  0.41694  1.0000
  Fe  Fe522     1.0  0.59334  0.98387  0.34941  1.0000
  N   N260      1.0  0.72423  0.98805  0.42178  1.0000
  H   H3121     1.0  0.52484  0.94251  0.24439  1.0000
  Fe  Fe523     1.0  0.65644  0.98699  0.41040  1.0000
  H   H3122     1.0  0.99080  0.87247  0.43912  1.0000
  H   H3123     1.0  0.99153  0.70372  0.46940  1.0000
  H   H3124     1.0  0.78568  0.98380  0.45413  1.0000
  C   C3136     1.0  0.66197  0.98907  0.48561  1.0000
  H   H3125     1.0  0.56009  0.98264  0.35658  1.0000
  H   H3126     1.0  0.50165  0.97918  0.31563  1.0000
  H   H3127     1.0  0.50048  0.94462  0.29370  1.0000
  H   H3128     1.0  0.56759  0.98773  0.33107  1.0000
  C   C3137     1.0  0.60400  0.98466  0.31995  1.0000
  C   C3138     1.0  0.53507  0.98877  0.31312  1.0000
  C   C3139     1.0  0.75287  0.98590  0.47314  1.0000
  C   C3140     1.0  0.57963  0.98675  0.29823  1.0000
  C   C3141     1.0  0.84706  0.98667  0.46632  1.0000
  S   S1042     1.0  0.49963  0.96613  0.36686  1.0000
  C   C3142     1.0  0.50713  0.99239  0.26237  1.0000
  S   S1043     1.0  0.51972  0.99089  0.35152  1.0000
  H   H3129     1.0  0.85099  0.99035  0.37723  1.0000
  S   S1044     1.0  0.99513  0.85545  0.47653  1.0000
  H   H3130     1.0  0.59813  0.98795  0.40879  1.0000
  S   S1045     1.0  0.61426  0.98723  0.28471  1.0000
  H   H3131     1.0  0.91745  0.99207  0.45856  1.0000
  C   C3143     1.0  0.57294  0.99148  0.26116  1.0000
  C   C3144     1.0  0.60690  0.99029  0.29863  1.0000
  H   H3132     1.0  0.60797  0.90519  0.24403  1.0000
  H   H3133     1.0  0.85052  0.99102  0.47089  1.0000
  H   H3134     1.0  0.78333  0.98822  0.38765  1.0000
  H   H3135     1.0  0.64122  0.99125  0.37363  1.0000
  C   C3145     1.0  0.79288  0.99306  0.43126  1.0000
  C   C3146     1.0  0.71447  0.98949  0.41757  1.0000
  S   S1046     1.0  0.75928  0.99009  0.45823  1.0000
  H   H3136     1.0  0.88462  0.99196  0.44522  1.0000
  H   H3137     1.0  0.80227  0.99353  0.42929  1.0000
  H   H3138     1.0  0.74132  0.99170  0.41844  1.0000
  C   C3147     1.0  0.77804  0.99057  0.39584  1.0000
  H   H3139     1.0  0.54357  0.99325  0.34664  1.0000
  C   C3148     1.0  0.84617  0.99233  0.38569  1.0000
  C   C3149     1.0  0.74165  0.99199  0.47782  1.0000
  S   S1047     1.0  0.49653  0.97705  0.24309  1.0000
  S   S1048     1.0  0.99623  0.66640  0.45745  1.0000
  C   C3150     1.0  0.99572  0.66712  0.42944  1.0000
  C   C3151     1.0  0.49657  0.98439  0.30915  1.0000
  H   H3140     1.0  0.61430  0.99312  0.43814  1.0000
  C   C3152     1.0  0.62176  0.99252  0.43034  1.0000
  C   C3153     1.0  0.95923  0.75302  0.49104  1.0000
  H   H3141     1.0  0.96267  0.74365  0.49151  1.0000
  H   H3142     1.0  0.51158  0.92307  0.71569  1.0000
  C   C3154     1.0  0.58505  0.98571  0.70742  1.0000
  H   H3143     1.0  0.96218  0.80319  0.51043  1.0000
  S   S1049     1.0  0.55368  0.93413  0.72093  1.0000
  S   S1050     1.0  0.51057  0.95322  0.69093  1.0000
  Fe  Fe524     1.0  0.54038  0.97403  0.62019  1.0000
  H   H3144     1.0  0.80218  0.98404  0.52662  1.0000
  S   S1051     1.0  0.66304  0.96499  0.54749  1.0000
  H   H3145     1.0  0.75529  0.90535  0.57079  1.0000
  S   S1052     1.0  0.94975  0.84519  0.51018  1.0000
  H   H3146     1.0  0.67659  0.92262  0.52570  1.0000
  C   C3155     1.0  0.95676  0.82179  0.50975  1.0000
  H   H3147     1.0  0.69671  0.99242  0.50004  1.0000
  C   C3156     1.0  0.59551  0.98895  0.56134  1.0000
  H   H3148     1.0  0.64931  0.98884  0.55638  1.0000
  C   C3157     1.0  0.77604  0.95964  0.51541  1.0000
  S   S1053     1.0  0.74715  0.89429  0.54220  1.0000
  C   C3158     1.0  0.93373  0.81863  0.51517  1.0000
  C   C3159     1.0  0.99156  0.66922  0.51695  1.0000
  H   H3149     1.0  0.54560  0.95297  0.70271  1.0000
  H   H3150     1.0  0.68797  0.92523  0.55489  1.0000
  H   H3151     1.0  0.75548  0.90696  0.55549  1.0000
  Fe  Fe525     1.0  0.56741  0.93492  0.70412  1.0000
  H   H3152     1.0  0.54704  0.92667  0.67752  1.0000
  C   C3160     1.0  0.54768  0.98668  0.69409  1.0000
  H   H3153     1.0  0.71598  0.97211  0.51256  1.0000
  H   H3154     1.0  0.90186  0.96338  0.51345  1.0000
  H   H3155     1.0  0.74558  0.98180  0.54086  1.0000
  H   H3156     1.0  0.75929  0.93354  0.55386  1.0000
  C   C3161     1.0  0.59001  0.96783  0.67784  1.0000
  C   C3162     1.0  0.67473  0.92551  0.53388  1.0000
  H   H3157     1.0  0.97948  0.72008  0.51060  1.0000
  H   H3158     1.0  0.95020  0.87013  0.50832  1.0000
  C   C3163     1.0  0.93494  0.78323  0.55451  1.0000
  Fe  Fe526     1.0  0.58182  0.94606  0.71265  1.0000
  S   S1054     1.0  0.97934  0.74157  0.51740  1.0000
  Fe  Fe527     1.0  0.80789  0.90242  0.52773  1.0000
  C   C3164     1.0  0.58642  0.97026  0.65861  1.0000
  S   S1055     1.0  0.80066  0.88761  0.54095  1.0000
  Fe  Fe528     1.0  0.83001  0.91127  0.51390  1.0000
  C   C3165     1.0  0.94484  0.89957  0.50623  1.0000
  S   S1056     1.0  0.59905  0.95117  0.70862  1.0000
  Fe  Fe529     1.0  0.80763  0.92841  0.52174  1.0000
  S   S1057     1.0  0.79834  0.94454  0.52902  1.0000
  S   S1058     1.0  0.81848  0.91274  0.53177  1.0000
  Fe  Fe530     1.0  0.96746  0.84711  0.49863  1.0000
  C   C3166     1.0  0.80602  0.95582  0.52429  1.0000
  C   C3167     1.0  0.87696  0.98486  0.51171  1.0000
  C   C3168     1.0  0.94727  0.83140  0.51110  1.0000
  S   S1059     1.0  0.98532  0.76232  0.53215  1.0000
  C   C3169     1.0  0.80629  0.97590  0.52369  1.0000
  C   C3170     1.0  0.80069  0.96645  0.52794  1.0000
  H   H3159     1.0  0.96565  0.82286  0.50790  1.0000
  S   S1060     1.0  0.79605  0.91834  0.51917  1.0000
  C   C3171     1.0  0.60594  0.98246  0.70607  1.0000
  H   H3160     1.0  0.79220  0.96740  0.53402  1.0000
  C   C3172     1.0  0.55050  0.98449  0.67396  1.0000
  C   C3173     1.0  0.51449  0.98411  0.60738  1.0000
  C   C3174     1.0  0.60121  0.94349  0.73974  1.0000
  H   H3161     1.0  0.58876  0.98523  0.63773  1.0000
  C   C3175     1.0  0.97732  0.71302  0.53379  1.0000
  C   C3176     1.0  0.70950  0.97110  0.50820  1.0000
  C   C3177     1.0  0.76243  0.89074  0.54084  1.0000
  C   C3178     1.0  0.76745  0.88266  0.54981  1.0000
  C   C3179     1.0  0.77943  0.88120  0.54950  1.0000
  C   C3180     1.0  0.78637  0.88774  0.54018  1.0000
  C   C3181     1.0  0.78151  0.89508  0.53080  1.0000
  C   C3182     1.0  0.76951  0.89677  0.53124  1.0000
  H   H3162     1.0  0.76199  0.87792  0.55721  1.0000
  H   H3163     1.0  0.78320  0.87532  0.55668  1.0000
  H   H3164     1.0  0.78697  0.89946  0.52320  1.0000
  C   C3183     1.0  0.77746  0.90700  0.55910  1.0000
  C   C3184     1.0  0.92703  0.89321  0.50862  1.0000
  C   C3185     1.0  0.77802  0.93059  0.55099  1.0000
  C   C3186     1.0  0.51806  0.95761  0.69877  1.0000
  H   H3165     1.0  0.74827  0.91908  0.56267  1.0000
  H   H3166     1.0  0.50288  0.96119  0.62523  1.0000
  H   H3167     1.0  0.69714  0.91714  0.52600  1.0000
  H   H3168     1.0  0.58513  0.92535  0.67090  1.0000
  C   C3187     1.0  0.54540  0.98543  0.58359  1.0000
  H   H3169     1.0  0.77737  0.89773  0.56209  1.0000
  H   H3170     1.0  0.95754  0.75175  0.50952  1.0000
  C   C3188     1.0  0.89606  0.97208  0.51281  1.0000
  C   C3189     1.0  0.71652  0.96094  0.54841  1.0000
  Fe  Fe531     1.0  0.74187  0.91333  0.53377  1.0000
  C   C3190     1.0  0.53024  0.95368  0.69709  1.0000
  C   C3191     1.0  0.78827  0.91032  0.55571  1.0000
  C   C3192     1.0  0.58189  0.93945  0.65603  1.0000
  H   H3171     1.0  0.99627  0.67918  0.53836  1.0000
  C   C3193     1.0  0.58845  0.96297  0.66936  1.0000
  N   N261      1.0  0.76718  0.91529  0.55854  1.0000
  C   C3194     1.0  0.67573  0.95849  0.53827  1.0000
  C   C3195     1.0  0.96881  0.69684  0.51130  1.0000
  C   C3196     1.0  0.99170  0.75219  0.49680  1.0000
  Fe  Fe532     1.0  0.56858  0.92866  0.73007  1.0000
  C   C3197     1.0  0.69653  0.94900  0.53459  1.0000
  C   C3198     1.0  0.68660  0.95506  0.54154  1.0000
  H   H3172     1.0  0.53502  0.94835  0.69068  1.0000
  C   C3199     1.0  0.75600  0.91151  0.56206  1.0000
  H   H3173     1.0  0.70485  0.94615  0.53724  1.0000
  H   H3174     1.0  0.68729  0.95689  0.54954  1.0000
  H   H3175     1.0  0.59750  0.93338  0.72963  1.0000
  H   H3176     1.0  0.60368  0.95026  0.73213  1.0000
  H   H3177     1.0  0.51564  0.95544  0.66427  1.0000
  C   C3200     1.0  0.78852  0.92219  0.55165  1.0000
  H   H3178     1.0  0.91767  0.89550  0.50881  1.0000
  H   H3179     1.0  0.76480  0.98229  0.52954  1.0000
  C   C3201     1.0  0.53200  0.98341  0.68706  1.0000
  H   H3180     1.0  0.71753  0.95616  0.54175  1.0000
  Fe  Fe533     1.0  0.62214  0.97522  0.53943  1.0000
  H   H3181     1.0  0.53149  0.98076  0.66011  1.0000
  H   H3182     1.0  0.76570  0.90282  0.52420  1.0000
  H   H3183     1.0  0.79641  0.90370  0.55604  1.0000
  C   C3202     1.0  0.76737  0.92696  0.55447  1.0000
  N   N262      1.0  0.56131  0.98677  0.73152  1.0000
  H   H3184     1.0  0.91788  0.87570  0.51063  1.0000
  C   C3203     1.0  0.58712  0.98697  0.66480  1.0000
  C   C3204     1.0  0.59776  0.93402  0.73831  1.0000
  Fe  Fe534     1.0  0.97423  0.75935  0.52183  1.0000
  S   S1061     1.0  0.56899  0.94710  0.72991  1.0000
  C   C3205     1.0  0.59738  0.97673  0.56309  1.0000
  N   N263      1.0  0.93333  0.88184  0.50900  1.0000
  H   H3185     1.0  0.78228  0.97474  0.51495  1.0000
  N   N264      1.0  0.54331  0.98464  0.68489  1.0000
  C   C3206     1.0  0.56899  0.93792  0.67546  1.0000
  H   H3186     1.0  0.54143  0.98542  0.70279  1.0000
  H   H3187     1.0  0.50455  0.91357  0.73553  1.0000
  Fe  Fe535     1.0  0.64819  0.97145  0.53810  1.0000
  H   H3188     1.0  0.58981  0.93589  0.65011  1.0000
  Fe  Fe536     1.0  0.96814  0.76935  0.54345  1.0000
  C   C3207     1.0  0.90046  0.98191  0.51171  1.0000
  S   S1062     1.0  0.52589  0.96511  0.62188  1.0000
  H   H3189     1.0  0.77817  0.93983  0.54768  1.0000
  H   H3190     1.0  0.76989  0.90876  0.50314  1.0000
  S   S1063     1.0  0.63769  0.96042  0.53529  1.0000
  S   S1064     1.0  0.65192  0.98051  0.51922  1.0000
  H   H3191     1.0  0.52712  0.91908  0.71581  1.0000
  H   H3192     1.0  0.95811  0.80129  0.56481  1.0000
  H   H3193     1.0  0.50246  0.96764  0.70838  1.0000
  H   H3194     1.0  0.58893  0.95358  0.67104  1.0000
  C   C3208     1.0  0.59100  0.97052  0.57329  1.0000
  H   H3195     1.0  0.79686  0.92489  0.54890  1.0000
  H   H3196     1.0  0.59056  0.98377  0.68212  1.0000
  S   S1065     1.0  0.84974  0.90745  0.50853  1.0000
  H   H3197     1.0  0.92772  0.91130  0.50646  1.0000
  C   C3209     1.0  0.51189  0.96438  0.70721  1.0000
  H   H3198     1.0  0.93806  0.79220  0.49354  1.0000
  S   S1066     1.0  0.82058  0.89931  0.51091  1.0000
  C   C3210     1.0  0.53623  0.95619  0.70407  1.0000
  C   C3211     1.0  0.57931  0.93354  0.66781  1.0000
  H   H3199     1.0  0.55195  0.98327  0.65612  1.0000
  C   C3212     1.0  0.85603  0.91848  0.50934  1.0000
  C   C3213     1.0  0.58930  0.97991  0.67559  1.0000
  C   C3214     1.0  0.55198  0.93710  0.64790  1.0000
  C   C3215     1.0  0.93268  0.90223  0.50730  1.0000
  H   H3200     1.0  0.52703  0.93726  0.72826  1.0000
  C   C3216     1.0  0.94265  0.81274  0.54326  1.0000
  H   H3201     1.0  0.94090  0.82053  0.53643  1.0000
  C   C3217     1.0  0.97030  0.69729  0.53061  1.0000
  H   H3202     1.0  0.61577  0.96454  0.70659  1.0000
  C   C3218     1.0  0.82284  0.96393  0.51259  1.0000
  H   H3203     1.0  0.59240  0.96107  0.57467  1.0000
  N   N265      1.0  0.53195  0.94463  0.65721  1.0000
  C   C3219     1.0  0.81726  0.97471  0.51585  1.0000
  C   C3220     1.0  0.86656  0.93607  0.51005  1.0000
  C   C3221     1.0  0.84908  0.92839  0.51369  1.0000
  C   C3222     1.0  0.58622  0.97367  0.70844  1.0000
  H   H3204     1.0  0.92908  0.86530  0.51765  1.0000
  S   S1067     1.0  0.58235  0.92729  0.71338  1.0000
  C   C3223     1.0  0.60717  0.97044  0.70691  1.0000
  C   C3224     1.0  0.58252  0.97650  0.58152  1.0000
  H   H3205     1.0  0.58541  0.96641  0.65196  1.0000
  H   H3206     1.0  0.83968  0.92923  0.51687  1.0000
  H   H3207     1.0  0.74643  0.96683  0.54916  1.0000
  H   H3208     1.0  0.55620  0.98045  0.69507  1.0000
  H   H3209     1.0  0.55899  0.93687  0.64002  1.0000
  S   S1068     1.0  0.56467  0.92906  0.68930  1.0000
  C   C3225     1.0  0.77519  0.97009  0.51864  1.0000
  C   C3226     1.0  0.85435  0.93717  0.51408  1.0000
  H   H3210     1.0  0.52250  0.98727  0.60467  1.0000
  C   C3227     1.0  0.51795  0.96705  0.71410  1.0000
  C   C3228     1.0  0.53012  0.96275  0.71268  1.0000
  H   H3211     1.0  0.55932  0.98589  0.67212  1.0000
  H   H3212     1.0  0.57747  0.97164  0.58917  1.0000
  H   H3213     1.0  0.92481  0.81740  0.51741  1.0000
  H   H3214     1.0  0.70044  0.97370  0.51345  1.0000
  C   C3229     1.0  0.59732  0.96608  0.70801  1.0000
  S   S1069     1.0  0.81996  0.92771  0.50413  1.0000
  S   S1070     1.0  0.56435  0.98819  0.62250  1.0000
  C   C3230     1.0  0.57401  0.94957  0.65174  1.0000
  S   S1071     1.0  0.87299  0.94758  0.50941  1.0000
  H   H3215     1.0  0.90972  0.98063  0.51158  1.0000
  S   S1072     1.0  0.72504  0.92451  0.54189  1.0000
  S   S1073     1.0  0.57724  0.95614  0.63672  1.0000
  Fe  Fe537     1.0  0.55522  0.95250  0.71921  1.0000
  C   C3231     1.0  0.70790  0.97138  0.54893  1.0000
  Fe  Fe538     1.0  0.80950  0.91590  0.50261  1.0000
  H   H3216     1.0  0.88290  0.92514  0.50276  1.0000
  H   H3217     1.0  0.61359  0.98584  0.70510  1.0000
  S   S1074     1.0  0.73954  0.92060  0.51527  1.0000
  C   C3232     1.0  0.56139  0.94845  0.67136  1.0000
  H   H3218     1.0  0.96069  0.88584  0.50555  1.0000
  H   H3219     1.0  0.84897  0.94485  0.51743  1.0000
  H   H3220     1.0  0.53893  0.94867  0.63865  1.0000
  C   C3233     1.0  0.76529  0.97430  0.52689  1.0000
  C   C3234     1.0  0.56383  0.95420  0.65944  1.0000
  H   H3221     1.0  0.55333  0.95179  0.67722  1.0000
  H   H3222     1.0  0.51470  0.94603  0.65546  1.0000
  S   S1075     1.0  0.64693  0.96247  0.50100  1.0000
  C   C3235     1.0  0.95477  0.81059  0.51132  1.0000
  H   H3223     1.0  0.51319  0.97246  0.72044  1.0000
  C   C3236     1.0  0.52115  0.93197  0.73449  1.0000
  C   C3237     1.0  0.67489  0.95607  0.52794  1.0000
  S   S1076     1.0  0.73794  0.97851  0.51256  1.0000
  C   C3238     1.0  0.51386  0.97348  0.61558  1.0000
  C   C3239     1.0  0.76702  0.95358  0.52037  1.0000
  C   C3240     1.0  0.69557  0.94640  0.52439  1.0000
  Fe  Fe539     1.0  0.89022  0.94683  0.49613  1.0000
  C   C3241     1.0  0.54066  0.94391  0.64722  1.0000
  C   C3242     1.0  0.57928  0.97979  0.73848  1.0000
  H   H3224     1.0  0.66650  0.95832  0.52553  1.0000
  C   C3243     1.0  0.57340  0.97860  0.55432  1.0000
  H   H3225     1.0  0.55773  0.96199  0.65615  1.0000
  H   H3226     1.0  0.97903  0.70680  0.54210  1.0000
  C   C3244     1.0  0.51868  0.92546  0.71808  1.0000
  S   S1077     1.0  0.62356  0.98499  0.52045  1.0000
  C   C3245     1.0  0.68481  0.95010  0.52098  1.0000
  N   N266      1.0  0.75638  0.96837  0.53156  1.0000
  S   S1078     1.0  0.94090  0.79469  0.51799  1.0000
  H   H3227     1.0  0.52038  0.95910  0.64853  1.0000
  C   C3246     1.0  0.66988  0.93342  0.55450  1.0000
  H   H3228     1.0  0.66664  0.97795  0.56223  1.0000
  S   S1079     1.0  0.60613  0.96920  0.55193  1.0000
  C   C3247     1.0  0.97112  0.74231  0.55846  1.0000
  C   C3248     1.0  0.95640  0.75757  0.50113  1.0000
  S   S1080     1.0  0.53780  0.96534  0.72166  1.0000
  Fe  Fe540     1.0  0.72378  0.93314  0.52322  1.0000
  S   S1081     1.0  0.75320  0.92545  0.53273  1.0000
  C   C3249     1.0  0.96740  0.69189  0.52332  1.0000
  C   C3250     1.0  0.93573  0.82985  0.51373  1.0000
  S   S1082     1.0  0.55947  0.96809  0.61177  1.0000
  C   C3251     1.0  0.94327  0.80897  0.51420  1.0000
  S   S1083     1.0  0.56819  0.95366  0.70180  1.0000
  H   H3229     1.0  0.97159  0.74657  0.54932  1.0000
  H   H3230     1.0  0.70207  0.91919  0.53761  1.0000
  H   H3231     1.0  0.55279  0.98560  0.71896  1.0000
  H   H3232     1.0  0.92623  0.78417  0.56076  1.0000
  S   S1084     1.0  0.73585  0.94481  0.55459  1.0000
  C   C3252     1.0  0.81719  0.95448  0.51676  1.0000
  Fe  Fe541     1.0  0.56302  0.96936  0.62856  1.0000
  H   H3233     1.0  0.73946  0.94265  0.49646  1.0000
  H   H3234     1.0  0.94875  0.78486  0.56741  1.0000
  Fe  Fe542     1.0  0.99439  0.70264  0.56440  1.0000
  S   S1085     1.0  0.70752  0.93799  0.51612  1.0000
  C   C3253     1.0  0.95231  0.80197  0.55918  1.0000
  H   H3235     1.0  0.68404  0.94805  0.51311  1.0000
  H   H3236     1.0  0.93384  0.78268  0.54587  1.0000
  S   S1086     1.0  0.97359  0.77708  0.50948  1.0000
  C   C3254     1.0  0.99177  0.66987  0.52822  1.0000
  H   H3237     1.0  0.58090  0.97680  0.54712  1.0000
  N   N267      1.0  0.51593  0.92554  0.73065  1.0000
  C   C3255     1.0  0.95118  0.88795  0.50672  1.0000
  C   C3256     1.0  0.75716  0.95814  0.52841  1.0000
  C   C3257     1.0  0.72262  0.96315  0.56490  1.0000
  S   S1087     1.0  0.96518  0.76439  0.56301  1.0000
  C   C3258     1.0  0.94523  0.87913  0.50819  1.0000
  C   C3259     1.0  0.54641  0.98295  0.66491  1.0000
  H   H3238     1.0  0.82148  0.94619  0.51420  1.0000
  Fe  Fe543     1.0  0.73620  0.93720  0.53957  1.0000
  H   H3239     1.0  0.73786  0.97266  0.53803  1.0000
  S   S1088     1.0  0.97612  0.86007  0.50099  1.0000
  H   H3240     1.0  0.58566  0.97262  0.74237  1.0000
  H   H3241     1.0  0.72844  0.96007  0.57098  1.0000
  C   C3260     1.0  0.72405  0.95695  0.55622  1.0000
  H   H3242     1.0  0.69565  0.90671  0.54001  1.0000
  H   H3243     1.0  0.96424  0.68381  0.52691  1.0000
  H   H3244     1.0  0.55646  0.96451  0.57837  1.0000
  S   S1089     1.0  0.96688  0.78796  0.53336  1.0000
  C   C3261     1.0  0.54527  0.93140  0.66895  1.0000
  C   C3262     1.0  0.55424  0.93076  0.65884  1.0000
  H   H3245     1.0  0.96657  0.69275  0.50556  1.0000
  N   N268      1.0  0.58587  0.98207  0.65642  1.0000
  H   H3246     1.0  0.78053  0.91782  0.49690  1.0000
  Fe  Fe544     1.0  0.63990  0.97096  0.51669  1.0000
  S   S1090     1.0  0.73337  0.94700  0.52158  1.0000
  H   H3247     1.0  0.94939  0.90657  0.50468  1.0000
  C   C3263     1.0  0.97318  0.70703  0.50669  1.0000
  H   H3248     1.0  0.65671  0.93421  0.53291  1.0000
  C   C3264     1.0  0.87347  0.92614  0.50573  1.0000
  C   C3265     1.0  0.55975  0.97176  0.57202  1.0000
  Fe  Fe545     1.0  0.74928  0.93387  0.51496  1.0000
  H   H3249     1.0  0.94079  0.77476  0.55783  1.0000
  H   H3250     1.0  0.71320  0.97866  0.57182  1.0000
  C   C3266     1.0  0.71396  0.97360  0.56545  1.0000
  C   C3267     1.0  0.99114  0.74174  0.50519  1.0000
  H   H3251     1.0  0.99022  0.78158  0.53910  1.0000
  S   S1091     1.0  0.97813  0.70907  0.57730  1.0000
  H   H3252     1.0  0.88068  0.96602  0.51374  1.0000
  H   H3253     1.0  0.54596  0.97798  0.59134  1.0000
  C   C3268     1.0  0.93758  0.80323  0.54485  1.0000
  C   C3269     1.0  0.68107  0.92694  0.55017  1.0000
  H   H3254     1.0  0.98538  0.71652  0.52945  1.0000
  H   H3255     1.0  0.99484  0.73218  0.56371  1.0000
  C   C3270     1.0  0.58347  0.98951  0.64518  1.0000
  H   H3256     1.0  0.78468  0.90247  0.49631  1.0000
  Fe  Fe546     1.0  0.98316  0.78057  0.52102  1.0000
  C   C3271     1.0  0.67182  0.98478  0.55771  1.0000
  C   C3272     1.0  0.69510  0.91615  0.53572  1.0000
  H   H3257     1.0  0.66819  0.93686  0.56233  1.0000
  H   H3258     1.0  0.59184  0.96223  0.68612  1.0000
  H   H3259     1.0  0.99628  0.71900  0.58307  1.0000
  H   H3260     1.0  0.70223  0.97449  0.54275  1.0000
  N   N269      1.0  0.94008  0.79322  0.55319  1.0000
  H   H3261     1.0  0.75005  0.95354  0.53204  1.0000
  C   C3273     1.0  0.97386  0.73001  0.56163  1.0000
  C   C3274     1.0  0.50342  0.96943  0.61894  1.0000
  H   H3262     1.0  0.65246  0.94135  0.55138  1.0000
  H   H3263     1.0  0.96452  0.74847  0.58563  1.0000
  C   C3275     1.0  0.66105  0.93598  0.54831  1.0000
  C   C3276     1.0  0.66345  0.93200  0.53793  1.0000
  H   H3264     1.0  0.76766  0.94543  0.51793  1.0000
  H   H3265     1.0  0.71104  0.96161  0.50825  1.0000
  H   H3266     1.0  0.96925  0.69333  0.53993  1.0000
  C   C3277     1.0  0.58021  0.98877  0.57948  1.0000
  S   S1092     1.0  0.70445  0.99331  0.52284  1.0000
  H   H3267     1.0  0.96990  0.72049  0.53591  1.0000
  H   H3268     1.0  0.78378  0.95611  0.50923  1.0000
  S   S1093     1.0  0.54402  0.97340  0.63748  1.0000
  C   C3278     1.0  0.70677  0.97786  0.55728  1.0000
  H   H3269     1.0  0.93179  0.80382  0.53923  1.0000
  C   C3279     1.0  0.53409  0.93840  0.66797  1.0000
  C   C3280     1.0  0.88422  0.97358  0.51286  1.0000
  N   N270      1.0  0.97466  0.70725  0.52601  1.0000
  S   S1094     1.0  0.95710  0.76486  0.53408  1.0000
  C   C3281     1.0  0.55134  0.98450  0.72862  1.0000
  C   C3282     1.0  0.97605  0.71217  0.51423  1.0000
  C   C3283     1.0  0.95016  0.81203  0.55039  1.0000
  H   H3270     1.0  0.67941  0.98100  0.55117  1.0000
  Fe  Fe547     1.0  0.55940  0.98738  0.60625  1.0000
  C   C3284     1.0  0.53489  0.98161  0.66711  1.0000
  C   C3285     1.0  0.97333  0.72435  0.57344  1.0000
  H   H3271     1.0  0.52717  0.93886  0.67588  1.0000
  N   N271      1.0  0.68339  0.92316  0.53994  1.0000
  C   C3286     1.0  0.96708  0.74334  0.57893  1.0000
  H   H3272     1.0  0.50966  0.98354  0.63907  1.0000
  H   H3273     1.0  0.95429  0.81928  0.54909  1.0000
  H   H3274     1.0  0.56823  0.96873  0.73854  1.0000
  C   C3287     1.0  0.74611  0.97266  0.54034  1.0000
  C   C3288     1.0  0.96788  0.74900  0.56709  1.0000
  C   C3289     1.0  0.96972  0.73101  0.58212  1.0000
  H   H3275     1.0  0.97639  0.72489  0.55493  1.0000
  C   C3290     1.0  0.50470  0.99064  0.60257  1.0000
  H   H3276     1.0  0.57856  0.97030  0.70948  1.0000
  H   H3277     1.0  0.92836  0.83728  0.51475  1.0000
  H   H3278     1.0  0.96928  0.72662  0.59127  1.0000
  C   C3291     1.0  0.50865  0.91874  0.73853  1.0000
  Fe  Fe548     1.0  0.95740  0.78284  0.52279  1.0000
  H   H3279     1.0  0.57294  0.96036  0.56144  1.0000
  C   C3292     1.0  0.52763  0.98182  0.67826  1.0000
  H   H3280     1.0  0.51948  0.93433  0.71261  1.0000
  N   N272      1.0  0.55516  0.98306  0.57356  1.0000
  H   H3281     1.0  0.56300  0.92553  0.65953  1.0000
  S   S1095     1.0  0.63262  0.98546  0.54368  1.0000
  C   C3293     1.0  0.94705  0.79265  0.56055  1.0000
  C   C3294     1.0  0.92753  0.87245  0.50985  1.0000
  C   C3295     1.0  0.52009  0.95165  0.65633  1.0000
  C   C3296     1.0  0.56944  0.97766  0.73627  1.0000
  H   H3282     1.0  0.53684  0.98694  0.58116  1.0000
  C   C3297     1.0  0.99638  0.67701  0.50711  1.0000
  H   H3283     1.0  0.51857  0.98100  0.68008  1.0000
  Fe  Fe549     1.0  0.99314  0.84728  0.49582  1.0000
  H   H3284     1.0  0.67521  0.98668  0.56445  1.0000
  C   C3298     1.0  0.99624  0.67870  0.52966  1.0000
  C   C3299     1.0  0.86822  0.91737  0.50538  1.0000
  H   H3285     1.0  0.95014  0.77322  0.50815  1.0000
  H   H3286     1.0  0.93126  0.86864  0.50186  1.0000
  H   H3287     1.0  0.86774  0.98611  0.51174  1.0000
  S   S1096     1.0  0.82383  0.98677  0.50970  1.0000
  H   H3288     1.0  0.62945  0.98376  0.49467  1.0000
  C   C3300     1.0  0.95229  0.76971  0.50030  1.0000
  C   C3301     1.0  0.56898  0.96935  0.56242  1.0000
  H   H3289     1.0  0.52621  0.98376  0.69561  1.0000
  S   S1097     1.0  0.90818  0.93835  0.49969  1.0000
  H   H3290     1.0  0.54998  0.97551  0.73296  1.0000
  H   H3291     1.0  0.83148  0.96297  0.50682  1.0000
  H   H3292     1.0  0.98827  0.66370  0.53586  1.0000
  H   H3293     1.0  0.87362  0.90969  0.50207  1.0000
  Fe  Fe550     1.0  0.97687  0.66540  0.49950  1.0000
  H   H3294     1.0  0.98468  0.75986  0.49752  1.0000
  N   N273      1.0  0.71104  0.97804  0.49609  1.0000
  S   S1098     1.0  0.95735  0.67078  0.50108  1.0000
  S   S1099     1.0  0.76306  0.93927  0.49918  1.0000
  H   H3295     1.0  0.51254  0.95935  0.74023  1.0000
  C   C3302     1.0  0.59491  0.99013  0.70612  1.0000
  C   C3303     1.0  0.58086  0.99127  0.73562  1.0000
  H   H3296     1.0  0.97432  0.71089  0.49735  1.0000
  H   H3297     1.0  0.57647  0.99152  0.70790  1.0000
  N   N274      1.0  0.89332  0.99297  0.51043  1.0000
  H   H3298     1.0  0.57399  0.99104  0.64525  1.0000
  H   H3299     1.0  0.84023  0.95048  0.49363  1.0000
  S   S1100     1.0  0.98434  0.83352  0.49522  1.0000
  H   H3300     1.0  0.54309  0.99075  0.73172  1.0000
  C   C3304     1.0  0.77745  0.91049  0.49574  1.0000
  H   H3301     1.0  0.75931  0.96736  0.49841  1.0000
  C   C3305     1.0  0.74338  0.98078  0.49737  1.0000
  H   H3302     1.0  0.49685  0.96340  0.74187  1.0000
  Fe  Fe551     1.0  0.54489  0.99224  0.63000  1.0000
  C   C3306     1.0  0.50470  0.99255  0.63885  1.0000
  C   C3307     1.0  0.56853  0.99011  0.55585  1.0000
  H   H3303     1.0  0.58845  0.99309  0.73725  1.0000
  H   H3304     1.0  0.95286  0.79264  0.49331  1.0000
  S   S1101     1.0  0.92463  0.96323  0.49299  1.0000
  S   S1102     1.0  0.69780  0.99208  0.55618  1.0000
  C   C3308     1.0  0.55933  0.99220  0.56556  1.0000
  H   H3305     1.0  0.54565  0.99333  0.58642  1.0000
  S   S1103     1.0  0.53986  0.99326  0.61330  1.0000
  C   C3309     1.0  0.70375  0.98882  0.49331  1.0000
  C   C3310     1.0  0.75440  0.97429  0.49268  1.0000
  Fe  Fe552     1.0  0.60028  0.69349  0.93635  1.0000
  S   S1104     1.0  0.58600  0.70747  0.94385  1.0000
  S   S1105     1.0  0.61428  0.69828  0.92018  1.0000
  H   H3306     1.0  0.59241  0.98523  0.79072  1.0000
  S   S1106     1.0  0.57607  0.68690  0.96469  1.0000
  H   H3307     1.0  0.50868  0.72418  0.94405  1.0000
  Fe  Fe553     1.0  0.57418  0.69556  0.94618  1.0000
  S   S1107     1.0  0.55766  0.70467  0.93974  1.0000
  Fe  Fe554     1.0  0.58976  0.69734  0.96116  1.0000
  S   S1108     1.0  0.59231  0.70627  0.97385  1.0000
  S   S1109     1.0  0.58814  0.68204  0.93756  1.0000
  S   S1110     1.0  0.60484  0.68399  0.95376  1.0000
  H   H3308     1.0  0.59010  0.67052  0.98259  1.0000
  Fe  Fe555     1.0  0.57879  0.77942  0.92778  1.0000
  S   S1111     1.0  0.57508  0.77029  0.94680  1.0000
  S   S1112     1.0  0.56610  0.79602  0.92172  1.0000
  Fe  Fe556     1.0  0.59951  0.76006  0.92089  1.0000
  S   S1113     1.0  0.59749  0.74922  0.93927  1.0000
  S   S1114     1.0  0.61424  0.75233  0.90724  1.0000
  Fe  Fe557     1.0  0.57833  0.75421  0.93974  1.0000
  S   S1115     1.0  0.56735  0.74109  0.94929  1.0000
  Fe  Fe558     1.0  0.59465  0.76616  0.94461  1.0000
  S   S1116     1.0  0.60316  0.76443  0.95933  1.0000
  S   S1117     1.0  0.58035  0.76356  0.92083  1.0000
  S   S1118     1.0  0.59826  0.77681  0.92616  1.0000
  C   C3311     1.0  0.59473  0.92529  0.74809  1.0000
  Fe  Fe559     1.0  0.52810  0.93162  0.86169  1.0000
  S   S1119     1.0  0.54415  0.92543  0.86938  1.0000
  S   S1120     1.0  0.52634  0.92124  0.84976  1.0000
  Fe  Fe560     1.0  0.53156  0.93017  0.88578  1.0000
  S   S1121     1.0  0.53472  0.91845  0.90319  1.0000
  H   H3309     1.0  0.54745  0.75189  0.91673  1.0000
  Fe  Fe561     1.0  0.55720  0.97281  0.76974  1.0000
  C   C3312     1.0  0.57171  0.74585  0.97469  1.0000
  Fe  Fe562     1.0  0.53790  0.84429  0.95512  1.0000
  S   S1122     1.0  0.52340  0.84300  0.94778  1.0000
  S   S1123     1.0  0.55620  0.83295  0.95317  1.0000
  Fe  Fe563     1.0  0.52190  0.86217  0.96927  1.0000
  C   C3313     1.0  0.53654  0.66601  0.98139  1.0000
  S   S1124     1.0  0.52254  0.87312  0.98119  1.0000
  H   H3310     1.0  0.55134  0.96063  0.81737  1.0000
  Fe  Fe564     1.0  0.51821  0.86276  0.94543  1.0000
  H   H3311     1.0  0.61177  0.72126  0.96448  1.0000
  S   S1125     1.0  0.52746  0.84259  0.97369  1.0000
  S   S1126     1.0  0.53372  0.86401  0.95128  1.0000
  H   H3312     1.0  0.53862  0.96860  0.86103  1.0000
  C   C3314     1.0  0.53525  0.75066  0.93359  1.0000
  C   C3315     1.0  0.57978  0.71037  0.91356  1.0000
  H   H3313     1.0  0.51791  0.73218  0.93179  1.0000
  H   H3314     1.0  0.52530  0.74903  0.95150  1.0000
  H   H3315     1.0  0.55060  0.92260  0.81063  1.0000
  H   H3316     1.0  0.55028  0.81020  0.97835  1.0000
  S   S1127     1.0  0.53033  0.95012  0.85486  1.0000
  C   C3316     1.0  0.55103  0.69524  0.93649  1.0000
  Fe  Fe565     1.0  0.51910  0.95331  0.87232  1.0000
  H   H3317     1.0  0.62672  0.75106  0.94539  1.0000
  S   S1128     1.0  0.52275  0.75549  0.92765  1.0000
  H   H3318     1.0  0.55238  0.99139  0.87240  1.0000
  C   C3317     1.0  0.59548  0.73841  0.89176  1.0000
  S   S1129     1.0  0.56780  0.93114  0.79101  1.0000
  N   N275      1.0  0.59007  0.72872  0.89929  1.0000
  C   C3318     1.0  0.53293  0.78169  0.92516  1.0000
  C   C3319     1.0  0.52158  0.95899  0.77587  1.0000
  H   H3319     1.0  0.55250  0.80648  0.96437  1.0000
  H   H3320     1.0  0.60430  0.71536  0.89289  1.0000
  S   S1130     1.0  0.51872  0.93748  0.77545  1.0000
  S   S1131     1.0  0.50042  0.75239  0.98566  1.0000
  H   H3321     1.0  0.52539  0.81689  0.93869  1.0000
  H   H3322     1.0  0.54066  0.93054  0.78564  1.0000
  C   C3320     1.0  0.51149  0.92500  0.75458  1.0000
  C   C3321     1.0  0.54936  0.67563  0.93697  1.0000
  H   H3323     1.0  0.52271  0.80985  0.97536  1.0000
  H   H3324     1.0  0.50043  0.91309  0.75681  1.0000
  H   H3325     1.0  0.59283  0.91931  0.76677  1.0000
  H   H3326     1.0  0.54341  0.74805  0.99032  1.0000
  C   C3322     1.0  0.54233  0.92909  0.81137  1.0000
  C   C3323     1.0  0.52478  0.93922  0.80471  1.0000
  C   C3324     1.0  0.55941  0.74835  0.97688  1.0000
  C   C3325     1.0  0.57107  0.91417  0.77878  1.0000
  C   C3326     1.0  0.54157  0.78147  0.93080  1.0000
  C   C3327     1.0  0.55901  0.82680  0.98959  1.0000
  C   C3328     1.0  0.61652  0.72592  0.95634  1.0000
  H   H3327     1.0  0.51443  0.95902  0.78352  1.0000
  C   C3329     1.0  0.53869  0.92448  0.79433  1.0000
  C   C3330     1.0  0.51366  0.92703  0.84396  1.0000
  N   N276      1.0  0.52634  0.66326  0.99068  1.0000
  H   H3328     1.0  0.51313  0.72642  0.98385  1.0000
  H   H3329     1.0  0.60526  0.73560  0.88972  1.0000
  H   H3330     1.0  0.59330  0.74586  0.89628  1.0000
  C   C3331     1.0  0.51270  0.92299  0.83457  1.0000
  C   C3332     1.0  0.51734  0.97927  0.88305  1.0000
  C   C3333     1.0  0.51902  0.93179  0.74651  1.0000
  H   H3331     1.0  0.51973  0.91628  0.83100  1.0000
  C   C3334     1.0  0.52862  0.90602  0.90954  1.0000
  C   C3335     1.0  0.51799  0.90546  0.90758  1.0000
  H   H3332     1.0  0.55245  0.66618  0.93920  1.0000
  C   C3336     1.0  0.51837  0.88669  0.92176  1.0000
  C   C3337     1.0  0.52912  0.88715  0.92347  1.0000
  C   C3338     1.0  0.53420  0.89679  0.91741  1.0000
  H   H3333     1.0  0.51360  0.91259  0.90157  1.0000
  S   S1132     1.0  0.51528  0.93512  0.87847  1.0000
  H   H3334     1.0  0.53356  0.88010  0.92944  1.0000
  H   H3335     1.0  0.54244  0.89718  0.91894  1.0000
  C   C3339     1.0  0.59402  0.77364  0.96869  1.0000
  C   C3340     1.0  0.59405  0.77042  0.98069  1.0000
  C   C3341     1.0  0.58610  0.77726  0.98841  1.0000
  C   C3342     1.0  0.57832  0.78748  0.98409  1.0000
  C   C3343     1.0  0.57861  0.79095  0.97203  1.0000
  C   C3344     1.0  0.58634  0.78393  0.96435  1.0000
  H   H3336     1.0  0.60002  0.76251  0.98407  1.0000
  C   C3345     1.0  0.53684  0.96823  0.76209  1.0000
  H   H3337     1.0  0.57265  0.79887  0.96868  1.0000
  H   H3338     1.0  0.58643  0.78649  0.95505  1.0000
  C   C3346     1.0  0.56393  0.80670  0.92980  1.0000
  C   C3347     1.0  0.55457  0.81655  0.92889  1.0000
  C   C3348     1.0  0.55230  0.82481  0.93585  1.0000
  C   C3349     1.0  0.55949  0.82332  0.94361  1.0000
  C   C3350     1.0  0.56911  0.81368  0.94418  1.0000
  C   C3351     1.0  0.57123  0.80529  0.93741  1.0000
  H   H3339     1.0  0.54903  0.81776  0.92285  1.0000
  H   H3340     1.0  0.54515  0.83243  0.93502  1.0000
  H   H3341     1.0  0.57486  0.81263  0.94996  1.0000
  H   H3342     1.0  0.57861  0.79781  0.93795  1.0000
  H   H3343     1.0  0.59538  0.69895  0.90568  1.0000
  C   C3352     1.0  0.54391  0.74472  0.95064  1.0000
  C   C3353     1.0  0.55510  0.74425  0.94324  1.0000
  C   C3354     1.0  0.57929  0.73114  0.90674  1.0000
  H   H3344     1.0  0.54292  0.74274  0.96010  1.0000
  C   C3355     1.0  0.59067  0.70799  0.90584  1.0000
  H   H3345     1.0  0.52574  0.94854  0.82839  1.0000
  H   H3346     1.0  0.56561  0.72389  0.92019  1.0000
  H   H3347     1.0  0.53784  0.70949  0.92971  1.0000
  C   C3356     1.0  0.52847  0.94382  0.82131  1.0000
  C   C3357     1.0  0.61417  0.71339  0.91573  1.0000
  C   C3358     1.0  0.62406  0.71731  0.90823  1.0000
  C   C3359     1.0  0.62405  0.72939  0.90519  1.0000
  C   C3360     1.0  0.61419  0.73746  0.90982  1.0000
  C   C3361     1.0  0.60422  0.73355  0.91688  1.0000
  C   C3362     1.0  0.60418  0.72162  0.91964  1.0000
  H   H3348     1.0  0.63179  0.71102  0.90496  1.0000
  H   H3349     1.0  0.63176  0.73243  0.89960  1.0000
  H   H3350     1.0  0.59638  0.73974  0.92005  1.0000
  H   H3351     1.0  0.59619  0.71896  0.92433  1.0000
  C   C3363     1.0  0.57810  0.71213  0.98107  1.0000
  C   C3364     1.0  0.56759  0.91842  0.75907  1.0000
  C   C3365     1.0  0.50236  0.70388  0.98528  1.0000
  H   H3352     1.0  0.59572  0.68442  0.99050  1.0000
  C   C3366     1.0  0.55735  0.71984  0.98106  1.0000
  C   C3367     1.0  0.56898  0.71633  0.97500  1.0000
  H   H3353     1.0  0.57250  0.66397  0.95626  1.0000
  H   H3354     1.0  0.51282  0.95198  0.81442  1.0000
  H   H3355     1.0  0.55033  0.72303  0.97635  1.0000
  H   H3356     1.0  0.57087  0.71681  0.96563  1.0000
  H   H3357     1.0  0.57786  0.99122  0.78817  1.0000
  N   N277      1.0  0.52979  0.79894  0.93754  1.0000
  H   H3358     1.0  0.51332  0.80611  0.93244  1.0000
  H   H3359     1.0  0.57586  0.70319  0.91924  1.0000
  C   C3368     1.0  0.54573  0.78840  0.98236  1.0000
  C   C3369     1.0  0.54471  0.69457  0.98688  1.0000
  H   H3360     1.0  0.57671  0.74689  0.96566  1.0000
  C   C3370     1.0  0.55640  0.74689  0.93102  1.0000
  H   H3361     1.0  0.53977  0.81728  0.96924  1.0000
  C   C3371     1.0  0.52532  0.94956  0.77017  1.0000
  S   S1133     1.0  0.53420  0.94866  0.88115  1.0000
  H   H3362     1.0  0.54667  0.79000  0.94126  1.0000
  H   H3363     1.0  0.50977  0.92477  0.76393  1.0000
  H   H3364     1.0  0.55415  0.94773  0.83672  1.0000
  H   H3365     1.0  0.52108  0.98477  0.84776  1.0000
  C   C3372     1.0  0.53052  0.98427  0.84337  1.0000
  H   H3366     1.0  0.54466  0.93373  0.82642  1.0000
  H   H3367     1.0  0.60778  0.93066  0.77419  1.0000
  H   H3368     1.0  0.55500  0.75123  0.96960  1.0000
  N   N278      1.0  0.61942  0.72176  0.94625  1.0000
  H   H3369     1.0  0.50618  0.98418  0.77699  1.0000
  C   C3373     1.0  0.62496  0.72785  0.93588  1.0000
  C   C3374     1.0  0.52753  0.96818  0.77197  1.0000
  C   C3375     1.0  0.62774  0.73843  0.93539  1.0000
  H   H3370     1.0  0.59829  0.94517  0.77301  1.0000
  C   C3376     1.0  0.61568  0.71124  0.94639  1.0000
  H   H3371     1.0  0.52325  0.93677  0.74958  1.0000
  H   H3372     1.0  0.62703  0.72467  0.92786  1.0000
  H   H3373     1.0  0.53010  0.89181  0.96085  1.0000
  H   H3374     1.0  0.63168  0.74348  0.92702  1.0000
  S   S1134     1.0  0.57320  0.95841  0.76657  1.0000
  H   H3375     1.0  0.62143  0.70670  0.93928  1.0000
  N   N279      1.0  0.50849  0.90017  0.94571  1.0000
  H   H3376     1.0  0.52717  0.69640  0.92641  1.0000
  C   C3377     1.0  0.53397  0.74819  0.94579  1.0000
  C   C3378     1.0  0.53981  0.79018  0.93705  1.0000
  C   C3379     1.0  0.59568  0.71733  0.89864  1.0000
  Fe  Fe566     1.0  0.56694  0.95055  0.78560  1.0000
  H   H3377     1.0  0.57480  0.74016  0.90719  1.0000
  S   S1135     1.0  0.50649  0.97107  0.87072  1.0000
  H   H3378     1.0  0.59195  0.93261  0.77922  1.0000
  S   S1136     1.0  0.53003  0.67139  0.93290  1.0000
  H   H3379     1.0  0.53594  0.80767  0.94702  1.0000
  H   H3380     1.0  0.59237  0.74161  0.88342  1.0000
  H   H3381     1.0  0.53367  0.67395  0.97475  1.0000
  H   H3382     1.0  0.54786  0.89753  0.88353  1.0000
  H   H3383     1.0  0.50202  0.92459  0.82242  1.0000
  H   H3384     1.0  0.54515  0.87979  0.89940  1.0000
  C   C3380     1.0  0.55664  0.97499  0.82017  1.0000
  Fe  Fe567     1.0  0.56079  0.97396  0.79277  1.0000
  H   H3385     1.0  0.54801  0.95864  0.74894  1.0000
  H   H3386     1.0  0.53788  0.94212  0.75613  1.0000
  H   H3387     1.0  0.60440  0.95139  0.75206  1.0000
  C   C3381     1.0  0.54026  0.97719  0.85995  1.0000
  C   C3382     1.0  0.60157  0.94407  0.75102  1.0000
  H   H3388     1.0  0.53128  0.99080  0.83487  1.0000
  H   H3389     1.0  0.50312  0.95807  0.75480  1.0000
  C   C3383     1.0  0.58328  0.98944  0.79473  1.0000
  H   H3390     1.0  0.61699  0.73977  0.96418  1.0000
  C   C3384     1.0  0.62495  0.74268  0.94566  1.0000
  H   H3391     1.0  0.56610  0.97439  0.84429  1.0000
  C   C3385     1.0  0.56249  0.93403  0.76975  1.0000
  H   H3392     1.0  0.51946  0.97029  0.88787  1.0000
  H   H3393     1.0  0.53731  0.90810  0.94527  1.0000
  S   S1137     1.0  0.60093  0.96895  0.76556  1.0000
  C   C3386     1.0  0.55292  0.74657  0.98847  1.0000
  C   C3387     1.0  0.50417  0.96347  0.74568  1.0000
  C   C3388     1.0  0.56284  0.97141  0.83844  1.0000
  H   H3394     1.0  0.54956  0.70265  0.96377  1.0000
  N   N280      1.0  0.59841  0.93554  0.76059  1.0000
  C   C3389     1.0  0.56078  0.97888  0.82777  1.0000
  C   C3390     1.0  0.54150  0.70776  0.96819  1.0000
  H   H3395     1.0  0.52064  0.80677  0.95214  1.0000
  Fe  Fe568     1.0  0.58192  0.96842  0.77321  1.0000
  C   C3391     1.0  0.52788  0.80798  0.94422  1.0000
  N   N281      1.0  0.52241  0.89428  0.87987  1.0000
  C   C3392     1.0  0.53208  0.89879  0.87789  1.0000
  C   C3393     1.0  0.52087  0.88448  0.88853  1.0000
  C   C3394     1.0  0.54041  0.89366  0.88487  1.0000
  C   C3395     1.0  0.52911  0.87902  0.89557  1.0000
  C   C3396     1.0  0.53890  0.88371  0.89375  1.0000
  C   C3397     1.0  0.52514  0.89682  0.95419  1.0000
  H   H3396     1.0  0.53334  0.90646  0.87093  1.0000
  C   C3398     1.0  0.58741  0.67035  0.99197  1.0000
  S   S1138     1.0  0.51499  0.66988  0.96493  1.0000
  C   C3399     1.0  0.54630  0.84568  0.99210  1.0000
  C   C3400     1.0  0.52913  0.90599  0.94551  1.0000
  H   H3397     1.0  0.57989  0.98308  0.80267  1.0000
  H   H3398     1.0  0.51784  0.89891  0.86325  1.0000
  C   C3401     1.0  0.51173  0.72620  0.93431  1.0000
  C   C3402     1.0  0.52124  0.94574  0.81349  1.0000
  C   C3403     1.0  0.57403  0.72200  0.91405  1.0000
  C   C3404     1.0  0.59515  0.92617  0.75922  1.0000
  S   S1139     1.0  0.54466  0.97930  0.75787  1.0000
  S   S1140     1.0  0.50594  0.86237  0.96332  1.0000
  H   H3399     1.0  0.56466  0.82089  0.98394  1.0000
  S   S1141     1.0  0.55409  0.98437  0.80687  1.0000
  H   H3400     1.0  0.55945  0.93635  0.75254  1.0000
  C   C3405     1.0  0.54575  0.80880  0.97221  1.0000
  H   H3401     1.0  0.49652  0.82541  0.93909  1.0000
  H   H3402     1.0  0.49967  0.71523  0.92704  1.0000
  C   C3406     1.0  0.53908  0.93544  0.82025  1.0000
  C   C3407     1.0  0.55535  0.68304  0.93891  1.0000
  H   H3403     1.0  0.56507  0.74655  0.92536  1.0000
  C   C3408     1.0  0.54647  0.74987  0.92618  1.0000
  Fe  Fe569     1.0  0.54522  0.94432  0.86406  1.0000
  H   H3404     1.0  0.56309  0.67930  0.94253  1.0000
  N   N282      1.0  0.53520  0.93102  0.80374  1.0000
  H   H3405     1.0  0.53146  0.92050  0.79442  1.0000
  C   C3409     1.0  0.55446  0.96368  0.82328  1.0000
  C   C3410     1.0  0.54104  0.70006  0.93174  1.0000
  C   C3411     1.0  0.55349  0.83815  0.98468  1.0000
  C   C3412     1.0  0.59917  0.93600  0.77232  1.0000
  C   C3413     1.0  0.51285  0.89583  0.91373  1.0000
  C   C3414     1.0  0.52477  0.72414  0.96721  1.0000
  C   C3415     1.0  0.56023  0.96026  0.84178  1.0000
  S   S1142     1.0  0.56133  0.95167  0.85583  1.0000
  H   H3406     1.0  0.57493  0.90116  0.76832  1.0000
  C   C3416     1.0  0.51469  0.89407  0.95420  1.0000
  H   H3407     1.0  0.57435  0.90796  0.78609  1.0000
  C   C3417     1.0  0.55603  0.95640  0.83421  1.0000
  H   H3408     1.0  0.51911  0.94062  0.79873  1.0000
  H   H3409     1.0  0.54666  0.91731  0.79517  1.0000
  H   H3410     1.0  0.53419  0.77505  0.92022  1.0000
  S   S1143     1.0  0.55014  0.96416  0.78829  1.0000
  S   S1144     1.0  0.49821  0.74958  0.95584  1.0000
  S   S1145     1.0  0.57702  0.95940  0.79212  1.0000
  H   H3411     1.0  0.49835  0.71602  0.96945  1.0000
  H   H3412     1.0  0.55475  0.84107  0.97517  1.0000
  N   N283      1.0  0.53951  0.79929  0.97797  1.0000
  H   H3413     1.0  0.51102  0.90961  0.87231  1.0000
  H   H3414     1.0  0.50576  0.89637  0.87566  1.0000
  C   C3418     1.0  0.50272  0.92773  0.82967  1.0000
  H   H3415     1.0  0.52570  0.91939  0.93014  1.0000
  H   H3416     1.0  0.50527  0.93887  0.85580  1.0000
  S   S1146     1.0  0.50784  0.69587  0.94774  1.0000
  C   C3419     1.0  0.54054  0.95886  0.75633  1.0000
  H   H3417     1.0  0.53812  0.71981  0.95205  1.0000
  S   S1147     1.0  0.50918  0.77227  0.95368  1.0000
  H   H3418     1.0  0.52515  0.97514  0.77675  1.0000
  H   H3419     1.0  0.54839  0.68733  0.98202  1.0000
  C   C3420     1.0  0.53508  0.71748  0.96154  1.0000
  N   N284      1.0  0.53770  0.70472  0.98014  1.0000
  H   H3420     1.0  0.59204  0.91790  0.74704  1.0000
  H   H3421     1.0  0.54965  0.77469  0.93021  1.0000
  C   C3421     1.0  0.50459  0.93573  0.84854  1.0000
  C   C3422     1.0  0.53906  0.68045  0.93270  1.0000
  C   C3423     1.0  0.53505  0.69267  0.92986  1.0000
  H   H3422     1.0  0.51957  0.73153  0.96217  1.0000
  H   H3423     1.0  0.61950  0.97621  0.77056  1.0000
  Fe  Fe570     1.0  0.59100  0.67413  0.95594  1.0000
  H   H3424     1.0  0.53787  0.99169  0.78943  1.0000
  C   C3424     1.0  0.51218  0.90937  0.93736  1.0000
  Fe  Fe571     1.0  0.50774  0.76191  0.94162  1.0000
  C   C3425     1.0  0.56695  0.92610  0.77911  1.0000
  C   C3426     1.0  0.51380  0.90001  0.87246  1.0000
  C   C3427     1.0  0.52265  0.79053  0.92588  1.0000
  Fe  Fe572     1.0  0.51257  0.84274  0.96615  1.0000
  C   C3428     1.0  0.56289  0.93020  0.75972  1.0000
  H   H3425     1.0  0.52771  0.87146  0.90268  1.0000
  H   H3426     1.0  0.55513  0.78687  0.98164  1.0000
  H   H3427     1.0  0.61589  0.70481  0.95492  1.0000
  C   C3429     1.0  0.51078  0.98209  0.87443  1.0000
  N   N285      1.0  0.57737  0.74190  0.98380  1.0000
  S   S1148     1.0  0.51164  0.87485  0.92953  1.0000
  C   C3430     1.0  0.49876  0.82187  0.96730  1.0000
  H   H3428     1.0  0.51577  0.79068  0.92170  1.0000
  N   N286      1.0  0.50423  0.97549  0.74585  1.0000
  Fe  Fe573     1.0  0.51380  0.67701  0.94613  1.0000
  C   C3431     1.0  0.50629  0.91841  0.75060  1.0000
  N   N287      1.0  0.53669  0.98627  0.85119  1.0000
  H   H3429     1.0  0.59405  0.74396  0.97266  1.0000
  H   H3430     1.0  0.51678  0.71791  0.93140  1.0000
  C   C3432     1.0  0.49705  0.98821  0.77708  1.0000
  C   C3433     1.0  0.52115  0.72124  0.97942  1.0000
  H   H3431     1.0  0.50454  0.89549  0.91234  1.0000
  C   C3434     1.0  0.52765  0.80121  0.97883  1.0000
  H   H3432     1.0  0.55856  0.94310  0.77027  1.0000
  N   N288      1.0  0.50156  0.73159  0.92887  1.0000
  Fe  Fe574     1.0  0.50760  0.68844  0.96680  1.0000
  C   C3435     1.0  0.57140  0.91033  0.76874  1.0000
  C   C3436     1.0  0.52126  0.79918  0.93206  1.0000
  C   C3437     1.0  0.52257  0.91238  0.93709  1.0000
  H   H3433     1.0  0.60653  0.71385  0.94509  1.0000
  H   H3434     1.0  0.53442  0.97543  0.84125  1.0000
  H   H3435     1.0  0.51164  0.88695  0.96101  1.0000
  C   C3438     1.0  0.61939  0.73635  0.95624  1.0000
  C   C3439     1.0  0.52775  0.71142  0.98580  1.0000
  C   C3440     1.0  0.60284  0.98279  0.76537  1.0000
  S   S1149     1.0  0.51483  0.69529  0.97790  1.0000
  S   S1150     1.0  0.56645  0.98381  0.77435  1.0000
  Fe  Fe575     1.0  0.49780  0.76116  0.96748  1.0000
  C   C3441     1.0  0.53480  0.94950  0.76042  1.0000
  Fe  Fe576     1.0  0.50038  0.94131  0.78625  1.0000
  H   H3436     1.0  0.56253  0.98760  0.82536  1.0000
  H   H3437     1.0  0.50729  0.91423  0.93061  1.0000
  S   S1151     1.0  0.50252  0.82871  0.97631  1.0000
  C   C3442     1.0  0.59026  0.73888  0.98138  1.0000
  C   C3443     1.0  0.54618  0.97880  0.86753  1.0000
  H   H3438     1.0  0.51319  0.88090  0.89018  1.0000
  C   C3444     1.0  0.49690  0.74342  0.92772  1.0000
  H   H3439     1.0  0.54911  0.97148  0.87434  1.0000
  H   H3440     1.0  0.59346  0.72932  0.98149  1.0000
  H   H3441     1.0  0.54196  0.85446  0.98823  1.0000
  C   C3445     1.0  0.61268  0.98392  0.76849  1.0000
  H   H3442     1.0  0.49812  0.88754  0.94915  1.0000
  H   H3443     1.0  0.52604  0.98587  0.89230  1.0000
  H   H3444     1.0  0.54501  0.77058  0.99156  1.0000
  H   H3445     1.0  0.52294  0.99129  0.74646  1.0000
  C   C3446     1.0  0.54811  0.98991  0.86636  1.0000
  H   H3446     1.0  0.50395  0.86034  0.99050  1.0000
  H   H3447     1.0  0.54308  0.66771  0.98516  1.0000
  C   C3447     1.0  0.51458  0.97816  0.74546  1.0000
  H   H3448     1.0  0.52279  0.97161  0.74443  1.0000
  C   C3448     1.0  0.54007  0.77911  0.98791  1.0000
  S   S1152     1.0  0.56948  0.91384  0.74600  1.0000
  C   C3449     1.0  0.49696  0.98012  0.81922  1.0000
  H   H3449     1.0  0.50135  0.83552  0.95172  1.0000
  H   H3450     1.0  0.51232  0.79360  0.98505  1.0000
  C   C3450     1.0  0.52097  0.98812  0.88562  1.0000
  C   C3451     1.0  0.52172  0.79208  0.98429  1.0000
  H   H3451     1.0  0.50487  0.98193  0.82015  1.0000
  H   H3452     1.0  0.59349  0.74109  0.98806  1.0000
  H   H3453     1.0  0.55210  0.69718  0.98844  1.0000
  C   C3452     1.0  0.52798  0.78098  0.98888  1.0000
  C   C3453     1.0  0.59411  0.99272  0.76267  1.0000
  C   C3454     1.0  0.51474  0.98932  0.74649  1.0000
  C   C3455     1.0  0.49918  0.82701  0.95539  1.0000
  H   H3454     1.0  0.49705  0.99160  0.80203  1.0000
  C   C3456     1.0  0.49755  0.89717  0.94591  1.0000
  H   H3455     1.0  0.50093  0.74887  0.93041  1.0000
  H   H3456     1.0  0.58666  0.99201  0.75992  1.0000
