data_image0
_chemical_formula_structural       HSHCHC2H2SCFeCFeSCHCHSCH3SCH2NCHNCFeNCSHC4H2C6H5C3H2CHFeH2SHFe2SH2C4SC5HC2H3SHCSC3H2CHSH2CFeHCSHC3H2SCH3FeHCFeSCSCFeSFeSCSFeSCFeS2FeHSC2HFeC7H5SC9H3CHC3H2S2HCHCH3SC2FeH2SHCHFeHSNCH4CH3C3HCHCNC2HCNHCHSCHNHCHCHCH4CSHCSH2CH4CH2C2SFeS2FeS2FeSFeHS2FeS2FeS2FeSFeS3HC2HCHC2H2FeS2FeS2FeSFeHS2FeS2FeS2FeSFeS3CHSH2CH2Fe2H4SCFeCHC2H2SHC4H2C6H4C6H4C6H3FeC3NHCHC6H4C2NC3H4SCSC3H2CHC6H4C6H4C6H4SHC2HSH3C2H2SCSH3CNH3C2HNHFeHC2HCH2FeS2H2NHCH2CH2NCHFeC2H2FeCHCHC3HC2SCH3FeCH4C4HNC6H8NC6H8CNCSHCFeCSHN2C3HC2H2S2CHCHCHC6SHCHC2H2SHC2HS2HNCHCH2C2HSHCH2NHCSH2CFeSCHC2SHC4H2C3FeS2FeS2FeHFeS3FeS2FeSHFeSFeS3FeS2C2FeSHFeS2FeCSC3FeSHSC3H2CSH2C7H4C6H4C6H4C3SCH5C3H3C5H3SCHSFeHC7H5C6H4CH2NHSH2CH4SCH2CHCHCS2HCFeHNC6H8CHSC2SCH3NC2NFeHCHCHC2NHC3HCH7C3HCSCN2C6H8NC4H2CHSH2NC6H8NHC2HCFeH3SH7CNHC2HCHC3HC3H3SHNH2SC3H4CHC2HCH2SHFeS2FeSCFeSFeHS2FeS2FeSFeSHFeS2FeHFeS3FeS2FeS2FeSFeS3FeS2FeS2FeHFeS3C6H4C6H4C3H2CHC2HCH3C3HNHCH3CH3SH2C7H3FeC6H4C6H3CHCHSC2HCHNSC4H2C6H4NH2CH5SHC4SH2NC6H6CHNH2C2H2CN2C6H8NH2CHCSHNC6SCFeCSHCNCH3CH3NSCSC4H4C2H3C4FeH2CSCH2CH6CSC3H2SC2SCHCNCHSCNSHSNH2FeHCH4CH4CHC2HC2NCSC2HCHCHC4HSCSH4C2NCFeC3HC3FeH2SCH3Fe2CH2CHCH2CHCHCH2C3H2CH5C2HCHFeH2C4FeCSC3S2H2NSCH2NH2CFeS2FeS2FeSFeS3FeS2FeS2FeSFeS3FeSFeS2FeSFeHS4HCHC2H2CH5C2HSCHSH2SH3SCH2FeH2C7HFeH2FeCHSCHC6H5FeCHCHC2H2C6H4C6H4C2FeC3SHNSH2C6H4C6HNH2NH2NCHC3HSNC6H2CHCH3C3HFeCH2FeH3CSCH3CH3CH3C2FeHCHSH2C2H3SC4HS2CH2FeHCHCHFeHC2H3CHCH2C2NSFeC2H2SC3SH2SCH2C4HFeH2SCHNCHC2H2C2HC3H2CH2CH3CHCHCFeCH2FeS2C3FeHFe2CHNC2SCSH2SC3SC3H2SCH2C6H2SCHSHCHNH7FeH5SHFeS2FeSCFeSFeS3FeS2FeS2FeSFeS3CSC3H5C3H4C6H4C6H4C4H5CH2CH2NFeHC4NCHC2HC3H2SCHC2NH2SCH3C3H4CHC3H3CH2C2H2CHNC3HCH2NC4H6C2HS2HC4H3C5H2CHCH2NHCHC3H2CHC2SH4CFeSH2SC2HC2HSC7H5CSCH4SCHCHCHNH2C2HSFeH2CFeS2FeS2FeSFeS3FeS2FeS2FeNFeS3NCHC2HC4SC3H3C3H3CNH2CH2C5H3C3HCH4C3H2C4H2CH2SHC6H4C4HCH2CNHC4H5CHNCH3CH2CHC4H4SCHCHCHNHC3HC2H3CHCHCH2C2H2CHCSHFeC2HC2HCH3CFeSCFeSCFeS3FeSFeS2FeS2FeS2FeSFeS3FeS2FeS2FeSFeS5HCHNH3CH2Fe3C2H2CHSHSHCSC2NH2FeS2H2SFeC2SCSH3N2SH3C2HSCSHCNCH3CHCHCFeCSHC6HCH2CHCHSCS2C3HC2HCH2C6H4C6H4C6H4C6H6CFeC3H3C6H5CH2C2H2CHC6H4C3H2CH2NH2CNSC3NC6H8C2H4SC4FeH6CH3FeNC5HNCHFeCSCFeCHSCS3HC2H2C2SH2SHFeC3H2CH2CH2C2HC4SH2SCH2CHCH2C2H3C4HCFeH2C2H5SCNC4SC2H4CH2CSHCH3CFeH4CH2CNH4SC3SNH3CFeH2CHC2H3C4HC2HFeS3FeS2H2S2FeS2FeSFeCFeS3FeS2FeS2FeSFeS3FeSFeS2FeSFeS3FeHSFeCFe2SCSHC6H4C6H4C6H4C6H3CSC2HCH2CHC6H4C7H4CHNH2CHCHCH2CH3S2CHNC6H8NC6H6CN2C6H8FeCH2C2Fe2CFeCHCH3C2HC2SCHCHNHCHSC2HSH3CHNHSCSFeNHSCSHCHCSH3CHFeH2CSC3H2CH2CH3SH4CNCH4SH2SH2CHCH3SCSC8H3C2HCH2NCHC3H2SC2HCHFeH2N2CHFeC3FeS2HCHCH2CHCHFeSCFeSCFeSFeS3FeNSFeS2FeS2FeS2FeSFeS3FeS2FeS2Fe2S3HSH2CSFeS2FeS2FeCFeCS2H3NHCH2SHCH2SHCHC3H2SC3H2C6H4C6H6C6H5C7H5C4H4CNH3FeC2H3C4H2C6H5C2SCHSCSC3HC2H3CSH2CH3SCHNC6H7NC6H8NC6H8NC6H9CHSC4HFeCH2C3HC2HCHNHSFeC2HFeHS2CHCS2C3HCHC3SNC4H2CH3C2HC2NH3CFeH4CH2CHC2SFeCFeNCHC4H2CFeH2SC2HSC2FeC2HSC4HSFeS2FeSFeS2CHFeS2FeSH2Fe2S2FeSCSFeS2FeS2FeSFeCS2NHC4HSCH3FeCSH5SH2SC4NHCHCH4S2CFeCHCS2HCH3SHSHSH5FeC5HC2H2NH3SHCHNC8H4C6H4C6H4C6H4C6H5CSC8H3NSH2CHCNCFeSH5CH4CSHC3H2CHC2NC3H2C2S2NHCH2NC6H8C2H2CH3NCHCH2C2H5FeCHSNC2HNFeH2C2HFeCHSC3HSH2C3H2NC6H6SCSHCHC3H4SHCHC2H4CH3C3FeCH2C2H3CFeCH2SHCHCHCH2CSFe2C2H3S2HCHC2NC6H8C2SCH2S3H3C2H5C4SNC2HC2SHFeC2NC2FeCFeC7SHCHCHC2NH4CHCHC2SC2HCH3CHSH2FeS2FeS2FeSFeCS2FeS2FeSHFeSFeS3HSC6H2CHC6H4C6H7CHCH2CH2CHCHSHCH2C3H4CNHNH4CH2SNH3CHCH2C7HC4HC2FeHSCH3C2HC
_chemical_formula_sum              "H1536 S512 C1536 Fe256 N128"
_cell_length_a       58.8968
_cell_length_b       59.127
_cell_length_c       100.466
_cell_angle_alpha    79.0991
_cell_angle_beta     78.9837
_cell_angle_gamma    77.3613

_space_group_name_H-M_alt    "P 1"
_space_group_IT_number       1

loop_
  _space_group_symop_operation_xyz
  'x, y, z'

loop_
  _atom_site_type_symbol
  _atom_site_label
  _atom_site_symmetry_multiplicity
  _atom_site_fract_x
  _atom_site_fract_y
  _atom_site_fract_z
  _atom_site_occupancy
  H   H1        1.0  0.18589  0.27396  0.01688  1.0000
  S   S1        1.0  0.09457  0.13362  0.00879  1.0000
  H   H2        1.0  0.20916  0.04866  0.00764  1.0000
  C   C1        1.0  0.04860  0.30656  0.00045  1.0000
  H   H3        1.0  0.05106  0.03877  0.01341  1.0000
  C   C2        1.0  0.17565  0.01723  0.03360  1.0000
  C   C3        1.0  0.18595  0.33959  0.03535  1.0000
  H   H4        1.0  0.11152  0.03361  0.04246  1.0000
  H   H5        1.0  0.17375  0.05172  0.03822  1.0000
  S   S2        1.0  0.10368  0.31971  0.02199  1.0000
  C   C4        1.0  0.08682  0.05667  0.03051  1.0000
  Fe  Fe1       1.0  0.12839  0.30623  0.00401  1.0000
  C   C5        1.0  0.15984  0.27829  0.03488  1.0000
  Fe  Fe2       1.0  0.12314  0.34960  0.01789  1.0000
  S   S3        1.0  0.12783  0.36421  0.03616  1.0000
  C   C6        1.0  0.17855  0.28441  0.02504  1.0000
  H   H6        1.0  0.18836  0.00895  0.04039  1.0000
  C   C7        1.0  0.06931  0.41220  0.03137  1.0000
  H   H7        1.0  0.18676  0.08364  0.99460  1.0000
  S   S4        1.0  0.03950  0.11622  0.00233  1.0000
  C   C8        1.0  0.01712  0.29539  0.99226  1.0000
  H   H8        1.0  0.08490  0.39993  0.03416  1.0000
  H   H9        1.0  0.09157  0.07250  0.03228  1.0000
  H   H10       1.0  0.02253  0.46794  0.06497  1.0000
  S   S5        1.0  0.16653  0.45885  0.02732  1.0000
  C   C9        1.0  0.18788  0.06628  0.99214  1.0000
  H   H11       1.0  0.00594  0.33110  0.03589  1.0000
  H   H12       1.0  0.13888  0.18796  0.00107  1.0000
  N   N1        1.0  0.09290  0.01459  0.03354  1.0000
  C   C10       1.0  0.16752  0.04149  0.03228  1.0000
  H   H13       1.0  0.13501  0.28789  0.05255  1.0000
  N   N2        1.0  0.06708  0.43563  0.03169  1.0000
  C   C11       1.0  0.18701  0.30456  0.02547  1.0000
  Fe  Fe3       1.0  0.12532  0.10474  0.00401  1.0000
  N   N3        1.0  0.17720  0.31813  0.03549  1.0000
  C   C12       1.0  0.15895  0.31213  0.04526  1.0000
  S   S6        1.0  0.10005  0.37215  0.00344  1.0000
  H   H14       1.0  0.07177  0.99993  0.02367  1.0000
  C   C13       1.0  0.04767  0.45117  0.02788  1.0000
  C   C14       1.0  0.09809  0.03459  0.03622  1.0000
  C   C15       1.0  0.02939  0.44332  0.02412  1.0000
  C   C16       1.0  0.05153  0.40374  0.02744  1.0000
  H   H15       1.0  0.06663  0.30288  0.00231  1.0000
  H   H16       1.0  0.10227  0.44125  0.02841  1.0000
  C   C17       1.0  0.13798  0.39088  0.03332  1.0000
  C   C18       1.0  0.13591  0.40277  0.04444  1.0000
  C   C19       1.0  0.14413  0.42391  0.04259  1.0000
  C   C20       1.0  0.15513  0.43292  0.02968  1.0000
  C   C21       1.0  0.15737  0.42091  0.01856  1.0000
  C   C22       1.0  0.14849  0.40011  0.02032  1.0000
  H   H17       1.0  0.12785  0.39569  0.05454  1.0000
  H   H18       1.0  0.14246  0.43295  0.05124  1.0000
  H   H19       1.0  0.16589  0.42780  0.00855  1.0000
  H   H20       1.0  0.15017  0.39104  0.01168  1.0000
  H   H21       1.0  0.20112  0.30956  0.01756  1.0000
  C   C23       1.0  0.03337  0.32711  0.00382  1.0000
  C   C24       1.0  0.15211  0.01471  0.01687  1.0000
  C   C25       1.0  0.02430  0.48174  0.05628  1.0000
  H   H22       1.0  0.08940  0.43441  0.04623  1.0000
  H   H23       1.0  0.15268  0.26307  0.03436  1.0000
  C   C26       1.0  0.15242  0.05274  0.02287  1.0000
  H   H24       1.0  0.13297  0.04777  0.00786  1.0000
  Fe  Fe4       1.0  0.07749  0.11782  0.99579  1.0000
  H   H25       1.0  0.06091  0.07520  0.01782  1.0000
  H   H26       1.0  0.18204  0.35229  0.02602  1.0000
  S   S7        1.0  0.14511  0.26756  0.00595  1.0000
  H   H27       1.0  0.15586  0.21711  0.00904  1.0000
  Fe  Fe5       1.0  0.14653  0.48512  0.04110  1.0000
  Fe  Fe6       1.0  0.08269  0.34130  0.00618  1.0000
  S   S8        1.0  0.13206  0.47872  0.06355  1.0000
  H   H28       1.0  0.04618  0.46978  0.02780  1.0000
  H   H29       1.0  0.04927  0.18381  0.98779  1.0000
  C   C27       1.0  0.14993  0.29220  0.04506  1.0000
  C   C28       1.0  0.14453  0.03929  0.01520  1.0000
  C   C29       1.0  0.04051  0.29074  0.99453  1.0000
  C   C30       1.0  0.06429  0.03771  0.01981  1.0000
  S   S9        1.0  0.04337  0.34817  0.01003  1.0000
  C   C31       1.0  0.03012  0.10246  0.99105  1.0000
  C   C32       1.0  0.07607  0.01589  0.02559  1.0000
  C   C33       1.0  0.13224  0.24722  0.00039  1.0000
  C   C34       1.0  0.00171  0.31527  0.99634  1.0000
  C   C35       1.0  0.06979  0.05818  0.02228  1.0000
  H   H30       1.0  0.15075  0.32316  0.05302  1.0000
  C   C36       1.0  0.20096  0.02434  0.99660  1.0000
  C   C37       1.0  0.03135  0.41941  0.02392  1.0000
  H   H31       1.0  0.08104  0.46294  0.03694  1.0000
  H   H32       1.0  0.01380  0.45574  0.02139  1.0000
  H   H33       1.0  0.20524  0.33555  0.03546  1.0000
  S   S10       1.0  0.14502  0.08360  0.02075  1.0000
  H   H34       1.0  0.12041  0.99268  0.04396  1.0000
  C   C38       1.0  0.20048  0.04665  0.99945  1.0000
  S   S11       1.0  0.06460  0.48447  0.06492  1.0000
  C   C39       1.0  0.08585  0.44398  0.03597  1.0000
  C   C40       1.0  0.00995  0.33135  0.00183  1.0000
  C   C41       1.0  0.14131  0.22306  0.00331  1.0000
  H   H35       1.0  0.05340  0.38514  0.02711  1.0000
  H   H36       1.0  0.05246  0.27518  0.99155  1.0000
  C   C42       1.0  0.13173  0.20649  0.99880  1.0000
  H   H37       1.0  0.17726  0.34846  0.04434  1.0000
  S   S12       1.0  0.15026  0.33429  0.00138  1.0000
  H   H38       1.0  0.14671  0.00445  0.01061  1.0000
  H   H39       1.0  0.20999  0.00888  0.00259  1.0000
  C   C43       1.0  0.00811  0.11146  0.98701  1.0000
  Fe  Fe7       1.0  0.12531  0.35477  0.98706  1.0000
  H   H40       1.0  0.01730  0.41305  0.02101  1.0000
  C   C44       1.0  0.16814  0.00375  0.02588  1.0000
  S   S13       1.0  0.10685  0.08722  0.99260  1.0000
  H   H41       1.0  0.99818  0.34708  0.00455  1.0000
  C   C45       1.0  0.11315  0.21402  0.99119  1.0000
  C   C46       1.0  0.00729  0.48825  0.04753  1.0000
  C   C47       1.0  0.11346  0.25469  0.99295  1.0000
  H   H42       1.0  0.99698  0.12669  0.99090  1.0000
  H   H43       1.0  0.01830  0.16023  0.99028  1.0000
  S   S14       1.0  0.10566  0.32576  0.98833  1.0000
  C   C48       1.0  0.10412  0.23818  0.98829  1.0000
  H   H44       1.0  0.10636  0.27319  0.99060  1.0000
  H   H45       1.0  0.17713  0.49218  0.10817  1.0000
  H   H46       1.0  0.21135  0.49060  0.08948  1.0000
  Fe  Fe8       1.0  0.10881  0.15430  0.98902  1.0000
  H   H47       1.0  0.06161  0.07590  0.98899  1.0000
  C   C49       1.0  0.18858  0.02197  0.98651  1.0000
  Fe  Fe9       1.0  0.45857  0.08023  0.43409  1.0000
  S   S15       1.0  0.42633  0.09411  0.42409  1.0000
  C   C50       1.0  0.37500  0.01408  0.46908  1.0000
  S   S16       1.0  0.46086  0.08634  0.39474  1.0000
  C   C51       1.0  0.44309  0.40260  0.42985  1.0000
  Fe  Fe10      1.0  0.44960  0.11458  0.40816  1.0000
  S   S17       1.0  0.44442  0.15297  0.39910  1.0000
  Fe  Fe11      1.0  0.44086  0.06444  0.41177  1.0000
  S   S18       1.0  0.41873  0.03859  0.41014  1.0000
  C   C52       1.0  0.42556  0.02175  0.48491  1.0000
  S   S19       1.0  0.47154  0.04918  0.42306  1.0000
  Fe  Fe12      1.0  0.42706  0.25914  0.43690  1.0000
  S   S20       1.0  0.45888  0.25497  0.44687  1.0000
  C   C53       1.0  0.43514  0.21194  0.41605  1.0000
  Fe  Fe13      1.0  0.42522  0.31145  0.42749  1.0000
  S   S21       1.0  0.45694  0.31180  0.43656  1.0000
  S   S22       1.0  0.40328  0.34461  0.41800  1.0000
  Fe  Fe14      1.0  0.47185  0.27821  0.42804  1.0000
  H   H48       1.0  0.42825  0.00650  0.46669  1.0000
  S   S23       1.0  0.44149  0.27980  0.41714  1.0000
  C   C54       1.0  0.46641  0.18318  0.44551  1.0000
  C   C55       1.0  0.44241  0.19527  0.40706  1.0000
  H   H49       1.0  0.45257  0.34482  0.40662  1.0000
  Fe  Fe15      1.0  0.43420  0.46122  0.37743  1.0000
  C   C56       1.0  0.37694  0.27503  0.41781  1.0000
  C   C57       1.0  0.41792  0.36647  0.40786  1.0000
  C   C58       1.0  0.44231  0.36200  0.40367  1.0000
  C   C59       1.0  0.45347  0.37979  0.39552  1.0000
  C   C60       1.0  0.44034  0.40213  0.39155  1.0000
  C   C61       1.0  0.41595  0.40651  0.39573  1.0000
  C   C62       1.0  0.40478  0.38871  0.40381  1.0000
  H   H50       1.0  0.37596  0.36170  0.48572  1.0000
  H   H51       1.0  0.40564  0.42356  0.39266  1.0000
  H   H52       1.0  0.38588  0.39225  0.40697  1.0000
  H   H53       1.0  0.39126  0.07535  0.47072  1.0000
  H   H54       1.0  0.37323  0.04212  0.48022  1.0000
  S   S24       1.0  0.48057  0.10292  0.41922  1.0000
  C   C63       1.0  0.40278  0.27796  0.39162  1.0000
  C   C64       1.0  0.40085  0.32012  0.39046  1.0000
  C   C65       1.0  0.42831  0.02230  0.39642  1.0000
  C   C66       1.0  0.39091  0.04419  0.44621  1.0000
  C   C67       1.0  0.46725  0.39390  0.45197  1.0000
  C   C68       1.0  0.38214  0.29645  0.41063  1.0000
  C   C69       1.0  0.44855  0.01820  0.37330  1.0000
  C   C70       1.0  0.44201  0.03096  0.38435  1.0000
  C   C71       1.0  0.39769  0.25629  0.39846  1.0000
  H   H55       1.0  0.44706  0.42710  0.45714  1.0000
  H   H56       1.0  0.45879  0.02525  0.36391  1.0000
  H   H57       1.0  0.44706  0.04778  0.38339  1.0000
  C   C72       1.0  0.43588  0.17319  0.41073  1.0000
  H   H58       1.0  0.48354  0.45587  0.36221  1.0000
  C   C73       1.0  0.42057  0.20688  0.42852  1.0000
  C   C74       1.0  0.41408  0.18482  0.43219  1.0000
  C   C75       1.0  0.42209  0.16784  0.42344  1.0000
  H   H59       1.0  0.40282  0.18083  0.44183  1.0000
  H   H60       1.0  0.41693  0.15088  0.42630  1.0000
  S   S25       1.0  0.39592  0.47472  0.38444  1.0000
  S   S26       1.0  0.40797  0.29088  0.44642  1.0000
  H   H61       1.0  0.45305  0.17188  0.44693  1.0000
  C   C76       1.0  0.43169  0.02082  0.47083  1.0000
  H   H62       1.0  0.38083  0.23815  0.41714  1.0000
  C   C77       1.0  0.45075  0.41472  0.44992  1.0000
  H   H63       1.0  0.38740  0.33525  0.39375  1.0000
  H   H64       1.0  0.44034  0.22886  0.41319  1.0000
  H   H65       1.0  0.47234  0.37625  0.39226  1.0000
  S   S27       1.0  0.44381  0.29126  0.47628  1.0000
  C   C78       1.0  0.45952  0.38186  0.43229  1.0000
  C   C79       1.0  0.44609  0.05724  0.46735  1.0000
  Fe  Fe16      1.0  0.44128  0.28858  0.45464  1.0000
  H   H66       1.0  0.42594  0.43526  0.43695  1.0000
  H   H67       1.0  0.45319  0.19939  0.39725  1.0000
  S   S28       1.0  0.45495  0.42418  0.38155  1.0000
  H   H68       1.0  0.42950  0.00502  0.33665  1.0000
  C   C80       1.0  0.44524  0.31951  0.47853  1.0000
  H   H69       1.0  0.44620  0.03797  0.45115  1.0000
  Fe  Fe17      1.0  0.49026  0.07339  0.40704  1.0000
  H   H70       1.0  0.47666  0.14815  0.43067  1.0000
  S   S29       1.0  0.45785  0.08018  0.45651  1.0000
  N   N4        1.0  0.47161  0.37791  0.44313  1.0000
  C   C81       1.0  0.44072  0.05773  0.48149  1.0000
  H   H71       1.0  0.40423  0.24054  0.39375  1.0000
  H   H72       1.0  0.42717  0.33710  0.46162  1.0000
  H   H73       1.0  0.37633  0.31195  0.41561  1.0000
  H   H74       1.0  0.41803  0.32181  0.39284  1.0000
  C   C82       1.0  0.48829  0.35581  0.44574  1.0000
  H   H75       1.0  0.39733  0.05572  0.43719  1.0000
  H   H76       1.0  0.37325  0.01227  0.35755  1.0000
  H   H77       1.0  0.41339  0.27882  0.38151  1.0000
  C   C83       1.0  0.41832  0.99347  0.33538  1.0000
  C   C84       1.0  0.38826  0.07477  0.46019  1.0000
  C   C85       1.0  0.43502  0.33923  0.47009  1.0000
  H   H78       1.0  0.39358  0.01601  0.43477  1.0000
  C   C86       1.0  0.43382  0.36174  0.47309  1.0000
  H   H79       1.0  0.40202  0.32155  0.37917  1.0000
  C   C87       1.0  0.37713  0.03675  0.47014  1.0000
  N   N5        1.0  0.48184  0.18213  0.43225  1.0000
  C   C88       1.0  0.43874  0.41914  0.43871  1.0000
  C   C89       1.0  0.49329  0.20027  0.42645  1.0000
  H   H80       1.0  0.43368  0.40577  0.42117  1.0000
  C   C90       1.0  0.44187  0.03860  0.46203  1.0000
  N   N6        1.0  0.39468  0.29775  0.39764  1.0000
  H   H81       1.0  0.36751  0.27386  0.42825  1.0000
  C   C91       1.0  0.38095  0.00652  0.45631  1.0000
  H   H82       1.0  0.42503  0.37692  0.46688  1.0000
  S   S30       1.0  0.40965  0.22788  0.43960  1.0000
  C   C92       1.0  0.38456  0.25492  0.41160  1.0000
  H   H83       1.0  0.46253  0.36894  0.42548  1.0000
  N   N7        1.0  0.38550  0.05129  0.45884  1.0000
  H   H84       1.0  0.49458  0.03420  0.46619  1.0000
  C   C93       1.0  0.44199  0.99643  0.37437  1.0000
  H   H85       1.0  0.47703  0.17731  0.45398  1.0000
  C   C94       1.0  0.42163  0.00056  0.39746  1.0000
  H   H86       1.0  0.40299  0.01678  0.35571  1.0000
  C   C95       1.0  0.44314  0.36456  0.48438  1.0000
  H   H87       1.0  0.47911  0.34247  0.45266  1.0000
  H   H88       1.0  0.47609  0.39038  0.46089  1.0000
  H   H89       1.0  0.37237  0.08788  0.45782  1.0000
  H   H90       1.0  0.40400  0.07976  0.45315  1.0000
  C   C96       1.0  0.38880  0.02170  0.44477  1.0000
  S   S31       1.0  0.43356  0.48161  0.35615  1.0000
  H   H91       1.0  0.41103  0.99375  0.40676  1.0000
  C   C97       1.0  0.39201  0.00333  0.35651  1.0000
  S   S32       1.0  0.44718  0.48850  0.38521  1.0000
  H   H92       1.0  0.36960  0.00222  0.47823  1.0000
  H   H93       1.0  0.44410  0.07207  0.48564  1.0000
  C   C98       1.0  0.48579  0.16251  0.42613  1.0000
  H   H94       1.0  0.49026  0.21582  0.43130  1.0000
  H   H95       1.0  0.45648  0.20133  0.44624  1.0000
  H   H96       1.0  0.49656  0.34882  0.43605  1.0000
  H   H97       1.0  0.48323  0.99396  0.38901  1.0000
  C   C99       1.0  0.23346  0.08218  0.61194  1.0000
  H   H98       1.0  0.36170  0.24589  0.69478  1.0000
  H   H99       1.0  0.41883  0.17524  0.62259  1.0000
  C   C100      1.0  0.39120  0.32727  0.49516  1.0000
  C   C101      1.0  0.38408  0.35154  0.49435  1.0000
  S   S33       1.0  0.41726  0.46367  0.53736  1.0000
  Fe  Fe18      1.0  0.11393  0.28772  0.69046  1.0000
  S   S34       1.0  0.09923  0.27584  0.71233  1.0000
  S   S35       1.0  0.09193  0.31033  0.67502  1.0000
  Fe  Fe19      1.0  0.16497  0.26642  0.69405  1.0000
  S   S36       1.0  0.15411  0.25298  0.71625  1.0000
  S   S37       1.0  0.20409  0.25350  0.68834  1.0000
  Fe  Fe20      1.0  0.12473  0.24231  0.70944  1.0000
  S   S38       1.0  0.11814  0.20652  0.71915  1.0000
  Fe  Fe21      1.0  0.13002  0.28757  0.71726  1.0000
  H   H100      1.0  0.38064  0.01614  0.55313  1.0000
  S   S39       1.0  0.13721  0.25298  0.68704  1.0000
  S   S40       1.0  0.14311  0.30239  0.69561  1.0000
  Fe  Fe22      1.0  0.11527  0.11691  0.67868  1.0000
  S   S41       1.0  0.11623  0.09054  0.66509  1.0000
  S   S42       1.0  0.10398  0.15552  0.67259  1.0000
  Fe  Fe23      1.0  0.13066  0.08067  0.70236  1.0000
  S   S43       1.0  0.13228  0.05096  0.69110  1.0000
  S   S44       1.0  0.13525  0.07486  0.72456  1.0000
  Fe  Fe24      1.0  0.15006  0.07304  0.67310  1.0000
  S   S45       1.0  0.18403  0.05579  0.66142  1.0000
  Fe  Fe25      1.0  0.09835  0.07105  0.68421  1.0000
  S   S46       1.0  0.06599  0.05487  0.68679  1.0000
  S   S47       1.0  0.15063  0.10150  0.68488  1.0000
  S   S48       1.0  0.09518  0.09863  0.69723  1.0000
  H   H101      1.0  0.05900  0.14353  0.69045  1.0000
  C   C102      1.0  0.40268  0.31457  0.50600  1.0000
  C   C103      1.0  0.28199  0.11283  0.72896  1.0000
  H   H102      1.0  0.34901  0.10751  0.69358  1.0000
  C   C104      1.0  0.00311  0.09515  0.66582  1.0000
  H   H103      1.0  0.41792  0.29365  0.52886  1.0000
  C   C105      1.0  0.23830  0.04258  0.62412  1.0000
  C   C106      1.0  0.40936  0.35268  0.57719  1.0000
  H   H104      1.0  0.16252  0.15296  0.67529  1.0000
  H   H105      1.0  0.37506  0.23405  0.70988  1.0000
  Fe  Fe26      1.0  0.33949  0.12459  0.61519  1.0000
  S   S49       1.0  0.36228  0.08873  0.61510  1.0000
  S   S50       1.0  0.35037  0.15918  0.60611  1.0000
  Fe  Fe27      1.0  0.29434  0.10559  0.62667  1.0000
  S   S51       1.0  0.31296  0.06804  0.62781  1.0000
  S   S52       1.0  0.25564  0.12113  0.63081  1.0000
  Fe  Fe28      1.0  0.34054  0.08057  0.63584  1.0000
  S   S53       1.0  0.35641  0.06107  0.65441  1.0000
  Fe  Fe29      1.0  0.33309  0.07912  0.60703  1.0000
  H   H106      1.0  0.18135  0.21723  0.67962  1.0000
  S   S54       1.0  0.32005  0.11716  0.63647  1.0000
  S   S55       1.0  0.31226  0.11589  0.60538  1.0000
  Fe  Fe30      1.0  0.31292  0.29342  0.64185  1.0000
  S   S56       1.0  0.32732  0.26744  0.65877  1.0000
  S   S57       1.0  0.27429  0.29911  0.63976  1.0000
  Fe  Fe31      1.0  0.36023  0.30840  0.63093  1.0000
  S   S58       1.0  0.37799  0.28326  0.64741  1.0000
  S   S59       1.0  0.38329  0.33232  0.61699  1.0000
  Fe  Fe32      1.0  0.35845  0.25765  0.64307  1.0000
  S   S60       1.0  0.37312  0.21896  0.64594  1.0000
  Fe  Fe33      1.0  0.34540  0.29509  0.66181  1.0000
  S   S61       1.0  0.34222  0.29649  0.68440  1.0000
  S   S62       1.0  0.34296  0.28160  0.62549  1.0000
  S   S63       1.0  0.32878  0.32232  0.64589  1.0000
  C   C107      1.0  0.19587  0.10168  0.73499  1.0000
  H   H107      1.0  0.17097  0.19250  0.66502  1.0000
  S   S64       1.0  0.42214  0.33148  0.70464  1.0000
  H   H108      1.0  0.48633  0.02349  0.49158  1.0000
  H   H109      1.0  0.28921  0.05380  0.60419  1.0000
  C   C108      1.0  0.22391  0.06435  0.62100  1.0000
  H   H110      1.0  0.04352  0.12058  0.69018  1.0000
  H   H111      1.0  0.39453  0.39726  0.60510  1.0000
  Fe  Fe34      1.0  0.44471  0.10471  0.72121  1.0000
  Fe  Fe35      1.0  0.47264  0.38651  0.53230  1.0000
  H   H112      1.0  0.36092  0.38410  0.59935  1.0000
  H   H113      1.0  0.35289  0.07853  0.70351  1.0000
  H   H114      1.0  0.08541  0.00820  0.70229  1.0000
  H   H115      1.0  0.34778  0.04632  0.56218  1.0000
  S   S65       1.0  0.44090  0.13496  0.70404  1.0000
  C   C109      1.0  0.36062  0.03678  0.56862  1.0000
  Fe  Fe36      1.0  0.40517  0.14614  0.71587  1.0000
  C   C110      1.0  0.37831  0.23621  0.69848  1.0000
  H   H116      1.0  0.43819  0.07368  0.62404  1.0000
  C   C111      1.0  0.35851  0.04158  0.58204  1.0000
  C   C112      1.0  0.17341  0.30423  0.73006  1.0000
  H   H117      1.0  0.40184  0.15676  0.60746  1.0000
  H   H118      1.0  0.36090  0.33547  0.57178  1.0000
  S   S66       1.0  0.33407  0.06224  0.58836  1.0000
  H   H119      1.0  0.40374  0.11394  0.61176  1.0000
  C   C113      1.0  0.26581  0.09715  0.59623  1.0000
  C   C114      1.0  0.38760  0.33646  0.59886  1.0000
  C   C115      1.0  0.37127  0.33218  0.59165  1.0000
  C   C116      1.0  0.37383  0.33844  0.57727  1.0000
  H   H120      1.0  0.35635  0.32465  0.59718  1.0000
  H   H121      1.0  0.20775  0.10742  0.71317  1.0000
  C   C117      1.0  0.36438  0.30663  0.68977  1.0000
  C   C118      1.0  0.36603  0.30269  0.70378  1.0000
  C   C119      1.0  0.38364  0.31036  0.70841  1.0000
  C   C120      1.0  0.39961  0.32218  0.69906  1.0000
  C   C121      1.0  0.39770  0.32647  0.68506  1.0000
  C   C122      1.0  0.38027  0.31848  0.68038  1.0000
  H   H122      1.0  0.35376  0.29351  0.71103  1.0000
  H   H123      1.0  0.38466  0.30746  0.71923  1.0000
  H   H124      1.0  0.40991  0.33575  0.67780  1.0000
  H   H125      1.0  0.37900  0.32170  0.66956  1.0000
  C   C123      1.0  0.35499  0.17605  0.61760  1.0000
  C   C124      1.0  0.35776  0.16613  0.63110  1.0000
  C   C125      1.0  0.36310  0.17952  0.63981  1.0000
  C   C126      1.0  0.36499  0.20302  0.63517  1.0000
  C   C127      1.0  0.36150  0.21314  0.62180  1.0000
  C   C128      1.0  0.35688  0.19954  0.61296  1.0000
  H   H126      1.0  0.35660  0.14796  0.63469  1.0000
  H   H127      1.0  0.36596  0.17162  0.65014  1.0000
  H   H128      1.0  0.36324  0.23119  0.61811  1.0000
  H   H129      1.0  0.35495  0.20720  0.60247  1.0000
  C   C129      1.0  0.37310  0.07691  0.66059  1.0000
  C   C130      1.0  0.37508  0.09975  0.65434  1.0000
  C   C131      1.0  0.38978  0.11164  0.65872  1.0000
  C   C132      1.0  0.40290  0.10059  0.66920  1.0000
  C   C133      1.0  0.40006  0.07817  0.67592  1.0000
  C   C134      1.0  0.38518  0.06633  0.67160  1.0000
  H   H130      1.0  0.36576  0.10802  0.64590  1.0000
  H   H131      1.0  0.41952  0.34975  0.59707  1.0000
  H   H132      1.0  0.38364  0.04866  0.67649  1.0000
  Fe  Fe37      1.0  0.42252  0.11282  0.69534  1.0000
  C   C135      1.0  0.45418  0.34485  0.49245  1.0000
  C   C136      1.0  0.37517  0.02912  0.59028  1.0000
  C   C137      1.0  0.41115  0.25404  0.70078  1.0000
  N   N8        1.0  0.03304  0.15313  0.67731  1.0000
  H   H133      1.0  0.37366  0.03253  0.60065  1.0000
  C   C138      1.0  0.17603  0.09297  0.71796  1.0000
  H   H134      1.0  0.17539  0.09229  0.70739  1.0000
  C   C139      1.0  0.20415  0.07465  0.65468  1.0000
  C   C140      1.0  0.22839  0.06541  0.65262  1.0000
  C   C141      1.0  0.24452  0.07975  0.64578  1.0000
  C   C142      1.0  0.23639  0.10334  0.64087  1.0000
  C   C143      1.0  0.21222  0.11273  0.64332  1.0000
  C   C144      1.0  0.19614  0.09847  0.65028  1.0000
  H   H135      1.0  0.23465  0.04701  0.65609  1.0000
  H   H136      1.0  0.26313  0.07241  0.64402  1.0000
  H   H137      1.0  0.20586  0.13099  0.63956  1.0000
  H   H138      1.0  0.17745  0.10569  0.65180  1.0000
  C   C145      1.0  0.04194  0.07081  0.67872  1.0000
  C   C146      1.0  0.01948  0.06524  0.68341  1.0000
  N   N9        1.0  0.09537  0.03542  0.72677  1.0000
  C   C147      1.0  0.37025  0.42394  0.55520  1.0000
  C   C148      1.0  0.02561  0.10054  0.66104  1.0000
  C   C149      1.0  0.04490  0.08862  0.66756  1.0000
  H   H139      1.0  0.01706  0.05147  0.69203  1.0000
  H   H140      1.0  0.21084  0.30368  0.72583  1.0000
  H   H141      1.0  0.02812  0.11405  0.65227  1.0000
  H   H142      1.0  0.06218  0.09283  0.66375  1.0000
  S   S67       1.0  0.47397  0.09552  0.73416  1.0000
  C   C150      1.0  0.17294  0.16177  0.71828  1.0000
  S   S68       1.0  0.44117  0.00655  0.52648  1.0000
  C   C151      1.0  0.37924  0.01970  0.56345  1.0000
  C   C152      1.0  0.41207  0.12167  0.61807  1.0000
  C   C153      1.0  0.42361  0.08264  0.63111  1.0000
  H   H143      1.0  0.17286  0.29843  0.72057  1.0000
  H   H144      1.0  0.40924  0.29589  0.50612  1.0000
  C   C154      1.0  0.02158  0.19152  0.66478  1.0000
  H   H145      1.0  0.08423  0.07183  0.72725  1.0000
  C   C155      1.0  0.22277  0.26625  0.67445  1.0000
  C   C156      1.0  0.21422  0.28344  0.66402  1.0000
  C   C157      1.0  0.23014  0.29312  0.65326  1.0000
  C   C158      1.0  0.25459  0.28596  0.65300  1.0000
  C   C159      1.0  0.26291  0.26878  0.66347  1.0000
  C   C160      1.0  0.24712  0.25890  0.67406  1.0000
  H   H146      1.0  0.19542  0.28911  0.66418  1.0000
  H   H147      1.0  0.22350  0.30635  0.64517  1.0000
  H   H148      1.0  0.28149  0.26291  0.66346  1.0000
  H   H149      1.0  0.25386  0.24557  0.68207  1.0000
  C   C161      1.0  0.11131  0.19269  0.70687  1.0000
  C   C162      1.0  0.11329  0.16833  0.70912  1.0000
  C   C163      1.0  0.11067  0.15687  0.69865  1.0000
  C   C164      1.0  0.10559  0.16983  0.68604  1.0000
  C   C165      1.0  0.10245  0.19428  0.68405  1.0000
  C   C166      1.0  0.10531  0.20571  0.69447  1.0000
  H   H150      1.0  0.11766  0.15821  0.71876  1.0000
  H   H151      1.0  0.11316  0.13800  0.70030  1.0000
  H   H152      1.0  0.09829  0.20440  0.67436  1.0000
  H   H153      1.0  0.10281  0.22460  0.69288  1.0000
  C   C167      1.0  0.11763  0.02357  0.72842  1.0000
  C   C168      1.0  0.02800  0.33605  0.66395  1.0000
  C   C169      1.0  0.05190  0.33205  0.66504  1.0000
  C   C170      1.0  0.06199  0.31250  0.67364  1.0000
  C   C171      1.0  0.04791  0.29640  0.68093  1.0000
  C   C172      1.0  0.02373  0.30023  0.67961  1.0000
  H   H154      1.0  0.16511  0.17629  0.72432  1.0000
  H   H155      1.0  0.06258  0.34451  0.65933  1.0000
  H   H156      1.0  0.05561  0.28113  0.68753  1.0000
  H   H157      1.0  0.01280  0.28799  0.68526  1.0000
  S   S69       1.0  0.44290  0.39928  0.54836  1.0000
  H   H158      1.0  0.44282  0.10702  0.64438  1.0000
  C   C173      1.0  0.11711  0.99976  0.71148  1.0000
  C   C174      1.0  0.38834  0.36277  0.50440  1.0000
  H   H159      1.0  0.42590  0.07515  0.64191  1.0000
  S   S70       1.0  0.44055  0.39281  0.48829  1.0000
  H   H160      1.0  0.02051  0.35158  0.65743  1.0000
  H   H161      1.0  0.27342  0.02208  0.62059  1.0000
  H   H162      1.0  0.26413  0.11250  0.60151  1.0000
  C   C175      1.0  0.42069  0.15629  0.62396  1.0000
  C   C176      1.0  0.41093  0.14595  0.61558  1.0000
  H   H163      1.0  0.41277  0.31951  0.53664  1.0000
  H   H164      1.0  0.46210  0.34685  0.50086  1.0000
  S   S71       1.0  0.42217  0.27580  0.73135  1.0000
  C   C177      1.0  0.17759  0.19175  0.69799  1.0000
  S   S72       1.0  0.38650  0.12674  0.70578  1.0000
  H   H165      1.0  0.30421  0.13315  0.73428  1.0000
  H   H166      1.0  0.35048  0.39608  0.57596  1.0000
  H   H167      1.0  0.40532  0.43582  0.56437  1.0000
  C   C178      1.0  0.16798  0.15594  0.69552  1.0000
  N   N10       1.0  0.40648  0.32569  0.51593  1.0000
  H   H168      1.0  0.06648  0.03979  0.71595  1.0000
  H   H169      1.0  0.42573  0.04083  0.50114  1.0000
  H   H170      1.0  0.39107  0.25114  0.67216  1.0000
  C   C179      1.0  0.15883  0.08505  0.72836  1.0000
  C   C180      1.0  0.39270  0.34897  0.57002  1.0000
  H   H171      1.0  0.44700  0.28388  0.67654  1.0000
  N   N11       1.0  0.39752  0.24894  0.69255  1.0000
  H   H172      1.0  0.38204  0.43496  0.54822  1.0000
  Fe  Fe38      1.0  0.45994  0.26029  0.73257  1.0000
  H   H173      1.0  0.43986  0.27083  0.70168  1.0000
  C   C181      1.0  0.03806  0.17467  0.67145  1.0000
  C   C182      1.0  0.26193  0.03879  0.61806  1.0000
  H   H174      1.0  0.00798  0.13051  0.68118  1.0000
  C   C183      1.0  0.28040  0.09747  0.72036  1.0000
  H   H175      1.0  0.42403  0.36065  0.57173  1.0000
  H   H176      1.0  0.16413  0.13873  0.69994  1.0000
  Fe  Fe39      1.0  0.42197  0.37889  0.54035  1.0000
  S   S73       1.0  0.39072  0.18259  0.72032  1.0000
  S   S74       1.0  0.39428  0.35824  0.55213  1.0000
  H   H177      1.0  0.20573  0.06770  0.62605  1.0000
  H   H178      1.0  0.46906  0.20175  0.70436  1.0000
  N   N12       1.0  0.25655  0.07822  0.60590  1.0000
  H   H179      1.0  0.44258  0.47584  0.50947  1.0000
  C   C184      1.0  0.01601  0.30677  0.71397  1.0000
  H   H180      1.0  0.22244  0.09937  0.61001  1.0000
  H   H181      1.0  0.26442  0.09041  0.72163  1.0000
  C   C185      1.0  0.40199  0.41767  0.58508  1.0000
  H   H182      1.0  0.40663  0.07873  0.62973  1.0000
  H   H183      1.0  0.41013  0.06954  0.68403  1.0000
  N   N13       1.0  0.17256  0.17010  0.70361  1.0000
  C   C186      1.0  0.00008  0.18601  0.66395  1.0000
  H   H184      1.0  0.28473  0.09169  0.59200  1.0000
  Fe  Fe40      1.0  0.44208  0.39468  0.51035  1.0000
  C   C187      1.0  0.17742  0.20000  0.68400  1.0000
  C   C188      1.0  0.01194  0.14764  0.67662  1.0000
  H   H185      1.0  0.05495  0.17888  0.67188  1.0000
  H   H186      1.0  0.43979  0.14993  0.64104  1.0000
  Fe  Fe41      1.0  0.39453  0.09694  0.72256  1.0000
  C   C189      1.0  0.43245  0.14214  0.63428  1.0000
  H   H187      1.0  0.40785  0.24885  0.71180  1.0000
  C   C190      1.0  0.41465  0.48914  0.52491  1.0000
  H   H188      1.0  0.25586  0.10256  0.58745  1.0000
  C   C191      1.0  0.37042  0.39585  0.59179  1.0000
  C   C192      1.0  0.41971  0.26801  0.67264  1.0000
  C   C193      1.0  0.36462  0.40267  0.57856  1.0000
  H   H189      1.0  0.23123  0.02894  0.63153  1.0000
  C   C194      1.0  0.09445  0.01198  0.70985  1.0000
  C   C195      1.0  0.03812  0.33747  0.70219  1.0000
  S   S75       1.0  0.46422  0.41701  0.51581  1.0000
  C   C196      1.0  0.39955  0.34947  0.51520  1.0000
  H   H190      1.0  0.03186  0.29681  0.71780  1.0000
  H   H191      1.0  0.33994  0.30274  0.73525  1.0000
  H   H192      1.0  0.02546  0.20869  0.66024  1.0000
  Fe  Fe42      1.0  0.43266  0.42811  0.53122  1.0000
  C   C197      1.0  0.45275  0.21444  0.72331  1.0000
  H   H193      1.0  0.16228  0.14784  0.72222  1.0000
  H   H194      1.0  0.12713  0.02839  0.73538  1.0000
  H   H195      1.0  0.46313  0.30708  0.49607  1.0000
  H   H196      1.0  0.18148  0.20294  0.70433  1.0000
  C   C198      1.0  0.43445  0.19331  0.71121  1.0000
  C   C199      1.0  0.41959  0.31239  0.52684  1.0000
  C   C200      1.0  0.39347  0.01168  0.58522  1.0000
  C   C201      1.0  0.12883  0.00558  0.72081  1.0000
  H   H197      1.0  0.45589  0.15436  0.73116  1.0000
  N   N14       1.0  0.23335  0.31108  0.68847  1.0000
  C   C202      1.0  0.23857  0.32453  0.67603  1.0000
  C   C203      1.0  0.25096  0.29896  0.69564  1.0000
  C   C204      1.0  0.26198  0.32571  0.67033  1.0000
  C   C205      1.0  0.27457  0.29979  0.69025  1.0000
  C   C206      1.0  0.28003  0.31326  0.67752  1.0000
  C   C207      1.0  0.20869  0.31053  0.69444  1.0000
  H   H198      1.0  0.22467  0.33398  0.67027  1.0000
  H   H199      1.0  0.24680  0.28841  0.70554  1.0000
  H   H200      1.0  0.26614  0.33569  0.66023  1.0000
  H   H201      1.0  0.28865  0.29000  0.69580  1.0000
  H   H202      1.0  0.29825  0.31391  0.67321  1.0000
  H   H203      1.0  0.20698  0.29341  0.70101  1.0000
  H   H204      1.0  0.20158  0.32484  0.70071  1.0000
  H   H205      1.0  0.19765  0.31246  0.68632  1.0000
  N   N15       1.0  0.29813  0.20157  0.62736  1.0000
  C   C208      1.0  0.29832  0.21190  0.61395  1.0000
  C   C209      1.0  0.29876  0.21444  0.63721  1.0000
  C   C210      1.0  0.29909  0.23579  0.61014  1.0000
  C   C211      1.0  0.29954  0.23833  0.63374  1.0000
  C   C212      1.0  0.29952  0.24908  0.62015  1.0000
  C   C213      1.0  0.29597  0.17689  0.63133  1.0000
  H   H206      1.0  0.29816  0.20158  0.60612  1.0000
  H   H207      1.0  0.29873  0.20627  0.64783  1.0000
  H   H208      1.0  0.29937  0.24392  0.59950  1.0000
  H   H209      1.0  0.30004  0.24852  0.64154  1.0000
  H   H210      1.0  0.29981  0.26770  0.61742  1.0000
  H   H211      1.0  0.27718  0.17545  0.63478  1.0000
  H   H212      1.0  0.30301  0.16693  0.62260  1.0000
  H   H213      1.0  0.30624  0.16829  0.63973  1.0000
  C   C214      1.0  0.42933  0.26641  0.69512  1.0000
  N   N16       1.0  0.42307  0.10800  0.62846  1.0000
  C   C215      1.0  0.43049  0.03999  0.49027  1.0000
  S   S76       1.0  0.47291  0.29327  0.72304  1.0000
  H   H214      1.0  0.37123  0.40813  0.55048  1.0000
  C   C216      1.0  0.00006  0.07752  0.67707  1.0000
  Fe  Fe43      1.0  0.43458  0.30960  0.72373  1.0000
  C   C217      1.0  0.19482  0.30718  0.73304  1.0000
  S   S77       1.0  0.40999  0.11769  0.73373  1.0000
  H   H215      1.0  0.06503  0.12862  0.67569  1.0000
  N   N17       1.0  0.37701  0.41691  0.56890  1.0000
  N   N18       1.0  0.31965  0.10010  0.70871  1.0000
  C   C218      1.0  0.29957  0.09113  0.71026  1.0000
  C   C219      1.0  0.32135  0.11508  0.71717  1.0000
  C   C220      1.0  0.42924  0.49075  0.51209  1.0000
  H   H216      1.0  0.40302  0.35835  0.52288  1.0000
  C   C221      1.0  0.41334  0.20710  0.73220  1.0000
  C   C222      1.0  0.34001  0.09264  0.69848  1.0000
  H   H217      1.0  0.29832  0.07892  0.70374  1.0000
  H   H218      1.0  0.33754  0.12146  0.71633  1.0000
  S   S78       1.0  0.45266  0.36329  0.52579  1.0000
  S   S79       1.0  0.47646  0.22671  0.72462  1.0000
  C   C223      1.0  0.39541  0.42456  0.57202  1.0000
  H   H219      1.0  0.33481  0.08595  0.69009  1.0000
  C   C224      1.0  0.38937  0.40322  0.59501  1.0000
  H   H220      1.0  0.05404  0.32325  0.70188  1.0000
  C   C225      1.0  0.08383  0.02992  0.71758  1.0000
  H   H221      1.0  0.43495  0.18487  0.70249  1.0000
  C   C226      1.0  0.45367  0.20293  0.71223  1.0000
  C   C227      1.0  0.40180  0.25543  0.67864  1.0000
  C   C228      1.0  0.43396  0.11782  0.63618  1.0000
  C   C229      1.0  0.16717  0.16384  0.68155  1.0000
  C   C230      1.0  0.41438  0.19526  0.72125  1.0000
  C   C231      1.0  0.27080  0.05688  0.60885  1.0000
  S   S80       1.0  0.36666  0.07514  0.73134  1.0000
  H   H222      1.0  0.19133  0.15454  0.72014  1.0000
  C   C232      1.0  0.17182  0.18606  0.67580  1.0000
  H   H223      1.0  0.41694  0.42330  0.58741  1.0000
  C   C233      1.0  0.40680  0.34641  0.59155  1.0000
  C   C234      1.0  0.01372  0.32035  0.67119  1.0000
  H   H224      1.0  0.35203  0.43431  0.55587  1.0000
  H   H225      1.0  0.43852  0.31352  0.52386  1.0000
  S   S81       1.0  0.42462  0.11383  0.67271  1.0000
  H   H226      1.0  0.39133  0.12927  0.65379  1.0000
  C   C235      1.0  0.19448  0.10133  0.72126  1.0000
  C   C236      1.0  0.43343  0.27363  0.68098  1.0000
  H   H227      1.0  0.99684  0.35679  0.69374  1.0000
  S   S82       1.0  0.40957  0.40860  0.52428  1.0000
  S   S83       1.0  0.42957  0.08115  0.71143  1.0000
  H   H228      1.0  0.38273  0.21842  0.69547  1.0000
  N   N19       1.0  0.01642  0.32783  0.70555  1.0000
  C   C237      1.0  0.39562  0.00691  0.57180  1.0000
  H   H229      1.0  0.42264  0.27367  0.66164  1.0000
  C   C238      1.0  0.30255  0.12174  0.72737  1.0000
  H   H230      1.0  0.40602  0.00181  0.59177  1.0000
  H   H231      1.0  0.03864  0.34844  0.70990  1.0000
  C   C239      1.0  0.45505  0.32235  0.48961  1.0000
  C   C240      1.0  0.05094  0.13555  0.68377  1.0000
  H   H232      1.0  0.03939  0.34826  0.69182  1.0000
  S   S84       1.0  0.41009  0.00119  0.49558  1.0000
  H   H233      1.0  0.48428  0.14608  0.71167  1.0000
  C   C241      1.0  0.43260  0.21655  0.73328  1.0000
  H   H234      1.0  0.38360  0.38172  0.50365  1.0000
  H   H235      1.0  0.00010  0.05928  0.65115  1.0000
  N   N20       1.0  0.49097  0.16108  0.72789  1.0000
  H   H236      1.0  0.30212  0.29228  0.73291  1.0000
  C   C242      1.0  0.08407  0.05493  0.73432  1.0000
  S   S85       1.0  0.12595  0.30435  0.73606  1.0000
  H   H237      1.0  0.38893  0.31842  0.48710  1.0000
  H   H238      1.0  0.14670  0.99668  0.72191  1.0000
  C   C243      1.0  0.49624  0.15440  0.71517  1.0000
  Fe  Fe44      1.0  0.12077  0.11105  0.97421  1.0000
  S   S86       1.0  0.13836  0.09791  0.95439  1.0000
  C   C244      1.0  0.32457  0.07619  0.74854  1.0000
  H   H239      1.0  0.03047  0.03233  0.92994  1.0000
  C   C245      1.0  0.17532  0.40750  0.94462  1.0000
  C   C246      1.0  0.21068  0.03494  0.85578  1.0000
  S   S87       1.0  0.13592  0.37940  0.96804  1.0000
  H   H240      1.0  0.06472  0.33089  0.97395  1.0000
  C   C247      1.0  0.03942  0.00375  0.87526  1.0000
  C   C248      1.0  0.18832  0.25247  0.76525  1.0000
  C   C249      1.0  0.42565  0.07524  0.75962  1.0000
  C   C250      1.0  0.18176  0.21534  0.76029  1.0000
  H   H241      1.0  0.37799  0.32157  0.77158  1.0000
  H   H242      1.0  0.44251  0.05681  0.74273  1.0000
  C   C251      1.0  0.00044  0.00937  0.86905  1.0000
  C   C252      1.0  0.30200  0.35607  0.75093  1.0000
  C   C253      1.0  0.02259  0.33555  0.94583  1.0000
  Fe  Fe45      1.0  0.11085  0.40332  0.89681  1.0000
  S   S88       1.0  0.08850  0.43822  0.90004  1.0000
  S   S89       1.0  0.10512  0.37151  0.91240  1.0000
  Fe  Fe46      1.0  0.14050  0.42354  0.87092  1.0000
  S   S90       1.0  0.12097  0.46058  0.87247  1.0000
  S   S91       1.0  0.17038  0.41714  0.85331  1.0000
  Fe  Fe47      1.0  0.12254  0.45142  0.89505  1.0000
  H   H243      1.0  0.18453  0.39305  0.90789  1.0000
  Fe  Fe48      1.0  0.08883  0.44410  0.87738  1.0000
  S   S92       1.0  0.05646  0.46256  0.86822  1.0000
  S   S93       1.0  0.14505  0.41587  0.89314  1.0000
  S   S94       1.0  0.10813  0.40782  0.87439  1.0000
  Fe  Fe49      1.0  0.25364  0.10834  0.78076  1.0000
  S   S95       1.0  0.22529  0.11267  0.79916  1.0000
  S   S96       1.0  0.29180  0.10757  0.78150  1.0000
  Fe  Fe50      1.0  0.21913  0.11117  0.76142  1.0000
  S   S97       1.0  0.18772  0.11579  0.77791  1.0000
  H   H244      1.0  0.36822  0.03420  0.75309  1.0000
  Fe  Fe51      1.0  0.20592  0.14031  0.78461  1.0000
  S   S98       1.0  0.18482  0.17464  0.79033  1.0000
  Fe  Fe52      1.0  0.20940  0.08766  0.79119  1.0000
  S   S99       1.0  0.19274  0.05798  0.80423  1.0000
  S   S100      1.0  0.23544  0.13828  0.76696  1.0000
  S   S101      1.0  0.23957  0.08081  0.77396  1.0000
  Fe  Fe53      1.0  0.20714  0.32590  0.80084  1.0000
  S   S102      1.0  0.24059  0.30527  0.80809  1.0000
  S   S103      1.0  0.17550  0.34045  0.81577  1.0000
  C   C254      1.0  0.38759  0.06663  0.77045  1.0000
  C   C255      1.0  0.20665  0.00429  0.84409  1.0000
  Fe  Fe54      1.0  0.23695  0.27859  0.79579  1.0000
  S   S104      1.0  0.24904  0.23973  0.80176  1.0000
  H   H245      1.0  0.04354  0.06892  0.93738  1.0000
  Fe  Fe55      1.0  0.09081  0.00173  0.88718  1.0000
  S   S105      1.0  0.20229  0.29766  0.78978  1.0000
  S   S106      1.0  0.22577  0.34546  0.78186  1.0000
  Fe  Fe56      1.0  0.10463  0.02267  0.90909  1.0000
  C   C256      1.0  0.00980  0.22389  0.97139  1.0000
  S   S107      1.0  0.08764  0.03612  0.92895  1.0000
  C   C257      1.0  0.03321  0.19149  0.98346  1.0000
  C   C258      1.0  0.04651  0.11226  0.94462  1.0000
  C   C259      1.0  0.05587  0.36280  0.94476  1.0000
  Fe  Fe57      1.0  0.12640  0.03428  0.87917  1.0000
  S   S108      1.0  0.14172  0.06417  0.86537  1.0000
  H   H246      1.0  0.02237  0.09363  0.93095  1.0000
  S   S109      1.0  0.08884  0.03889  0.89006  1.0000
  C   C260      1.0  0.33969  0.33624  0.74059  1.0000
  C   C261      1.0  0.02118  0.04183  0.86425  1.0000
  C   C262      1.0  0.04034  0.02724  0.86996  1.0000
  H   H247      1.0  0.02173  0.06006  0.86028  1.0000
  H   H248      1.0  0.01289  0.47226  0.85753  1.0000
  C   C263      1.0  0.00063  0.10113  0.97763  1.0000
  S   S110      1.0  0.00491  0.06844  0.96103  1.0000
  H   H249      1.0  0.05567  0.03421  0.87033  1.0000
  H   H250      1.0  0.29844  0.28474  0.75144  1.0000
  C   C264      1.0  0.05837  0.34922  0.96923  1.0000
  C   C265      1.0  0.17923  0.05954  0.82135  1.0000
  C   C266      1.0  0.18229  0.07665  0.82837  1.0000
  C   C267      1.0  0.17102  0.07756  0.84198  1.0000
  C   C268      1.0  0.15666  0.06139  0.84863  1.0000
  C   C269      1.0  0.15391  0.04403  0.84169  1.0000
  C   C270      1.0  0.16517  0.04313  0.82808  1.0000
  H   H251      1.0  0.19325  0.08922  0.82332  1.0000
  H   H252      1.0  0.17330  0.09096  0.84734  1.0000
  H   H253      1.0  0.14277  0.03159  0.84671  1.0000
  H   H254      1.0  0.16276  0.02984  0.82267  1.0000
  C   C271      1.0  0.20260  0.19254  0.79374  1.0000
  C   C272      1.0  0.19267  0.21553  0.79606  1.0000
  C   C273      1.0  0.20683  0.23023  0.79840  1.0000
  C   C274      1.0  0.23091  0.22184  0.79867  1.0000
  C   C275      1.0  0.24072  0.19871  0.79657  1.0000
  C   C276      1.0  0.22666  0.18416  0.79397  1.0000
  H   H255      1.0  0.17402  0.22203  0.79600  1.0000
  H   H256      1.0  0.19904  0.24788  0.80029  1.0000
  H   H257      1.0  0.25930  0.19207  0.79681  1.0000
  H   H258      1.0  0.23450  0.16643  0.79221  1.0000
  C   C277      1.0  0.17338  0.39384  0.84392  1.0000
  C   C278      1.0  0.19118  0.39169  0.83247  1.0000
  C   C279      1.0  0.19294  0.37446  0.82416  1.0000
  C   C280      1.0  0.17679  0.35932  0.82723  1.0000
  C   C281      1.0  0.15944  0.36104  0.83892  1.0000
  C   C282      1.0  0.15774  0.37819  0.84724  1.0000
  H   H259      1.0  0.20341  0.40368  0.82985  1.0000
  H   H260      1.0  0.20628  0.37341  0.81514  1.0000
  H   H261      1.0  0.14688  0.34940  0.84136  1.0000
  H   H262      1.0  0.14411  0.37947  0.85609  1.0000
  C   C283      1.0  0.03823  0.44391  0.86624  1.0000
  C   C284      1.0  0.04379  0.41972  0.87054  1.0000
  C   C285      1.0  0.02868  0.40516  0.86928  1.0000
  S   S111      1.0  0.10084  0.19418  0.98482  1.0000
  C   C286      1.0  0.01457  0.08108  0.97280  1.0000
  H   H263      1.0  0.21632  0.05127  0.85564  1.0000
  H   H264      1.0  0.05950  0.41217  0.87502  1.0000
  H   H265      1.0  0.03308  0.38644  0.87257  1.0000
  H   H266      1.0  0.02270  0.34891  0.92433  1.0000
  H   H267      1.0  0.04463  0.35796  0.97683  1.0000
  C   C287      1.0  0.19039  0.00384  0.86764  1.0000
  C   C288      1.0  0.40875  0.04739  0.75182  1.0000
  C   C289      1.0  0.31920  0.31991  0.77896  1.0000
  H   H268      1.0  0.30455  0.29040  0.77750  1.0000
  H   H269      1.0  0.12320  0.24703  0.74788  1.0000
  H   H270      1.0  0.05321  0.37291  0.92322  1.0000
  C   C290      1.0  0.04141  0.08561  0.93005  1.0000
  C   C291      1.0  0.30765  0.08351  0.75955  1.0000
  C   C292      1.0  0.31166  0.09967  0.76695  1.0000
  C   C293      1.0  0.33232  0.10894  0.76307  1.0000
  C   C294      1.0  0.37084  0.03720  0.76326  1.0000
  H   H271      1.0  0.17550  0.32396  0.76449  1.0000
  H   H272      1.0  0.29184  0.07613  0.76255  1.0000
  H   H273      1.0  0.33544  0.12151  0.76875  1.0000
  S   S112      1.0  0.08935  0.14005  0.97622  1.0000
  C   C295      1.0  0.29484  0.29904  0.74276  1.0000
  H   H274      1.0  0.13704  0.20440  0.74688  1.0000
  S   S113      1.0  0.45743  0.26563  0.75421  1.0000
  Fe  Fe58      1.0  0.22371  0.31554  0.77155  1.0000
  H   H275      1.0  0.07361  0.35838  0.96701  1.0000
  C   C296      1.0  0.15349  0.31600  0.75178  1.0000
  C   C297      1.0  0.12609  0.37689  0.95302  1.0000
  C   C298      1.0  0.12253  0.35542  0.95069  1.0000
  C   C299      1.0  0.11626  0.35371  0.93814  1.0000
  C   C300      1.0  0.11357  0.37344  0.92793  1.0000
  C   C301      1.0  0.11692  0.39490  0.93036  1.0000
  C   C302      1.0  0.12299  0.39663  0.94289  1.0000
  H   H276      1.0  0.12527  0.34000  0.95837  1.0000
  H   H277      1.0  0.11376  0.33704  0.93628  1.0000
  H   H278      1.0  0.11465  0.41028  0.92263  1.0000
  H   H279      1.0  0.12523  0.41337  0.94474  1.0000
  H   H280      1.0  0.06560  0.05348  0.73882  1.0000
  C   C303      1.0  0.10332  0.05106  0.93656  1.0000
  C   C304      1.0  0.12453  0.05746  0.92974  1.0000
  C   C305      1.0  0.13545  0.07132  0.93551  1.0000
  C   C306      1.0  0.12517  0.07897  0.94807  1.0000
  C   C307      1.0  0.10426  0.07212  0.95507  1.0000
  C   C308      1.0  0.09341  0.05818  0.94930  1.0000
  H   H281      1.0  0.13224  0.05219  0.91988  1.0000
  H   H282      1.0  0.15164  0.07657  0.93005  1.0000
  H   H283      1.0  0.09611  0.07801  0.96472  1.0000
  H   H284      1.0  0.07699  0.05331  0.95454  1.0000
  C   C309      1.0  0.42720  0.05942  0.75065  1.0000
  H   H285      1.0  0.16822  0.45273  0.94550  1.0000
  H   H286      1.0  0.00492  0.02628  0.89379  1.0000
  N   N21       1.0  0.04871  0.34925  0.95682  1.0000
  H   H287      1.0  0.08348  0.09437  0.91714  1.0000
  S   S114      1.0  0.14200  0.02062  0.89855  1.0000
  H   H288      1.0  0.16599  0.07861  0.97644  1.0000
  H   H289      1.0  0.14678  0.26850  0.75702  1.0000
  C   C310      1.0  0.16040  0.08515  0.74209  1.0000
  H   H290      1.0  0.03644  0.01578  0.90818  1.0000
  H   H291      1.0  0.43193  0.22523  0.74196  1.0000
  H   H292      1.0  0.18000  0.09332  0.75602  1.0000
  H   H293      1.0  0.33940  0.34596  0.77949  1.0000
  S   S115      1.0  0.12688  0.99846  0.87451  1.0000
  C   C311      1.0  0.40565  0.07906  0.76951  1.0000
  H   H294      1.0  0.14231  0.45224  0.93841  1.0000
  H   H295      1.0  0.14388  0.04546  0.97211  1.0000
  C   C312      1.0  0.18219  0.39701  0.91824  1.0000
  H   H296      1.0  0.09358  0.05540  0.74280  1.0000
  C   C313      1.0  0.15269  0.30886  0.73937  1.0000
  H   H297      1.0  0.06873  0.37369  0.94422  1.0000
  C   C314      1.0  0.03004  0.34903  0.93344  1.0000
  S   S116      1.0  0.25791  0.29405  0.77668  1.0000
  S   S117      1.0  0.00748  0.27778  0.98323  1.0000
  H   H298      1.0  0.10748  0.11873  0.92375  1.0000
  C   C315      1.0  0.00113  0.03291  0.86389  1.0000
  Fe  Fe59      1.0  0.46796  0.30020  0.74468  1.0000
  H   H299      1.0  0.19385  0.26600  0.75668  1.0000
  N   N22       1.0  0.11406  0.42600  0.83320  1.0000
  C   C316      1.0  0.09661  0.41303  0.83710  1.0000
  C   C317      1.0  0.13254  0.42007  0.82316  1.0000
  C   C318      1.0  0.09769  0.39323  0.83108  1.0000
  C   C319      1.0  0.13397  0.40063  0.81677  1.0000
  C   C320      1.0  0.11657  0.38699  0.82088  1.0000
  C   C321      1.0  0.11273  0.44687  0.83940  1.0000
  H   H300      1.0  0.08185  0.41779  0.84501  1.0000
  H   H301      1.0  0.14666  0.43001  0.82031  1.0000
  H   H302      1.0  0.08411  0.38268  0.83440  1.0000
  H   H303      1.0  0.14904  0.39548  0.80913  1.0000
  H   H304      1.0  0.11812  0.37131  0.81637  1.0000
  H   H305      1.0  0.17169  0.41120  0.95508  1.0000
  H   H306      1.0  0.12994  0.44672  0.84247  1.0000
  H   H307      1.0  0.10815  0.46295  0.83196  1.0000
  C   C322      1.0  0.34005  0.32874  0.77705  1.0000
  H   H308      1.0  0.02646  0.32516  0.96707  1.0000
  S   S118      1.0  0.22272  0.31713  0.74911  1.0000
  C   C323      1.0  0.16850  0.20253  0.75547  1.0000
  C   C324      1.0  0.15309  0.25001  0.75652  1.0000
  S   S119      1.0  0.12753  0.47158  0.91101  1.0000
  C   C325      1.0  0.03221  0.33582  0.95749  1.0000
  H   H309      1.0  0.37569  0.02002  0.76973  1.0000
  H   H310      1.0  0.04732  0.05641  0.97323  1.0000
  H   H311      1.0  0.16533  0.02037  0.96735  1.0000
  N   N23       1.0  0.17405  0.23883  0.76067  1.0000
  C   C326      1.0  0.18293  0.38418  0.94241  1.0000
  C   C327      1.0  0.18625  0.37894  0.92914  1.0000
  N   N24       1.0  0.03006  0.21409  0.97677  1.0000
  Fe  Fe60      1.0  0.42035  0.28433  0.75232  1.0000
  H   H312      1.0  0.14726  0.07886  0.75019  1.0000
  C   C328      1.0  0.99846  0.43651  0.89856  1.0000
  H   H313      1.0  0.20451  0.24131  0.76878  1.0000
  C   C329      1.0  0.14737  0.21395  0.75089  1.0000
  H   H314      1.0  0.19402  0.03262  0.87696  1.0000
  C   C330      1.0  0.36188  0.31506  0.77245  1.0000
  C   C331      1.0  0.13953  0.23784  0.75148  1.0000
  N   N25       1.0  0.30541  0.31881  0.74372  1.0000
  H   H315      1.0  0.18515  0.37020  0.95105  1.0000
  C   C332      1.0  0.03658  0.07196  0.97690  1.0000
  C   C333      1.0  0.04690  0.36266  0.93285  1.0000
  C   C334      1.0  0.36290  0.29239  0.76989  1.0000
  H   H316      1.0  0.35357  0.04655  0.76804  1.0000
  C   C335      1.0  0.19820  0.02449  0.86774  1.0000
  H   H317      1.0  0.35850  0.33534  0.73728  1.0000
  H   H318      1.0  0.04403  0.24573  0.96994  1.0000
  H   H319      1.0  0.36466  0.10957  0.74885  1.0000
  H   H320      1.0  0.01616  0.42612  0.89785  1.0000
  H   H321      1.0  0.13748  0.31949  0.75903  1.0000
  H   H322      1.0  0.19816  0.20629  0.76383  1.0000
  H   H323      1.0  0.20931  0.99703  0.83464  1.0000
  C   C336      1.0  0.17890  0.09341  0.74540  1.0000
  C   C337      1.0  0.17444  0.42014  0.92082  1.0000
  C   C338      1.0  0.16188  0.44924  0.93650  1.0000
  H   H324      1.0  0.40407  0.09171  0.77634  1.0000
  C   C339      1.0  0.04457  0.08291  0.98587  1.0000
  S   S120      1.0  0.29236  0.33656  0.78590  1.0000
  C   C340      1.0  0.34886  0.10221  0.75179  1.0000
  N   N26       1.0  0.38930  0.05104  0.76165  1.0000
  N   N27       1.0  0.31672  0.24949  0.80349  1.0000
  C   C341      1.0  0.33968  0.25235  0.80115  1.0000
  C   C342      1.0  0.29914  0.26616  0.80882  1.0000
  C   C343      1.0  0.34550  0.27231  0.80421  1.0000
  C   C344      1.0  0.30433  0.28639  0.81192  1.0000
  C   C345      1.0  0.32766  0.28946  0.80956  1.0000
  C   C346      1.0  0.31050  0.22920  0.79960  1.0000
  H   H325      1.0  0.35359  0.23966  0.79642  1.0000
  H   H326      1.0  0.28091  0.26403  0.81044  1.0000
  H   H327      1.0  0.36360  0.27497  0.80178  1.0000
  H   H328      1.0  0.29028  0.30000  0.81568  1.0000
  H   H329      1.0  0.33176  0.30553  0.81139  1.0000
  H   H330      1.0  0.32616  0.21533  0.79736  1.0000
  H   H331      1.0  0.29802  0.22128  0.80802  1.0000
  H   H332      1.0  0.30166  0.23488  0.79035  1.0000
  N   N28       1.0  0.05489  0.10135  0.93334  1.0000
  C   C347      1.0  0.07638  0.10381  0.92576  1.0000
  C   C348      1.0  0.05991  0.12572  0.94877  1.0000
  C   C349      1.0  0.09008  0.11750  0.92946  1.0000
  C   C350      1.0  0.08188  0.12828  0.94114  1.0000
  H   H333      1.0  0.08993  0.24424  0.98232  1.0000
  H   H334      1.0  0.05349  0.13361  0.95803  1.0000
  C   C351      1.0  0.16298  0.03887  0.96896  1.0000
  H   H335      1.0  0.09288  0.13800  0.94446  1.0000
  S   S121      1.0  0.43026  0.31976  0.74474  1.0000
  H   H336      1.0  0.19147  0.36086  0.92734  1.0000
  H   H337      1.0  0.09922  0.44766  0.84876  1.0000
  N   N29       1.0  0.14716  0.13563  0.82319  1.0000
  C   C352      1.0  0.15078  0.12726  0.81102  1.0000
  C   C353      1.0  0.13268  0.12649  0.83430  1.0000
  C   C354      1.0  0.14036  0.10877  0.80982  1.0000
  C   C355      1.0  0.12178  0.10812  0.83344  1.0000
  C   C356      1.0  0.12583  0.09911  0.82114  1.0000
  C   C357      1.0  0.15889  0.15463  0.82411  1.0000
  H   H338      1.0  0.16213  0.13467  0.80224  1.0000
  H   H339      1.0  0.12992  0.13288  0.84402  1.0000
  H   H340      1.0  0.04761  0.08128  0.91950  1.0000
  H   H341      1.0  0.11109  0.10024  0.84242  1.0000
  H   H342      1.0  0.11826  0.08426  0.82049  1.0000
  H   H343      1.0  0.15150  0.17107  0.81767  1.0000
  H   H344      1.0  0.15694  0.15801  0.83481  1.0000
  H   H345      1.0  0.17809  0.15012  0.82023  1.0000
  N   N30       1.0  0.17630  0.04135  0.97936  1.0000
  H   H346      1.0  0.43976  0.08487  0.75868  1.0000
  C   C358      1.0  0.01734  0.45354  0.86084  1.0000
  C   C359      1.0  0.21494  0.02482  0.84386  1.0000
  H   H347      1.0  0.26742  0.11753  0.73699  1.0000
  C   C360      1.0  0.17498  0.31846  0.75489  1.0000
  Fe  Fe61      1.0  0.25889  0.32235  0.78823  1.0000
  H   H348      1.0  0.02952  0.11024  0.95060  1.0000
  H   H349      1.0  0.34275  0.26631  0.76946  1.0000
  H   H350      1.0  0.27335  0.33782  0.75347  1.0000
  S   S122      1.0  0.38986  0.27273  0.76745  1.0000
  H   H351      1.0  0.17055  0.43404  0.91235  1.0000
  H   H352      1.0  0.17461  0.18385  0.75535  1.0000
  H   H353      1.0  0.00943  0.32497  0.94639  1.0000
  H   H354      1.0  0.47342  0.13987  0.74426  1.0000
  H   H355      1.0  0.37202  0.06979  0.77812  1.0000
  H   H356      1.0  0.16734  0.46220  0.92753  1.0000
  H   H357      1.0  0.22382  0.03330  0.83435  1.0000
  C   C361      1.0  0.34200  0.28394  0.77129  1.0000
  N   N31       1.0  0.17131  0.42513  0.93388  1.0000
  H   H358      1.0  0.14411  0.10150  0.80031  1.0000
  C   C362      1.0  0.32025  0.29763  0.77581  1.0000
  C   C363      1.0  0.19563  0.31425  0.74546  1.0000
  H   H359      1.0  0.16882  0.04936  0.95896  1.0000
  C   C364      1.0  0.34520  0.08554  0.74465  1.0000
  H   H360      1.0  0.06516  0.21886  0.96930  1.0000
  C   C365      1.0  0.32906  0.31788  0.73943  1.0000
  C   C366      1.0  0.02019  0.02769  0.91127  1.0000
  C   C367      1.0  0.17589  0.06329  0.98203  1.0000
  H   H361      1.0  0.40989  0.03540  0.74466  1.0000
  C   C368      1.0  0.32602  0.35545  0.74636  1.0000
  C   C369      1.0  0.29193  0.33745  0.74957  1.0000
  C   C370      1.0  0.01950  0.99487  0.87472  1.0000
  H   H362      1.0  0.18052  0.99597  0.87695  1.0000
  H   H363      1.0  0.00712  0.24192  0.96626  1.0000
  H   H364      1.0  0.17798  0.26135  0.77392  1.0000
  S   S123      1.0  0.21864  0.11302  0.73884  1.0000
  H   H365      1.0  0.29139  0.37045  0.75596  1.0000
  N   N32       1.0  0.19484  0.99389  0.85594  1.0000
  H   H366      1.0  0.18850  0.00448  0.98469  1.0000
  H   H367      1.0  0.27540  0.30431  0.74314  1.0000
  S   S124      1.0  0.14165  0.12684  0.98535  1.0000
  C   C371      1.0  0.00767  0.41481  0.86404  1.0000
  C   C372      1.0  0.01685  0.03701  0.92342  1.0000
  C   C373      1.0  0.04878  0.22753  0.97529  1.0000
  H   H368      1.0  0.33415  0.36953  0.74764  1.0000
  H   H369      1.0  0.39783  0.20861  0.73998  1.0000
  H   H370      1.0  0.32163  0.06328  0.74305  1.0000
  H   H371      1.0  0.00983  0.46795  0.88760  1.0000
  C   C374      1.0  0.00236  0.03376  0.90310  1.0000
  H   H372      1.0  0.46136  0.17107  0.74289  1.0000
  C   C375      1.0  0.46937  0.15636  0.73703  1.0000
  C   C376      1.0  0.00192  0.43905  0.85991  1.0000
  H   H373      1.0  0.05249  0.22860  0.98558  1.0000
  C   C377      1.0  0.01582  0.17805  0.98486  1.0000
  H   H374      1.0  0.33563  0.64254  0.09506  1.0000
  H   H375      1.0  0.18876  0.56977  0.10393  1.0000
  S   S125      1.0  0.20700  0.82775  0.20955  1.0000
  H   H376      1.0  0.22160  0.84353  0.18120  1.0000
  Fe  Fe62      1.0  0.42517  0.76181  0.20157  1.0000
  S   S126      1.0  0.44448  0.75246  0.18140  1.0000
  S   S127      1.0  0.40328  0.73627  0.21377  1.0000
  Fe  Fe63      1.0  0.44252  0.80707  0.19703  1.0000
  S   S128      1.0  0.46215  0.80242  0.17588  1.0000
  C   C378      1.0  0.19124  0.54039  0.07202  1.0000
  Fe  Fe64      1.0  0.43009  0.78973  0.17317  1.0000
  S   S129      1.0  0.41641  0.79352  0.15306  1.0000
  Fe  Fe65      1.0  0.47457  0.76576  0.18585  1.0000
  H   H377      1.0  0.41761  0.74433  0.15179  1.0000
  S   S130      1.0  0.40914  0.79853  0.19334  1.0000
  S   S131      1.0  0.45669  0.77088  0.20712  1.0000
  Fe  Fe66      1.0  0.38719  0.66525  0.16913  1.0000
  S   S132      1.0  0.40227  0.64264  0.15277  1.0000
  S   S133      1.0  0.37025  0.70314  0.16609  1.0000
  Fe  Fe67      1.0  0.38868  0.61430  0.16860  1.0000
  S   S134      1.0  0.36877  0.58775  0.16524  1.0000
  Fe  Fe68      1.0  0.16361  0.94451  0.03034  1.0000
  S   S135      1.0  0.14190  0.93844  0.01585  1.0000
  H   H378      1.0  0.33647  0.75391  0.16711  1.0000
  Fe  Fe69      1.0  0.15669  0.89996  0.05023  1.0000
  S   S136      1.0  0.13393  0.89028  0.03738  1.0000
  S   S137      1.0  0.16199  0.87491  0.06993  1.0000
  Fe  Fe70      1.0  0.16041  0.90102  0.01950  1.0000
  H   H379      1.0  0.09286  0.98233  0.04706  1.0000
  Fe  Fe71      1.0  0.11701  0.92839  0.03483  1.0000
  S   S138      1.0  0.07859  0.94418  0.03418  1.0000
  S   S139      1.0  0.18469  0.90767  0.03242  1.0000
  S   S140      1.0  0.13737  0.93740  0.04928  1.0000
  Fe  Fe72      1.0  0.26013  0.81872  0.11359  1.0000
  S   S141      1.0  0.24080  0.78868  0.11824  1.0000
  S   S142      1.0  0.25723  0.84764  0.09526  1.0000
  Fe  Fe73      1.0  0.28647  0.80128  0.13824  1.0000
  S   S143      1.0  0.26961  0.76972  0.14455  1.0000
  S   S144      1.0  0.30608  0.80883  0.15372  1.0000
  Fe  Fe74      1.0  0.27566  0.76673  0.12227  1.0000
  S   S145      1.0  0.28881  0.73049  0.11671  1.0000
  Fe  Fe75      1.0  0.23626  0.79404  0.14017  1.0000
  S   S146      1.0  0.20502  0.78735  0.15602  1.0000
  S   S147      1.0  0.29586  0.79630  0.11609  1.0000
  S   S148      1.0  0.25239  0.82619  0.13528  1.0000
  Fe  Fe76      1.0  0.22945  0.58595  0.13549  1.0000
  S   S149      1.0  0.25896  0.56819  0.12093  1.0000
  S   S150      1.0  0.21419  0.56725  0.15572  1.0000
  Fe  Fe77      1.0  0.22667  0.63299  0.11758  1.0000
  S   S151      1.0  0.25481  0.61903  0.10132  1.0000
  S   S152      1.0  0.21168  0.67162  0.11565  1.0000
  Fe  Fe78      1.0  0.23705  0.58800  0.10481  1.0000
  H   H380      1.0  0.25167  0.70805  0.07934  1.0000
  Fe  Fe79      1.0  0.27406  0.60082  0.11878  1.0000
  S   S153      1.0  0.31152  0.60707  0.11545  1.0000
  S   S154      1.0  0.20673  0.60384  0.11951  1.0000
  S   S155      1.0  0.24658  0.61647  0.13491  1.0000
  C   C379      1.0  0.26666  0.71444  0.11734  1.0000
  C   C380      1.0  0.27224  0.68991  0.11950  1.0000
  C   C381      1.0  0.25549  0.67670  0.11890  1.0000
  C   C382      1.0  0.23282  0.68794  0.11649  1.0000
  C   C383      1.0  0.22704  0.71246  0.11463  1.0000
  C   C384      1.0  0.24398  0.72569  0.11496  1.0000
  H   H381      1.0  0.28967  0.68109  0.12147  1.0000
  H   H382      1.0  0.26033  0.65784  0.12012  1.0000
  H   H383      1.0  0.20956  0.72125  0.11272  1.0000
  H   H384      1.0  0.23956  0.74454  0.11302  1.0000
  C   C385      1.0  0.18830  0.86861  0.07708  1.0000
  C   C386      1.0  0.19018  0.85163  0.08884  1.0000
  C   C387      1.0  0.21117  0.84515  0.09451  1.0000
  C   C388      1.0  0.23051  0.85564  0.08845  1.0000
  C   C389      1.0  0.22865  0.87270  0.07668  1.0000
  C   C390      1.0  0.20761  0.87918  0.07100  1.0000
  H   H385      1.0  0.17531  0.84341  0.09362  1.0000
  H   H386      1.0  0.21228  0.83215  0.10362  1.0000
  H   H387      1.0  0.24350  0.88097  0.07195  1.0000
  H   H388      1.0  0.20635  0.89228  0.06192  1.0000
  C   C391      1.0  0.06006  0.92450  0.03410  1.0000
  C   C392      1.0  0.03619  0.93307  0.03306  1.0000
  C   C393      1.0  0.06896  0.90046  0.03459  1.0000
  H   H389      1.0  0.24151  0.85260  0.03333  1.0000
  H   H390      1.0  0.08715  0.89361  0.03554  1.0000
  C   C394      1.0  0.04589  0.51080  0.04258  1.0000
  H   H391      1.0  0.31701  0.70646  0.09267  1.0000
  C   C395      1.0  0.02890  0.51725  0.03380  1.0000
  C   C396      1.0  0.13835  0.85685  0.00695  1.0000
  H   H392      1.0  0.29569  0.64243  0.09207  1.0000
  C   C397      1.0  0.07749  0.78371  0.23047  1.0000
  H   H393      1.0  0.13517  0.86092  0.01725  1.0000
  H   H394      1.0  0.28105  0.72906  0.08390  1.0000
  H   H395      1.0  0.32410  0.65672  0.10992  1.0000
  C   C398      1.0  0.10668  0.58938  0.99713  1.0000
  C   C399      1.0  0.10608  0.56998  0.00757  1.0000
  C   C400      1.0  0.09872  0.55030  0.00531  1.0000
  H   H396      1.0  0.47300  0.59994  0.17625  1.0000
  N   N33       1.0  0.03549  0.84076  0.99922  1.0000
  H   H397      1.0  0.45629  0.75691  0.14717  1.0000
  C   C401      1.0  0.20973  0.53342  0.13189  1.0000
  H   H398      1.0  0.06131  0.86652  0.03440  1.0000
  H   H399      1.0  0.11509  0.59308  0.19520  1.0000
  H   H400      1.0  0.24491  0.50912  0.09064  1.0000
  C   C402      1.0  0.49586  0.71027  0.15927  1.0000
  H   H401      1.0  0.48809  0.80079  0.21161  1.0000
  H   H402      1.0  0.23195  0.74224  0.14806  1.0000
  H   H403      1.0  0.34418  0.66948  0.09606  1.0000
  S   S156      1.0  0.01271  0.87404  0.03163  1.0000
  H   H404      1.0  0.10134  0.56508  0.21526  1.0000
  H   H405      1.0  0.46755  0.63927  0.20079  1.0000
  C   C403      1.0  0.46379  0.73877  0.15070  1.0000
  C   C404      1.0  0.35173  0.59497  0.15183  1.0000
  C   C405      1.0  0.33181  0.58488  0.15302  1.0000
  C   C406      1.0  0.31884  0.58913  0.14211  1.0000
  C   C407      1.0  0.32625  0.60281  0.12974  1.0000
  C   C408      1.0  0.34632  0.61271  0.12851  1.0000
  C   C409      1.0  0.35875  0.60919  0.13960  1.0000
  H   H406      1.0  0.35242  0.62298  0.11894  1.0000
  H   H407      1.0  0.37414  0.61692  0.13853  1.0000
  H   H408      1.0  0.40433  0.57469  0.14289  1.0000
  Fe  Fe80      1.0  0.13975  0.51426  0.06431  1.0000
  C   C410      1.0  0.38575  0.79637  0.15352  1.0000
  C   C411      1.0  0.37719  0.79327  0.14198  1.0000
  C   C412      1.0  0.35277  0.79621  0.14198  1.0000
  C   C413      1.0  0.33684  0.80271  0.15347  1.0000
  C   C414      1.0  0.34542  0.80556  0.16502  1.0000
  C   C415      1.0  0.36975  0.80224  0.16509  1.0000
  H   H409      1.0  0.38948  0.78863  0.13299  1.0000
  H   H410      1.0  0.34631  0.79389  0.13305  1.0000
  H   H411      1.0  0.33319  0.81064  0.17394  1.0000
  H   H412      1.0  0.37606  0.80481  0.17400  1.0000
  C   C416      1.0  0.39014  0.72846  0.20150  1.0000
  C   C417      1.0  0.38767  0.74358  0.18910  1.0000
  C   C418      1.0  0.38039  0.73624  0.17842  1.0000
  C   C419      1.0  0.37559  0.71370  0.18011  1.0000
  C   C420      1.0  0.37697  0.69894  0.19271  1.0000
  C   C421      1.0  0.38411  0.70636  0.20345  1.0000
  H   H413      1.0  0.39186  0.76083  0.18756  1.0000
  H   H414      1.0  0.37935  0.74773  0.16871  1.0000
  H   H415      1.0  0.37307  0.68153  0.19413  1.0000
  C   C422      1.0  0.20919  0.56152  0.08470  1.0000
  H   H416      1.0  0.18448  0.58248  0.99120  1.0000
  C   C423      1.0  0.41818  0.54468  0.16462  1.0000
  H   H417      1.0  0.11685  0.80589  0.18613  1.0000
  S   S157      1.0  0.47098  0.63581  0.15223  1.0000
  C   C424      1.0  0.23327  0.61689  0.23022  1.0000
  C   C425      1.0  0.05314  0.79209  0.23305  1.0000
  H   H418      1.0  0.05988  0.55971  0.21960  1.0000
  C   C426      1.0  0.19500  0.70395  0.15181  1.0000
  H   H419      1.0  0.05519  0.85609  0.00942  1.0000
  N   N34       1.0  0.16158  0.55857  0.99296  1.0000
  S   S158      1.0  0.11648  0.57005  0.02283  1.0000
  C   C427      1.0  0.09313  0.79256  0.23613  1.0000
  C   C428      1.0  0.18141  0.60778  0.15761  1.0000
  C   C429      1.0  0.19215  0.58663  0.16465  1.0000
  C   C430      1.0  0.18517  0.58101  0.17883  1.0000
  H   H420      1.0  0.18661  0.61229  0.14670  1.0000
  H   H421      1.0  0.19351  0.56470  0.18433  1.0000
  C   C431      1.0  0.20771  0.81534  0.19490  1.0000
  C   C432      1.0  0.19973  0.79439  0.19585  1.0000
  C   C433      1.0  0.19882  0.78580  0.18389  1.0000
  C   C434      1.0  0.20644  0.79787  0.17098  1.0000
  C   C435      1.0  0.21494  0.81849  0.17007  1.0000
  C   C436      1.0  0.21547  0.82728  0.18200  1.0000
  H   H422      1.0  0.19424  0.78477  0.20576  1.0000
  H   H423      1.0  0.19240  0.76972  0.18466  1.0000
  H   H424      1.0  0.22041  0.82814  0.16017  1.0000
  H   H425      1.0  0.17032  0.54626  0.01306  1.0000
  N   N35       1.0  0.24809  0.62568  0.23599  1.0000
  H   H426      1.0  0.49594  0.74733  0.15407  1.0000
  H   H427      1.0  0.13035  0.85336  0.22900  1.0000
  C   C437      1.0  0.02139  0.91769  0.03244  1.0000
  H   H428      1.0  0.20251  0.55229  0.12881  1.0000
  H   H429      1.0  0.06828  0.82638  0.00645  1.0000
  H   H430      1.0  0.23000  0.83654  0.05789  1.0000
  H   H431      1.0  0.41016  0.55230  0.17414  1.0000
  H   H432      1.0  0.15779  0.85496  0.21792  1.0000
  S   S159      1.0  0.40934  0.62583  0.21381  1.0000
  H   H433      1.0  0.40490  0.82069  0.22433  1.0000
  C   C438      1.0  0.38486  0.61582  0.22407  1.0000
  C   C439      1.0  0.05143  0.83860  0.00915  1.0000
  C   C440      1.0  0.16534  0.58230  0.99291  1.0000
  C   C441      1.0  0.15436  0.51348  0.99340  1.0000
  S   S160      1.0  0.12795  0.59628  0.22372  1.0000
  H   H434      1.0  0.02911  0.95164  0.03270  1.0000
  H   H435      1.0  0.07972  0.62247  0.16806  1.0000
  N   N36       1.0  0.30722  0.76255  0.18249  1.0000
  C   C442      1.0  0.31874  0.76056  0.19338  1.0000
  C   C443      1.0  0.28515  0.77604  0.18236  1.0000
  C   C444      1.0  0.30832  0.77254  0.20444  1.0000
  C   C445      1.0  0.27421  0.78824  0.19325  1.0000
  C   C446      1.0  0.28589  0.78647  0.20435  1.0000
  C   C447      1.0  0.31868  0.74973  0.17109  1.0000
  H   H436      1.0  0.33611  0.74968  0.19355  1.0000
  H   H437      1.0  0.27601  0.77784  0.17370  1.0000
  H   H438      1.0  0.31762  0.77103  0.21300  1.0000
  H   H439      1.0  0.25685  0.79915  0.19304  1.0000
  H   H440      1.0  0.27753  0.79592  0.21283  1.0000
  H   H441      1.0  0.30871  0.75462  0.16231  1.0000
  C   C448      1.0  0.49383  0.62202  0.16173  1.0000
  H   H442      1.0  0.32060  0.73051  0.17455  1.0000
  N   N37       1.0  0.21081  0.52038  0.12067  1.0000
  H   H443      1.0  0.43997  0.69460  0.19149  1.0000
  H   H444      1.0  0.18887  0.66442  0.22789  1.0000
  C   C449      1.0  0.03759  0.91152  0.99041  1.0000
  C   C450      1.0  0.47948  0.65153  0.19928  1.0000
  H   H445      1.0  0.00439  0.84516  0.01413  1.0000
  H   H446      1.0  0.01063  0.53508  0.06691  1.0000
  C   C451      1.0  0.09701  0.90645  0.00007  1.0000
  N   N38       1.0  0.47088  0.67503  0.19917  1.0000
  N   N39       1.0  0.31065  0.85906  0.11086  1.0000
  C   C452      1.0  0.33004  0.85234  0.11734  1.0000
  C   C453      1.0  0.28905  0.86724  0.11794  1.0000
  C   C454      1.0  0.32825  0.85456  0.13114  1.0000
  C   C455      1.0  0.28659  0.86948  0.13179  1.0000
  C   C456      1.0  0.30636  0.86316  0.13839  1.0000
  C   C457      1.0  0.31277  0.85619  0.09647  1.0000
  H   H447      1.0  0.34700  0.84498  0.11192  1.0000
  H   H448      1.0  0.27349  0.87175  0.11295  1.0000
  H   H449      1.0  0.34355  0.84886  0.13635  1.0000
  H   H450      1.0  0.26936  0.87545  0.13746  1.0000
  H   H451      1.0  0.30459  0.86397  0.14925  1.0000
  H   H452      1.0  0.30961  0.83856  0.09591  1.0000
  H   H453      1.0  0.29950  0.86950  0.09122  1.0000
  H   H454      1.0  0.33044  0.85825  0.09070  1.0000
  N   N40       1.0  0.08190  0.60246  0.18806  1.0000
  H   H455      1.0  0.48279  0.58046  0.15119  1.0000
  H   H456      1.0  0.04718  0.68450  0.23100  1.0000
  C   C458      1.0  0.46580  0.57886  0.14914  1.0000
  H   H457      1.0  0.25921  0.66455  0.08334  1.0000
  C   C459      1.0  0.15636  0.86501  0.99726  1.0000
  S   S161      1.0  0.17445  0.88172  0.00151  1.0000
  H   H458      1.0  0.19844  0.52679  0.14138  1.0000
  N   N41       1.0  0.30892  0.67313  0.09228  1.0000
  C   C460      1.0  0.29288  0.66144  0.08982  1.0000
  C   C461      1.0  0.30499  0.69712  0.08999  1.0000
  C   C462      1.0  0.27227  0.67382  0.08488  1.0000
  C   C463      1.0  0.28458  0.71005  0.08505  1.0000
  C   C464      1.0  0.26806  0.69828  0.08259  1.0000
  C   C465      1.0  0.32929  0.65990  0.09859  1.0000
  S   S162      1.0  0.37112  0.63792  0.18417  1.0000
  C   C466      1.0  0.16358  0.62306  0.16464  1.0000
  Fe  Fe81      1.0  0.43439  0.63281  0.16325  1.0000
  C   C467      1.0  0.05425  0.88510  0.03395  1.0000
  S   S163      1.0  0.14447  0.64628  0.22352  1.0000
  H   H459      1.0  0.18792  0.66037  0.16318  1.0000
  C   C468      1.0  0.42175  0.57555  0.14461  1.0000
  N   N42       1.0  0.21101  0.68332  0.15271  1.0000
  C   C469      1.0  0.20272  0.66113  0.15449  1.0000
  H   H460      1.0  0.24730  0.66715  0.15199  1.0000
  H   H461      1.0  0.17647  0.70384  0.15228  1.0000
  H   H462      1.0  0.21676  0.64566  0.15678  1.0000
  C   C470      1.0  0.00955  0.50601  0.03626  1.0000
  H   H463      1.0  0.15904  0.81052  0.05701  1.0000
  H   H464      1.0  0.45103  0.68476  0.15652  1.0000
  H   H465      1.0  0.11228  0.98057  0.03092  1.0000
  N   N43       1.0  0.45105  0.72150  0.15193  1.0000
  S   S164      1.0  0.10411  0.53374  0.05961  1.0000
  C   C471      1.0  0.23448  0.68342  0.15176  1.0000
  S   S165      1.0  0.23446  0.57160  0.08657  1.0000
  C   C472      1.0  0.24237  0.70460  0.15019  1.0000
  C   C473      1.0  0.20229  0.72543  0.15024  1.0000
  C   C474      1.0  0.22612  0.72567  0.14945  1.0000
  C   C475      1.0  0.05895  0.59960  0.19039  1.0000
  H   H466      1.0  0.26104  0.70473  0.14918  1.0000
  H   H467      1.0  0.18966  0.74186  0.14956  1.0000
  H   H468      1.0  0.19662  0.65949  0.14496  1.0000
  H   H469      1.0  0.04663  0.60992  0.18378  1.0000
  C   C476      1.0  0.46069  0.69859  0.15611  1.0000
  C   C477      1.0  0.17110  0.55072  0.09399  1.0000
  H   H470      1.0  0.19229  0.53176  0.06328  1.0000
  H   H471      1.0  0.08429  0.77013  0.22408  1.0000
  H   H472      1.0  0.22490  0.55101  0.06507  1.0000
  C   C478      1.0  0.18949  0.56175  0.09500  1.0000
  C   C479      1.0  0.20974  0.55122  0.07309  1.0000
  C   C480      1.0  0.05081  0.58379  0.20157  1.0000
  C   C481      1.0  0.16175  0.51908  0.00455  1.0000
  Fe  Fe82      1.0  0.12121  0.53597  0.03755  1.0000
  H   H473      1.0  0.40352  0.54155  0.16009  1.0000
  H   H474      1.0  0.15509  0.63921  0.15906  1.0000
  C   C482      1.0  0.17210  0.53959  0.08264  1.0000
  S   S166      1.0  0.16094  0.78951  0.22977  1.0000
  C   C483      1.0  0.05557  0.91338  0.99723  1.0000
  H   H475      1.0  0.11456  0.90524  0.99345  1.0000
  H   H476      1.0  0.10879  0.61402  0.17244  1.0000
  C   C484      1.0  0.20922  0.84919  0.02748  1.0000
  H   H477      1.0  0.11078  0.83655  0.01092  1.0000
  H   H478      1.0  0.41660  0.71404  0.15334  1.0000
  H   H479      1.0  0.09760  0.53556  0.01335  1.0000
  H   H480      1.0  0.04346  0.83163  0.01968  1.0000
  H   H481      1.0  0.32639  0.57372  0.16243  1.0000
  H   H482      1.0  0.30350  0.58129  0.14314  1.0000
  C   C485      1.0  0.22474  0.84696  0.03675  1.0000
  S   S167      1.0  0.42231  0.60231  0.17773  1.0000
  C   C486      1.0  0.22967  0.51976  0.11032  1.0000
  C   C487      1.0  0.15693  0.61773  0.17884  1.0000
  C   C488      1.0  0.16775  0.59669  0.18597  1.0000
  H   H483      1.0  0.38600  0.69453  0.21298  1.0000
  H   H484      1.0  0.17528  0.84475  0.02490  1.0000
  S   S168      1.0  0.42043  0.65800  0.17805  1.0000
  C   C489      1.0  0.18732  0.84257  0.03215  1.0000
  C   C490      1.0  0.49013  0.60465  0.17302  1.0000
  S   S169      1.0  0.15741  0.51891  0.04229  1.0000
  C   C491      1.0  0.06620  0.57120  0.21051  1.0000
  H   H485      1.0  0.42822  0.72946  0.13701  1.0000
  C   C492      1.0  0.08948  0.57439  0.20813  1.0000
  N   N44       1.0  0.13250  0.84359  0.20935  1.0000
  C   C493      1.0  0.21834  0.83788  0.05049  1.0000
  H   H486      1.0  0.47926  0.70909  0.19697  1.0000
  S   S170      1.0  0.03468  0.77973  0.22575  1.0000
  C   C494      1.0  0.03046  0.89366  0.03287  1.0000
  N   N45       1.0  0.07861  0.90463  0.99255  1.0000
  S   S171      1.0  0.11190  0.50266  0.03467  1.0000
  H   H487      1.0  0.11197  0.60484  0.99890  1.0000
  S   S172      1.0  0.13469  0.63766  0.18717  1.0000
  N   N46       1.0  0.18109  0.83391  0.04568  1.0000
  H   H488      1.0  0.38372  0.59088  0.21122  1.0000
  H   H489      1.0  0.00179  0.71776  0.20129  1.0000
  Fe  Fe83      1.0  0.40579  0.62866  0.19178  1.0000
  H   H490      1.0  0.16276  0.59247  0.19694  1.0000
  C   C495      1.0  0.19631  0.83141  0.05480  1.0000
  H   H491      1.0  0.09864  0.84168  0.22120  1.0000
  H   H492      1.0  0.08831  0.81740  0.20654  1.0000
  H   H493      1.0  0.15509  0.81971  0.18042  1.0000
  H   H494      1.0  0.15710  0.58827  0.00291  1.0000
  C   C496      1.0  0.15763  0.82819  0.05068  1.0000
  H   H495      1.0  0.16451  0.84420  0.19528  1.0000
  H   H496      1.0  0.13191  0.87681  0.21458  1.0000
  H   H497      1.0  0.04044  0.71138  0.20947  1.0000
  H   H498      1.0  0.19107  0.82524  0.06561  1.0000
  C   C497      1.0  0.43374  0.59220  0.13607  1.0000
  H   H499      1.0  0.01912  0.64738  0.20323  1.0000
  C   C498      1.0  0.21161  0.49822  0.09846  1.0000
  C   C499      1.0  0.42728  0.72757  0.14829  1.0000
  H   H500      1.0  0.09305  0.92350  0.00400  1.0000
  C   C500      1.0  0.14258  0.82440  0.18937  1.0000
  C   C501      1.0  0.23043  0.50856  0.09911  1.0000
  N   N47       1.0  0.43156  0.56097  0.15517  1.0000
  C   C502      1.0  0.16528  0.54184  0.00416  1.0000
  S   S173      1.0  0.15124  0.52177  0.08322  1.0000
  C   C503      1.0  0.48315  0.69263  0.15993  1.0000
  C   C504      1.0  0.45590  0.59383  0.13838  1.0000
  H   H501      1.0  0.03071  0.53108  0.02513  1.0000
  C   C505      1.0  0.20559  0.65363  0.23006  1.0000
  H   H502      1.0  0.06056  0.51983  0.04075  1.0000
  C   C506      1.0  0.13840  0.85796  0.21812  1.0000
  H   H503      1.0  0.35041  0.57534  0.22660  1.0000
  C   C507      1.0  0.09708  0.59028  0.19682  1.0000
  C   C508      1.0  0.43807  0.82946  0.22542  1.0000
  C   C509      1.0  0.45327  0.56249  0.15753  1.0000
  C   C510      1.0  0.01722  0.63534  0.21275  1.0000
  H   H504      1.0  0.46958  0.83734  0.22985  1.0000
  S   S174      1.0  0.44652  0.83580  0.20757  1.0000
  C   C511      1.0  0.14791  0.83810  0.19787  1.0000
  S   S175      1.0  0.18308  0.97462  0.02555  1.0000
  H   H505      1.0  0.46519  0.60706  0.13207  1.0000
  H   H506      1.0  0.05379  0.62964  0.21463  1.0000
  H   H507      1.0  0.46076  0.55145  0.16615  1.0000
  H   H508      1.0  0.05098  0.92202  0.00624  1.0000
  C   C512      1.0  0.48600  0.69042  0.19714  1.0000
  C   C513      1.0  0.45310  0.83166  0.23412  1.0000
  N   N48       1.0  0.01305  0.67550  0.23478  1.0000
  C   C514      1.0  0.10516  0.82310  0.20402  1.0000
  Fe  Fe84      1.0  0.12710  0.63116  0.21022  1.0000
  C   C515      1.0  0.11113  0.83675  0.21231  1.0000
  C   C516      1.0  0.03687  0.62559  0.21934  1.0000
  C   C517      1.0  0.08991  0.61979  0.17664  1.0000
  H   H509      1.0  0.21378  0.85655  0.01678  1.0000
  C   C518      1.0  0.12454  0.84303  0.00336  1.0000
  C   C519      1.0  0.12113  0.81670  0.19256  1.0000
  C   C520      1.0  0.37580  0.59819  0.22049  1.0000
  Fe  Fe85      1.0  0.09227  0.61266  0.23400  1.0000
  H   H510      1.0  0.15633  0.55021  0.10223  1.0000
  H   H511      1.0  0.17675  0.51183  0.12793  1.0000
  S   S176      1.0  0.09057  0.64634  0.21947  1.0000
  C   C521      1.0  0.44539  0.68402  0.20114  1.0000
  H   H512      1.0  0.42564  0.60408  0.12792  1.0000
  H   H513      1.0  0.42970  0.52746  0.16730  1.0000
  H   H514      1.0  0.08812  0.63680  0.18031  1.0000
  Fe  Fe86      1.0  0.10778  0.65759  0.23429  1.0000
  Fe  Fe87      1.0  0.18975  0.80906  0.22915  1.0000
  C   C522      1.0  0.41666  0.82221  0.23104  1.0000
  H   H515      1.0  0.19996  0.62353  0.22281  1.0000
  H   H516      1.0  0.14693  0.84134  0.05711  1.0000
  C   C523      1.0  0.01163  0.84446  0.00341  1.0000
  H   H517      1.0  0.03242  0.58209  0.20367  1.0000
  C   C524      1.0  0.19237  0.49908  0.10900  1.0000
  H   H518      1.0  0.14809  0.82828  0.04213  1.0000
  H   H519      1.0  0.16439  0.50596  0.01352  1.0000
  C   C525      1.0  0.21192  0.63078  0.22707  1.0000
  H   H520      1.0  0.15111  0.49598  0.99378  1.0000
  C   C526      1.0  0.03478  0.60975  0.23155  1.0000
  H   H521      1.0  0.03994  0.56826  0.98847  1.0000
  C   C527      1.0  0.35692  0.58947  0.22917  1.0000
  H   H522      1.0  0.24382  0.52879  0.11037  1.0000
  H   H523      1.0  0.22749  0.53183  0.13464  1.0000
  C   C528      1.0  0.04361  0.49300  0.05383  1.0000
  C   C529      1.0  0.12858  0.83753  0.99004  1.0000
  C   C530      1.0  0.02675  0.70209  0.21518  1.0000
  H   H524      1.0  0.49059  0.67444  0.16333  1.0000
  H   H525      1.0  0.27650  0.59647  0.23318  1.0000
  C   C531      1.0  0.00512  0.70566  0.21059  1.0000
  H   H526      1.0  0.00299  0.92444  0.03166  1.0000
  H   H527      1.0  0.01728  0.55356  0.98671  1.0000
  H   H528      1.0  0.01935  0.91861  0.99415  1.0000
  H   H529      1.0  0.23756  0.59887  0.22832  1.0000
  H   H530      1.0  0.09812  0.89213  0.00895  1.0000
  C   C532      1.0  0.09309  0.54952  0.99250  1.0000
  C   C533      1.0  0.48625  0.73347  0.15451  1.0000
  H   H531      1.0  0.08795  0.53398  0.99074  1.0000
  C   C534      1.0  0.03041  0.68693  0.22741  1.0000
  H   H532      1.0  0.11178  0.78568  0.23415  1.0000
  Fe  Fe88      1.0  0.09793  0.49880  0.05709  1.0000
  H   H533      1.0  0.43506  0.66966  0.20435  1.0000
  H   H534      1.0  0.44037  0.69527  0.20933  1.0000
  C   C535      1.0  0.19219  0.51042  0.12006  1.0000
  C   C536      1.0  0.37443  0.62539  0.23598  1.0000
  C   C537      1.0  0.22061  0.66233  0.23614  1.0000
  C   C538      1.0  0.10521  0.99150  0.03921  1.0000
  Fe  Fe89      1.0  0.18929  0.79883  0.25988  1.0000
  C   C539      1.0  0.46554  0.77556  0.42347  1.0000
  S   S177      1.0  0.20743  0.79919  0.27768  1.0000
  C   C540      1.0  0.44706  0.82616  0.24837  1.0000
  C   C541      1.0  0.36449  0.72126  0.24994  1.0000
  C   C542      1.0  0.41141  0.96504  0.32303  1.0000
  S   S178      1.0  0.15995  0.77861  0.26337  1.0000
  S   S179      1.0  0.47233  0.76706  0.46532  1.0000
  H   H535      1.0  0.05979  0.77501  0.26181  1.0000
  H   H536      1.0  0.37472  0.81349  0.43552  1.0000
  N   N49       1.0  0.39831  0.99094  0.34459  1.0000
  S   S180      1.0  0.10730  0.62503  0.24975  1.0000
  C   C543      1.0  0.25599  0.86770  0.28735  1.0000
  H   H537      1.0  0.03572  0.65070  0.24712  1.0000
  H   H538      1.0  0.48534  0.56457  0.39694  1.0000
  N   N50       1.0  0.44057  0.78603  0.42672  1.0000
  H   H539      1.0  0.37739  0.56678  0.25702  1.0000
  H   H540      1.0  0.07661  0.70051  0.26832  1.0000
  C   C544      1.0  0.45969  0.88110  0.46904  1.0000
  Fe  Fe90      1.0  0.32877  0.82373  0.28012  1.0000
  S   S181      1.0  0.35665  0.79249  0.27539  1.0000
  S   S182      1.0  0.30152  0.83915  0.26625  1.0000
  Fe  Fe91      1.0  0.34720  0.82813  0.30568  1.0000
  S   S183      1.0  0.37584  0.79668  0.30335  1.0000
  S   S184      1.0  0.34222  0.84658  0.32412  1.0000
  Fe  Fe92      1.0  0.38113  0.81194  0.28107  1.0000
  S   S185      1.0  0.41902  0.81210  0.27198  1.0000
  Fe  Fe93      1.0  0.34882  0.78008  0.29800  1.0000
  S   S186      1.0  0.34711  0.74261  0.30692  1.0000
  S   S187      1.0  0.35416  0.84472  0.28369  1.0000
  S   S188      1.0  0.31927  0.81000  0.30244  1.0000
  Fe  Fe94      1.0  0.30103  0.65470  0.27842  1.0000
  S   S189      1.0  0.27926  0.64374  0.29845  1.0000
  S   S190      1.0  0.30571  0.69171  0.26993  1.0000
  Fe  Fe95      1.0  0.30939  0.60645  0.27019  1.0000
  S   S191      1.0  0.28828  0.59118  0.28960  1.0000
  S   S192      1.0  0.32454  0.58641  0.25263  1.0000
  Fe  Fe96      1.0  0.26253  0.62540  0.28624  1.0000
  S   S193      1.0  0.22295  0.63382  0.28677  1.0000
  Fe  Fe97      1.0  0.30703  0.61073  0.30003  1.0000
  S   S194      1.0  0.32663  0.60066  0.31836  1.0000
  S   S195      1.0  0.28249  0.63883  0.26619  1.0000
  S   S196      1.0  0.32998  0.62341  0.28071  1.0000
  Fe  Fe98      1.0  0.44465  0.94399  0.36240  1.0000
  S   S197      1.0  0.45967  0.91619  0.37842  1.0000
  Fe  Fe99      1.0  0.42986  0.90853  0.34840  1.0000
  S   S198      1.0  0.44408  0.87779  0.36336  1.0000
  S   S199      1.0  0.41775  0.90583  0.32866  1.0000
  Fe  Fe100     1.0  0.42758  0.90116  0.37921  1.0000
  S   S200      1.0  0.40833  0.88794  0.39974  1.0000
  Fe  Fe101     1.0  0.47489  0.89553  0.36124  1.0000
  H   H541      1.0  0.21394  0.83449  0.29960  1.0000
  S   S201      1.0  0.41082  0.93092  0.36448  1.0000
  S   S202      1.0  0.46228  0.92440  0.34496  1.0000
  S   S203      1.0  0.47896  0.81977  0.43619  1.0000
  S   S204      1.0  0.40577  0.52771  0.37091  1.0000
  H   H542      1.0  0.01091  0.59155  0.24656  1.0000
  C   C545      1.0  0.38461  0.97586  0.34316  1.0000
  H   H543      1.0  0.30095  0.86221  0.30498  1.0000
  C   C546      1.0  0.46801  0.87173  0.45689  1.0000
  C   C547      1.0  0.36153  0.56521  0.39638  1.0000
  H   H544      1.0  0.44089  0.81181  0.40868  1.0000
  H   H545      1.0  0.45817  0.72153  0.48163  1.0000
  C   C548      1.0  0.37743  0.57092  0.26708  1.0000
  H   H546      1.0  0.39334  0.81264  0.24971  1.0000
  H   H547      1.0  0.23724  0.75738  0.26942  1.0000
  H   H548      1.0  0.40344  0.70330  0.46532  1.0000
  H   H549      1.0  0.03827  0.72185  0.26194  1.0000
  H   H550      1.0  0.44183  0.57482  0.40057  1.0000
  C   C549      1.0  0.42016  0.69832  0.46907  1.0000
  C   C550      1.0  0.39294  0.73274  0.27772  1.0000
  H   H551      1.0  0.37976  0.98884  0.45538  1.0000
  S   S205      1.0  0.42511  0.60349  0.46469  1.0000
  C   C551      1.0  0.36389  0.56651  0.29108  1.0000
  H   H552      1.0  0.39889  0.82966  0.41412  1.0000
  S   S206      1.0  0.45024  0.98125  0.36018  1.0000
  H   H553      1.0  0.41601  0.76933  0.25074  1.0000
  H   H554      1.0  0.35310  0.55883  0.30003  1.0000
  S   S207      1.0  0.17070  0.82899  0.24626  1.0000
  H   H555      1.0  0.02572  0.81665  0.24307  1.0000
  H   H556      1.0  0.35263  0.54006  0.26666  1.0000
  H   H557      1.0  0.45588  0.87110  0.45014  1.0000
  S   S208      1.0  0.45302  0.54858  0.46119  1.0000
  C   C552      1.0  0.41643  0.55444  0.43267  1.0000
  H   H558      1.0  0.37641  0.58728  0.30262  1.0000
  H   H559      1.0  0.46747  0.75983  0.41853  1.0000
  Fe  Fe102     1.0  0.43278  0.56841  0.47810  1.0000
  H   H560      1.0  0.13668  0.66654  0.24877  1.0000
  H   H561      1.0  0.40085  0.59543  0.25907  1.0000
  C   C553      1.0  0.39080  0.58715  0.26819  1.0000
  C   C554      1.0  0.42835  0.87034  0.41010  1.0000
  C   C555      1.0  0.45156  0.86204  0.40433  1.0000
  C   C556      1.0  0.46717  0.84703  0.41253  1.0000
  C   C557      1.0  0.45961  0.84018  0.42650  1.0000
  C   C558      1.0  0.43656  0.84889  0.43235  1.0000
  C   C559      1.0  0.42094  0.86393  0.42415  1.0000
  H   H562      1.0  0.45744  0.86685  0.39349  1.0000
  Fe  Fe103     1.0  0.14299  0.61246  0.23795  1.0000
  H   H563      1.0  0.43066  0.84398  0.44314  1.0000
  H   H564      1.0  0.40304  0.87045  0.42867  1.0000
  Fe  Fe104     1.0  0.43462  0.77079  0.47534  1.0000
  C   C560      1.0  0.40614  0.74937  0.27048  1.0000
  H   H565      1.0  0.12115  0.73993  0.27961  1.0000
  S   S209      1.0  0.42504  0.80856  0.46591  1.0000
  C   C561      1.0  0.37973  0.72325  0.27074  1.0000
  H   H566      1.0  0.39315  0.77919  0.45104  1.0000
  C   C562      1.0  0.33844  0.57252  0.32656  1.0000
  C   C563      1.0  0.35723  0.57031  0.33376  1.0000
  C   C564      1.0  0.36667  0.54851  0.34094  1.0000
  C   C565      1.0  0.35711  0.52876  0.34118  1.0000
  C   C566      1.0  0.33846  0.53089  0.33384  1.0000
  C   C567      1.0  0.32919  0.55267  0.32651  1.0000
  H   H567      1.0  0.36446  0.58558  0.33387  1.0000
  H   H568      1.0  0.38103  0.54712  0.34650  1.0000
  H   H569      1.0  0.33087  0.51570  0.33406  1.0000
  H   H570      1.0  0.31452  0.55423  0.32114  1.0000
  H   H571      1.0  0.03327  0.75319  0.25738  1.0000
  Fe  Fe105     1.0  0.17988  0.76284  0.24502  1.0000
  C   C568      1.0  0.34659  0.59893  0.24116  1.0000
  H   H572      1.0  0.47555  0.78833  0.41656  1.0000
  C   C569      1.0  0.40342  0.78637  0.44164  1.0000
  H   H573      1.0  0.22581  0.86325  0.27948  1.0000
  C   C570      1.0  0.48848  0.54136  0.35851  1.0000
  C   C571      1.0  0.42940  0.56792  0.42229  1.0000
  H   H574      1.0  0.21568  0.67999  0.23866  1.0000
  H   H575      1.0  0.34680  0.62519  0.25330  1.0000
  C   C572      1.0  0.36292  0.86345  0.32530  1.0000
  C   C573      1.0  0.37657  0.87322  0.31356  1.0000
  C   C574      1.0  0.39281  0.88669  0.31478  1.0000
  C   C575      1.0  0.39610  0.88989  0.32774  1.0000
  C   C576      1.0  0.38263  0.87993  0.33950  1.0000
  C   C577      1.0  0.36586  0.86703  0.33826  1.0000
  H   H576      1.0  0.37440  0.87067  0.30353  1.0000
  H   H577      1.0  0.40314  0.89435  0.30563  1.0000
  H   H578      1.0  0.38500  0.88230  0.34954  1.0000
  H   H579      1.0  0.35531  0.85956  0.34739  1.0000
  C   C578      1.0  0.33359  0.72897  0.29736  1.0000
  C   C579      1.0  0.33322  0.70496  0.30096  1.0000
  C   C580      1.0  0.32424  0.69339  0.29273  1.0000
  C   C581      1.0  0.31588  0.70584  0.28080  1.0000
  C   C582      1.0  0.31591  0.72991  0.27731  1.0000
  C   C583      1.0  0.32451  0.74152  0.28566  1.0000
  H   H580      1.0  0.34018  0.69521  0.31004  1.0000
  H   H581      1.0  0.32418  0.67479  0.29549  1.0000
  H   H582      1.0  0.30920  0.73963  0.26816  1.0000
  H   H583      1.0  0.32433  0.76012  0.28294  1.0000
  C   C584      1.0  0.42553  0.81932  0.25405  1.0000
  C   C585      1.0  0.39093  0.96272  0.33237  1.0000
  Fe  Fe106     1.0  0.45905  0.60936  0.46923  1.0000
  C   C586      1.0  0.45101  0.70870  0.47817  1.0000
  C   C587      1.0  0.43043  0.80439  0.41790  1.0000
  C   C588      1.0  0.24262  0.83566  0.30988  1.0000
  S   S210      1.0  0.39483  0.51297  0.41178  1.0000
  H   H584      1.0  0.26415  0.84615  0.25046  1.0000
  N   N51       1.0  0.34900  0.55624  0.38782  1.0000
  S   S211      1.0  0.21048  0.78072  0.24261  1.0000
  H   H585      1.0  0.45901  0.82746  0.25502  1.0000
  H   H586      1.0  0.39506  0.99062  0.36597  1.0000
  C   C589      1.0  0.18896  0.60487  0.25761  1.0000
  C   C590      1.0  0.17741  0.62506  0.26320  1.0000
  C   C591      1.0  0.18801  0.63384  0.27208  1.0000
  C   C592      1.0  0.21042  0.62277  0.27524  1.0000
  C   C593      1.0  0.22212  0.60278  0.26949  1.0000
  C   C594      1.0  0.21132  0.59374  0.26083  1.0000
  H   H587      1.0  0.16009  0.63358  0.26092  1.0000
  H   H588      1.0  0.17870  0.64917  0.27658  1.0000
  H   H589      1.0  0.23916  0.59384  0.27208  1.0000
  H   H590      1.0  0.22026  0.57797  0.25667  1.0000
  C   C595      1.0  0.23512  0.80762  0.27327  1.0000
  C   C596      1.0  0.23998  0.82393  0.26158  1.0000
  C   C597      1.0  0.26091  0.83282  0.25921  1.0000
  C   C598      1.0  0.27729  0.82508  0.26835  1.0000
  C   C599      1.0  0.27303  0.80775  0.27961  1.0000
  C   C600      1.0  0.25188  0.79922  0.28213  1.0000
  H   H591      1.0  0.22716  0.83045  0.25467  1.0000
  N   N52       1.0  0.37941  0.73036  0.25699  1.0000
  H   H592      1.0  0.28561  0.80148  0.28664  1.0000
  H   H593      1.0  0.24827  0.78649  0.29115  1.0000
  N   N53       1.0  0.26920  0.86097  0.29774  1.0000
  H   H594      1.0  0.36942  0.71044  0.27647  1.0000
  H   H595      1.0  0.47999  0.59134  0.40425  1.0000
  N   N54       1.0  0.06607  0.73773  0.26458  1.0000
  C   C601      1.0  0.39310  0.80553  0.43292  1.0000
  H   H596      1.0  0.46301  0.86798  0.29212  1.0000
  C   C602      1.0  0.23572  0.85860  0.28799  1.0000
  C   C603      1.0  0.22909  0.84239  0.29930  1.0000
  C   C604      1.0  0.42217  0.54681  0.40543  1.0000
  H   H597      1.0  0.35482  0.58418  0.39680  1.0000
  S   S212      1.0  0.48115  0.59298  0.45153  1.0000
  N   N55       1.0  0.21807  0.70603  0.28022  1.0000
  C   C605      1.0  0.21904  0.72822  0.27338  1.0000
  C   C606      1.0  0.23448  0.69472  0.28841  1.0000
  C   C607      1.0  0.23644  0.73985  0.27491  1.0000
  C   C608      1.0  0.25197  0.70596  0.29028  1.0000
  C   C609      1.0  0.25285  0.72870  0.28351  1.0000
  C   C610      1.0  0.20018  0.69379  0.27818  1.0000
  H   H598      1.0  0.20636  0.73707  0.26669  1.0000
  H   H599      1.0  0.23412  0.67686  0.29349  1.0000
  C   C611      1.0  0.06024  0.81918  0.24657  1.0000
  H   H600      1.0  0.26515  0.69696  0.29667  1.0000
  C   C612      1.0  0.46320  0.68539  0.47881  1.0000
  H   H601      1.0  0.20714  0.68382  0.26945  1.0000
  H   H602      1.0  0.19528  0.68124  0.28748  1.0000
  H   H603      1.0  0.18384  0.70630  0.27592  1.0000
  C   C613      1.0  0.34760  0.53297  0.39022  1.0000
  C   C614      1.0  0.33654  0.52390  0.38184  1.0000
  C   C615      1.0  0.32676  0.53879  0.37102  1.0000
  H   H604      1.0  0.35537  0.52120  0.39852  1.0000
  Fe  Fe107     1.0  0.40891  0.50338  0.39080  1.0000
  C   C616      1.0  0.15822  0.69170  0.24858  1.0000
  H   H605      1.0  0.31861  0.53181  0.36426  1.0000
  H   H606      1.0  0.28500  0.88997  0.29773  1.0000
  Fe  Fe108     1.0  0.44783  0.58409  0.44816  1.0000
  H   H607      1.0  0.48501  0.84044  0.40795  1.0000
  H   H608      1.0  0.45994  0.86832  0.31717  1.0000
  H   H609      1.0  0.32178  0.57387  0.35977  1.0000
  C   C617      1.0  0.43640  0.84358  0.32291  1.0000
  S   S213      1.0  0.10406  0.82226  0.25107  1.0000
  C   C618      1.0  0.08009  0.71730  0.26941  1.0000
  H   H610      1.0  0.44071  0.84311  0.28414  1.0000
  H   H611      1.0  0.41584  0.81935  0.30108  1.0000
  H   H612      1.0  0.17305  0.67855  0.25150  1.0000
  C   C619      1.0  0.40869  0.81633  0.32833  1.0000
  H   H613      1.0  0.39545  0.52744  0.43740  1.0000
  H   H614      1.0  0.38054  0.95013  0.33150  1.0000
  H   H615      1.0  0.33058  0.55270  0.27946  1.0000
  C   C620      1.0  0.42556  0.82996  0.30469  1.0000
  H   H616      1.0  0.33615  0.50530  0.38345  1.0000
  H   H617      1.0  0.35317  0.52800  0.28449  1.0000
  H   H618      1.0  0.27319  0.83985  0.31720  1.0000
  C   C621      1.0  0.39207  0.74688  0.24987  1.0000
  C   C622      1.0  0.40880  0.53364  0.41578  1.0000
  Fe  Fe109     1.0  0.48436  0.55929  0.46609  1.0000
  H   H619      1.0  0.47379  0.77051  0.43295  1.0000
  C   C623      1.0  0.35501  0.61730  0.24434  1.0000
  H   H620      1.0  0.34199  0.58905  0.37472  1.0000
  S   S214      1.0  0.47020  0.63946  0.47561  1.0000
  H   H621      1.0  0.01264  0.67057  0.25625  1.0000
  H   H622      1.0  0.23785  0.82273  0.31859  1.0000
  C   C624      1.0  0.04701  0.73695  0.25726  1.0000
  C   C625      1.0  0.10539  0.73928  0.27571  1.0000
  H   H623      1.0  0.47973  0.68049  0.48276  1.0000
  H   H624      1.0  0.25326  0.65478  0.24403  1.0000
  H   H625      1.0  0.38064  0.56251  0.39221  1.0000
  S   S215      1.0  0.17630  0.59315  0.24641  1.0000
  C   C626      1.0  0.43252  0.67497  0.46956  1.0000
  C   C627      1.0  0.09073  0.76002  0.27101  1.0000
  C   C628      1.0  0.45071  0.85725  0.31354  1.0000
  C   C629      1.0  0.34950  0.54452  0.27721  1.0000
  H   H626      1.0  0.35939  0.55588  0.40712  1.0000
  S   S216      1.0  0.05956  0.59638  0.23967  1.0000
  S   S217      1.0  0.47266  0.81644  0.47549  1.0000
  C   C630      1.0  0.24186  0.64798  0.23913  1.0000
  H   H627      1.0  0.39205  0.81688  0.32448  1.0000
  H   H628      1.0  0.30169  0.86911  0.28676  1.0000
  Fe  Fe110     1.0  0.39623  0.49777  0.36379  1.0000
  H   H629      1.0  0.41408  0.55737  0.44319  1.0000
  C   C631      1.0  0.29021  0.87106  0.29680  1.0000
  H   H630      1.0  0.41616  0.75724  0.27577  1.0000
  C   C632      1.0  0.49198  0.86220  0.45376  1.0000
  H   H631      1.0  0.39246  0.72759  0.28872  1.0000
  Fe  Fe111     1.0  0.14320  0.80690  0.24800  1.0000
  H   H632      1.0  0.26163  0.87949  0.27823  1.0000
  C   C633      1.0  0.41012  0.81768  0.24538  1.0000
  C   C634      1.0  0.32858  0.56240  0.36850  1.0000
  H   H633      1.0  0.09491  0.77693  0.27128  1.0000
  H   H634      1.0  0.41805  0.79784  0.33016  1.0000
  H   H635      1.0  0.48100  0.55022  0.42334  1.0000
  C   C635      1.0  0.42731  0.77672  0.43833  1.0000
  H   H636      1.0  0.42536  0.66207  0.46616  1.0000
  C   C636      1.0  0.09993  0.71774  0.27505  1.0000
  H   H637      1.0  0.42357  0.97070  0.38745  1.0000
  H   H638      1.0  0.26644  0.73754  0.28475  1.0000
  C   C637      1.0  0.45409  0.66848  0.47446  1.0000
  C   C638      1.0  0.45226  0.85720  0.29951  1.0000
  N   N56       1.0  0.36417  0.56088  0.27845  1.0000
  S   S218      1.0  0.18602  0.72380  0.24673  1.0000
  Fe  Fe112     1.0  0.46337  0.80544  0.45751  1.0000
  C   C639      1.0  0.37713  0.58256  0.29259  1.0000
  C   C640      1.0  0.39061  0.59299  0.28104  1.0000
  H   H639      1.0  0.11153  0.70148  0.27832  1.0000
  H   H640      1.0  0.39141  0.75295  0.23904  1.0000
  S   S219      1.0  0.36667  0.50175  0.35141  1.0000
  C   C641      1.0  0.13769  0.68491  0.24702  1.0000
  C   C642      1.0  0.42944  0.71527  0.47332  1.0000
  C   C643      1.0  0.43971  0.84337  0.29503  1.0000
  S   S220      1.0  0.41388  0.74450  0.47252  1.0000
  H   H641      1.0  0.42454  0.54387  0.39491  1.0000
  H   H642      1.0  0.43523  0.76194  0.44523  1.0000
  S   S221      1.0  0.46894  0.53071  0.35118  1.0000
  C   C644      1.0  0.40586  0.53754  0.42938  1.0000
  H   H643      1.0  0.43486  0.84424  0.33378  1.0000
  H   H644      1.0  0.40337  0.82324  0.33825  1.0000
  C   C645      1.0  0.43208  0.56423  0.40866  1.0000
  C   C646      1.0  0.40660  0.81452  0.42091  1.0000
  C   C647      1.0  0.07096  0.75887  0.26554  1.0000
  C   C648      1.0  0.26266  0.84531  0.30898  1.0000
  H   H645      1.0  0.41685  0.95437  0.31487  1.0000
  Fe  Fe113     1.0  0.44316  0.51006  0.36468  1.0000
  H   H646      1.0  0.37398  0.71730  0.23970  1.0000
  H   H647      1.0  0.38112  0.63934  0.23862  1.0000
  S   S222      1.0  0.44259  0.58931  0.42615  1.0000
  C   C649      1.0  0.40589  0.75635  0.25645  1.0000
  H   H648      1.0  0.05436  0.73528  0.24635  1.0000
  N   N57       1.0  0.42373  0.83049  0.31842  1.0000
  C   C650      1.0  0.34007  0.57083  0.37697  1.0000
  H   H649      1.0  0.40059  0.60581  0.28205  1.0000
  C   C651      1.0  0.08462  0.81039  0.24417  1.0000
  C   C652      1.0  0.01705  0.66008  0.24771  1.0000
  H   H650      1.0  0.48580  0.95643  0.38243  1.0000
  H   H651      1.0  0.36911  0.97336  0.35066  1.0000
  C   C653      1.0  0.04447  0.80990  0.24113  1.0000
  C   C654      1.0  0.01269  0.60390  0.23715  1.0000
  H   H652      1.0  0.05350  0.83309  0.25272  1.0000
  C   C655      1.0  0.42522  0.98050  0.32452  1.0000
  C   C656      1.0  0.15957  0.71546  0.24622  1.0000
  C   C657      1.0  0.27019  0.61077  0.23952  1.0000
  H   H653      1.0  0.35922  0.70480  0.25586  1.0000
  H   H654      1.0  0.49090  0.57005  0.34188  1.0000
  C   C658      1.0  0.11942  0.72562  0.24152  1.0000
  H   H655      1.0  0.14057  0.75077  0.24177  1.0000
  H   H656      1.0  0.44099  0.88770  0.47187  1.0000
  C   C659      1.0  0.47546  0.88136  0.47773  1.0000
  H   H657      1.0  0.10447  0.73867  0.23875  1.0000
  H   H658      1.0  0.26768  0.60274  0.25050  1.0000
  H   H659      1.0  0.00606  0.64633  0.25003  1.0000
  C   C660      1.0  0.13990  0.73243  0.24315  1.0000
  H   H660      1.0  0.34818  0.73445  0.24854  1.0000
  C   C661      1.0  0.49384  0.57735  0.40006  1.0000
  H   H661      1.0  0.49027  0.51434  0.37622  1.0000
  C   C662      1.0  0.42869  0.98750  0.38652  1.0000
  Fe  Fe114     1.0  0.47781  0.77831  0.48433  1.0000
  C   C663      1.0  0.11855  0.70186  0.24313  1.0000
  H   H662      1.0  0.28449  0.62108  0.23776  1.0000
  H   H663      1.0  0.44150  0.98198  0.31752  1.0000
  Fe  Fe115     1.0  0.43488  0.81721  0.48468  1.0000
  S   S223      1.0  0.46461  0.57605  0.48409  1.0000
  S   S224      1.0  0.09379  0.69315  0.24010  1.0000
  C   C664      1.0  0.37963  0.93164  0.55890  1.0000
  C   C665      1.0  0.39462  0.52930  0.51882  1.0000
  C   C666      1.0  0.46187  0.57449  0.52065  1.0000
  Fe  Fe116     1.0  0.47542  0.98141  0.52276  1.0000
  H   H664      1.0  0.44280  0.90766  0.58017  1.0000
  Fe  Fe117     1.0  0.43131  0.97883  0.54404  1.0000
  Fe  Fe118     1.0  0.45196  0.93868  0.52726  1.0000
  C   C667      1.0  0.42310  0.58771  0.51431  1.0000
  H   H665      1.0  0.36236  0.94282  0.55895  1.0000
  N   N58       1.0  0.42886  0.60882  0.50811  1.0000
  C   C668      1.0  0.46721  0.59650  0.51490  1.0000
  C   C669      1.0  0.41171  0.62654  0.50106  1.0000
  S   S225      1.0  0.44057  0.77956  0.49514  1.0000
  C   C670      1.0  0.43326  0.92467  0.57538  1.0000
  S   S226      1.0  0.46360  0.96300  0.50858  1.0000
  H   H666      1.0  0.46916  0.88849  0.48724  1.0000
  H   H667      1.0  0.49096  0.80662  0.50190  1.0000
  S   S227      1.0  0.41448  0.85033  0.49269  1.0000
  C   C671      1.0  0.42669  0.51191  0.50272  1.0000
  C   C672      1.0  0.40952  0.90086  0.55003  1.0000
  C   C673      1.0  0.39762  0.50860  0.52826  1.0000
  S   S228      1.0  0.41558  0.96002  0.53157  1.0000
  C   C674      1.0  0.39502  0.93471  0.56716  1.0000
  C   C675      1.0  0.38696  0.91454  0.55031  1.0000
  C   C676      1.0  0.43961  0.57008  0.52046  1.0000
  H   H668      1.0  0.44228  0.89426  0.55774  1.0000
  H   H669      1.0  0.48447  0.60016  0.51491  1.0000
  S   S229      1.0  0.46257  0.89940  0.52792  1.0000
  C   C677      1.0  0.42450  0.90450  0.55836  1.0000
  H   H670      1.0  0.42067  0.63841  0.49277  1.0000
  H   H671      1.0  0.40584  0.58416  0.51418  1.0000
  C   C678      1.0  0.42826  0.86385  0.50232  1.0000
  C   C679      1.0  0.44795  0.85164  0.50823  1.0000
  C   C680      1.0  0.45842  0.86273  0.51603  1.0000
  C   C681      1.0  0.44953  0.88621  0.51773  1.0000
  C   C682      1.0  0.43006  0.89857  0.51163  1.0000
  C   C683      1.0  0.41934  0.88733  0.50406  1.0000
  H   H672      1.0  0.45478  0.83350  0.50702  1.0000
  H   H673      1.0  0.42308  0.91669  0.51288  1.0000
  S   S230      1.0  0.40395  0.55766  0.49465  1.0000
  C   C684      1.0  0.40910  0.53111  0.50605  1.0000
  H   H674      1.0  0.38937  0.94841  0.57357  1.0000
  S   S231      1.0  0.46691  0.95509  0.54116  1.0000
  H   H675      1.0  0.41566  0.88791  0.54315  1.0000
  C   C685      1.0  0.45030  0.61363  0.50873  1.0000
  H   H676      1.0  0.44623  0.93491  0.56894  1.0000
  N   N59       1.0  0.41705  0.92103  0.56692  1.0000
  H   H677      1.0  0.40118  0.61807  0.49603  1.0000
  H   H678      1.0  0.47339  0.85302  0.52078  1.0000
  H   H679      1.0  0.38094  0.54397  0.52144  1.0000
  H   H680      1.0  0.42381  0.93480  0.58373  1.0000
  H   H681      1.0  0.47500  0.56082  0.52514  1.0000
  H   H682      1.0  0.43524  0.55298  0.52475  1.0000
  H   H683      1.0  0.37543  0.91222  0.54364  1.0000
  Fe  Fe119     1.0  0.42851  0.98584  0.51374  1.0000
  H   H684      1.0  0.43790  0.51317  0.49284  1.0000
  H   H685      1.0  0.40411  0.89686  0.49949  1.0000
  H   H686      1.0  0.39969  0.63716  0.50848  1.0000
  H   H687      1.0  0.45465  0.63060  0.50414  1.0000
  H   H688      1.0  0.38635  0.50754  0.53813  1.0000
  S   S232      1.0  0.41800  0.98374  0.56628  1.0000
  H   H689      1.0  0.12578  0.98626  0.70526  1.0000
  Fe  Fe120     1.0  0.08415  0.84972  0.94194  1.0000
  S   S233      1.0  0.10680  0.83259  0.92465  1.0000
  S   S234      1.0  0.05030  0.87568  0.94122  1.0000
  Fe  Fe121     1.0  0.11392  0.82229  0.96284  1.0000
  S   S235      1.0  0.13977  0.80223  0.94756  1.0000
  C   C686      1.0  0.03562  0.59855  0.96632  1.0000
  Fe  Fe122     1.0  0.13668  0.83746  0.93391  1.0000
  S   S236      1.0  0.16823  0.84870  0.92003  1.0000
  Fe  Fe123     1.0  0.10789  0.79872  0.93936  1.0000
  S   S237      1.0  0.09966  0.76910  0.93068  1.0000
  S   S238      1.0  0.11391  0.85757  0.94994  1.0000
  S   S239      1.0  0.08239  0.81568  0.95583  1.0000
  Fe  Fe124     1.0  0.09948  0.59446  0.94855  1.0000
  S   S240      1.0  0.13634  0.59592  0.93786  1.0000
  S   S241      1.0  0.09029  0.56574  0.96557  1.0000
  Fe  Fe125     1.0  0.07797  0.63434  0.92821  1.0000
  S   S242      1.0  0.11276  0.63885  0.91564  1.0000
  S   S243      1.0  0.04420  0.65748  0.92326  1.0000
  Fe  Fe126     1.0  0.12095  0.59929  0.91856  1.0000
  S   S244      1.0  0.13539  0.57909  0.90074  1.0000
  Fe  Fe127     1.0  0.12434  0.63533  0.93611  1.0000
  S   S245      1.0  0.14401  0.66030  0.94170  1.0000
  S   S246      1.0  0.08488  0.59535  0.92945  1.0000
  S   S247      1.0  0.08871  0.63321  0.94854  1.0000
  C   C687      1.0  0.07301  0.53286  0.90843  1.0000
  S   S248      1.0  0.17095  0.95554  0.89543  1.0000
  C   C688      1.0  0.13432  0.54892  0.90370  1.0000
  C   C689      1.0  0.13685  0.51278  0.89458  1.0000
  C   C690      1.0  0.13907  0.53648  0.89255  1.0000
  H   H690      1.0  0.14039  0.50337  0.88593  1.0000
  H   H691      1.0  0.14429  0.54525  0.88231  1.0000
  H   H692      1.0  0.02005  0.79711  0.93100  1.0000
  H   H693      1.0  0.03116  0.93442  0.86731  1.0000
  H   H694      1.0  0.04689  0.60204  0.97277  1.0000
  C   C691      1.0  0.03158  0.64498  0.91271  1.0000
  C   C692      1.0  0.04472  0.62655  0.90593  1.0000
  C   C693      1.0  0.03350  0.61458  0.89910  1.0000
  H   H695      1.0  0.14409  0.78617  0.88933  1.0000
  H   H696      1.0  0.04610  0.79441  0.91814  1.0000
  H   H697      1.0  0.06343  0.62136  0.90612  1.0000
  H   H698      1.0  0.04338  0.59989  0.89421  1.0000
  C   C694      1.0  0.16750  0.87877  0.91352  1.0000
  C   C695      1.0  0.14692  0.89594  0.91515  1.0000
  C   C696      1.0  0.14744  0.91971  0.90958  1.0000
  C   C697      1.0  0.16859  0.92624  0.90251  1.0000
  C   C698      1.0  0.18895  0.90899  0.90096  1.0000
  C   C699      1.0  0.18839  0.88545  0.90635  1.0000
  H   H699      1.0  0.13069  0.89092  0.92067  1.0000
  H   H700      1.0  0.13164  0.93293  0.91087  1.0000
  H   H701      1.0  0.20535  0.91384  0.89557  1.0000
  H   H702      1.0  0.20433  0.87236  0.90505  1.0000
  C   C700      1.0  0.11171  0.73890  0.93448  1.0000
  C   C701      1.0  0.10531  0.72315  0.92767  1.0000
  C   C702      1.0  0.11466  0.69902  0.93011  1.0000
  C   C703      1.0  0.13111  0.69045  0.93908  1.0000
  C   C704      1.0  0.13785  0.70625  0.94575  1.0000
  C   C705      1.0  0.12797  0.73039  0.94358  1.0000
  H   H703      1.0  0.09323  0.72961  0.92034  1.0000
  H   H704      1.0  0.10953  0.68709  0.92481  1.0000
  H   H705      1.0  0.15056  0.69972  0.95272  1.0000
  H   H706      1.0  0.13310  0.74237  0.94886  1.0000
  C   C706      1.0  0.03570  0.86535  0.93073  1.0000
  C   C707      1.0  0.04793  0.85894  0.91824  1.0000
  C   C708      1.0  0.03723  0.84860  0.91031  1.0000
  C   C709      1.0  0.01438  0.84441  0.91492  1.0000
  H   H707      1.0  0.08167  0.50697  0.87995  1.0000
  H   H708      1.0  0.07868  0.92113  0.90210  1.0000
  H   H709      1.0  0.06570  0.86192  0.91469  1.0000
  H   H710      1.0  0.04689  0.84328  0.90075  1.0000
  H   H711      1.0  0.09054  0.54604  0.86916  1.0000
  C   C710      1.0  0.12623  0.51357  0.91899  1.0000
  H   H712      1.0  0.12425  0.54678  0.92559  1.0000
  H   H713      1.0  0.00302  0.86704  0.94479  1.0000
  C   C711      1.0  0.02959  0.84332  0.97592  1.0000
  H   H714      1.0  0.07756  0.56791  0.90837  1.0000
  H   H715      1.0  0.07139  0.88306  0.96502  1.0000
  N   N60       1.0  0.03258  0.76315  0.92542  1.0000
  Fe  Fe128     1.0  0.13946  0.98501  0.89479  1.0000
  H   H716      1.0  0.07852  0.59100  0.87413  1.0000
  C   C712      1.0  0.04402  0.74228  0.93165  1.0000
  C   C713      1.0  0.14640  0.84589  0.98031  1.0000
  C   C714      1.0  0.01247  0.86212  0.93510  1.0000
  C   C715      1.0  0.03985  0.72097  0.92939  1.0000
  N   N61       1.0  0.02713  0.57807  0.96919  1.0000
  C   C716      1.0  0.06058  0.92645  0.90762  1.0000
  H   H717      1.0  0.00825  0.77997  0.91171  1.0000
  C   C717      1.0  0.01221  0.74255  0.91450  1.0000
  C   C718      1.0  0.02294  0.91582  0.90658  1.0000
  H   H718      1.0  0.12132  0.50476  0.92927  1.0000
  C   C719      1.0  0.15987  0.75322  0.91461  1.0000
  C   C720      1.0  0.07801  0.55479  0.90206  1.0000
  C   C721      1.0  0.00866  0.92046  0.88506  1.0000
  H   H719      1.0  0.15703  0.59522  0.98482  1.0000
  H   H720      1.0  0.10272  0.60320  0.97604  1.0000
  S   S249      1.0  0.10358  0.98573  0.90712  1.0000
  C   C722      1.0  0.17699  0.74614  0.92325  1.0000
  H   H721      1.0  0.12376  0.80017  0.90269  1.0000
  C   C723      1.0  0.03698  0.78545  0.92775  1.0000
  C   C724      1.0  0.08437  0.89333  0.98131  1.0000
  N   N62       1.0  0.08435  0.55927  0.88812  1.0000
  H   H722      1.0  0.06138  0.93736  0.88065  1.0000
  H   H723      1.0  0.04814  0.78299  0.93586  1.0000
  S   S250      1.0  0.06207  0.98531  0.88339  1.0000
  C   C725      1.0  0.01647  0.61044  0.94626  1.0000
  H   H724      1.0  0.03683  0.63141  0.95261  1.0000
  H   H725      1.0  0.10911  0.57916  0.87615  1.0000
  H   H726      1.0  0.15117  0.74014  0.91255  1.0000
  C   C726      1.0  0.01711  0.76346  0.91679  1.0000
  C   C727      1.0  0.02367  0.72120  0.92085  1.0000
  C   C728      1.0  0.00918  0.62089  0.89919  1.0000
  H   H727      1.0  0.03666  0.84306  0.96515  1.0000
  H   H728      1.0  0.18425  0.96187  0.86618  1.0000
  H   H729      1.0  0.00721  0.55698  0.96284  1.0000
  H   H730      1.0  0.05811  0.94514  0.90894  1.0000
  C   C729      1.0  0.02893  0.92873  0.87832  1.0000
  H   H731      1.0  0.04910  0.70437  0.93420  1.0000
  C   C730      1.0  0.00752  0.65211  0.91211  1.0000
  C   C731      1.0  0.06684  0.89148  0.97413  1.0000
  C   C732      1.0  0.09061  0.58189  0.88153  1.0000
  H   H732      1.0  0.17437  0.86560  0.97643  1.0000
  H   H733      1.0  0.10260  0.88585  0.97777  1.0000
  H   H734      1.0  0.02027  0.91102  0.91765  1.0000
  C   C733      1.0  0.08540  0.54250  0.88020  1.0000
  H   H735      1.0  0.05656  0.74200  0.93835  1.0000
  H   H736      1.0  0.06341  0.83768  0.98229  1.0000
  C   C734      1.0  0.08044  0.52040  0.88622  1.0000
  C   C735      1.0  0.15089  0.53057  0.98193  1.0000
  H   H737      1.0  0.02002  0.70486  0.91913  1.0000
  H   H738      1.0  0.18126  0.72788  0.92784  1.0000
  C   C736      1.0  0.13042  0.50128  0.90782  1.0000
  H   H739      1.0  0.16769  0.97804  0.85288  1.0000
  N   N63       1.0  0.04290  0.92372  0.89985  1.0000
  C   C737      1.0  0.12788  0.53737  0.91693  1.0000
  C   C738      1.0  0.09502  0.56835  0.98184  1.0000
  C   C739      1.0  0.07442  0.51553  0.90045  1.0000
  H   H740      1.0  0.01846  0.97689  0.87899  1.0000
  C   C740      1.0  0.03022  0.61512  0.95489  1.0000
  H   H741      1.0  0.19724  0.96169  0.84860  1.0000
  H   H742      1.0  0.05939  0.91533  0.91790  1.0000
  N   N64       1.0  0.15365  0.77635  0.90922  1.0000
  C   C741      1.0  0.16478  0.79275  0.91177  1.0000
  C   C742      1.0  0.18217  0.78625  0.92024  1.0000
  C   C743      1.0  0.18812  0.76282  0.92611  1.0000
  C   C744      1.0  0.13563  0.78359  0.90022  1.0000
  H   H743      1.0  0.16005  0.81109  0.90741  1.0000
  H   H744      1.0  0.19060  0.79945  0.92243  1.0000
  H   H745      1.0  0.20121  0.75766  0.93293  1.0000
  H   H746      1.0  0.12417  0.77035  0.90172  1.0000
  H   H747      1.0  0.14461  0.52666  0.97330  1.0000
  H   H748      1.0  0.14976  0.84155  0.97004  1.0000
  C   C745      1.0  0.04594  0.93033  0.88592  1.0000
  C   C746      1.0  0.04332  0.90068  0.97871  1.0000
  H   H749      1.0  0.06884  0.52912  0.91951  1.0000
  S   S251      1.0  0.00260  0.82899  0.90556  1.0000
  S   S252      1.0  0.11102  0.82049  0.98565  1.0000
  H   H750      1.0  0.08968  0.59365  0.88914  1.0000
  C   C747      1.0  0.01384  0.57326  0.96067  1.0000
  C   C748      1.0  0.00564  0.91384  0.89928  1.0000
  C   C749      1.0  0.18555  0.97286  0.85586  1.0000
  C   C750      1.0  0.10141  0.58849  0.98420  1.0000
  H   H751      1.0  0.01211  0.62311  0.93739  1.0000
  H   H752      1.0  0.02959  0.89942  0.97318  1.0000
  H   H753      1.0  0.15164  0.56640  0.97298  1.0000
  C   C751      1.0  0.15482  0.55312  0.98183  1.0000
  C   C752      1.0  0.00533  0.84673  0.98013  1.0000
  C   C753      1.0  0.00843  0.58931  0.94904  1.0000
  C   C754      1.0  0.04454  0.84033  0.98565  1.0000
  C   C755      1.0  0.00186  0.85140  0.92724  1.0000
  H   H754      1.0  0.99792  0.58546  0.94227  1.0000
  H   H755      1.0  0.99948  0.74295  0.90790  1.0000
  C   C756      1.0  0.16038  0.85943  0.98396  1.0000
  H   H756      1.0  0.99732  0.66628  0.91738  1.0000
  C   C757      1.0  0.03305  0.56063  0.98110  1.0000
  H   H757      1.0  0.04697  0.54601  0.97762  1.0000
  H   H758      1.0  0.07140  0.49819  0.90530  1.0000
  N   N65       1.0  0.95431  0.32286  0.02929  1.0000
  H   H759      1.0  0.92070  0.34464  0.03395  1.0000
  C   C758      1.0  0.94490  0.30763  0.02264  1.0000
  H   H760      1.0  0.95546  0.01131  0.00849  1.0000
  C   C759      1.0  0.92886  0.03040  0.99631  1.0000
  C   C760      1.0  0.92905  0.07208  0.02229  1.0000
  C   C761      1.0  0.93213  0.09509  0.01731  1.0000
  H   H761      1.0  0.94804  0.48120  0.08031  1.0000
  H   H762      1.0  0.87958  0.07373  0.00927  1.0000
  C   C762      1.0  0.87951  0.43937  0.99190  1.0000
  H   H763      1.0  0.95909  0.29671  0.01630  1.0000
  C   C763      1.0  0.89294  0.01499  0.00034  1.0000
  C   C764      1.0  0.93814  0.01209  0.00608  1.0000
  S   S253      1.0  0.94848  0.47958  0.01452  1.0000
  H   H764      1.0  0.87526  0.01631  0.99832  1.0000
  H   H765      1.0  0.94167  0.06003  0.02810  1.0000
  H   H766      1.0  0.93517  0.29584  0.03051  1.0000
  H   H767      1.0  0.93615  0.37138  0.04467  1.0000
  C   C765      1.0  0.90252  0.99624  0.00976  1.0000
  Fe  Fe129     1.0  0.93955  0.45120  0.03158  1.0000
  S   S254      1.0  0.95611  0.41469  0.02686  1.0000
  H   H768      1.0  0.89000  0.13179  0.99092  1.0000
  H   H769      1.0  0.98339  0.31827  0.99528  1.0000
  S   S255      1.0  0.95128  0.46681  0.04726  1.0000
  C   C766      1.0  0.90597  0.03226  0.99370  1.0000
  C   C767      1.0  0.88149  0.11783  0.99777  1.0000
  H   H770      1.0  0.93590  0.19608  0.99192  1.0000
  C   C768      1.0  0.97201  0.35288  0.04112  1.0000
  C   C769      1.0  0.89416  0.07996  0.01163  1.0000
  H   H771      1.0  0.93913  0.04351  0.99120  1.0000
  S   S256      1.0  0.90153  0.46815  0.03666  1.0000
  C   C770      1.0  0.92185  0.37414  0.00415  1.0000
  C   C771      1.0  0.94633  0.37191  0.00225  1.0000
  C   C772      1.0  0.95656  0.38537  0.00874  1.0000
  C   C773      1.0  0.94247  0.40123  0.01711  1.0000
  C   C774      1.0  0.91796  0.40391  0.01876  1.0000
  C   C775      1.0  0.90772  0.39021  0.01241  1.0000
  C   C776      1.0  0.93932  0.34119  0.03472  1.0000
  H   H772      1.0  0.97552  0.38327  0.00752  1.0000
  H   H773      1.0  0.90693  0.41587  0.02534  1.0000
  H   H774      1.0  0.88875  0.39198  0.01400  1.0000
  H   H775      1.0  0.90732  0.04660  0.02328  1.0000
  H   H776      1.0  0.93270  0.31836  0.01563  1.0000
  C   C777      1.0  0.94791  0.35633  0.04082  1.0000
  S   S257      1.0  0.90826  0.35722  0.99642  1.0000
  C   C778      1.0  0.90976  0.06454  0.01961  1.0000
  H   H777      1.0  0.95744  0.35954  0.99600  1.0000
  H   H778      1.0  0.92078  0.46952  0.99477  1.0000
  H   H779      1.0  0.87820  0.46911  0.00184  1.0000
  H   H780      1.0  0.97899  0.36529  0.04515  1.0000
  S   S258      1.0  0.93855  0.29315  0.98749  1.0000
  C   C779      1.0  0.91600  0.11012  0.00950  1.0000
  H   H781      1.0  0.95860  0.48936  0.09412  1.0000
  C   C780      1.0  0.88921  0.45617  0.99580  1.0000
  H   H782      1.0  0.94714  0.10115  0.01923  1.0000
  C   C781      1.0  0.97779  0.31857  0.03024  1.0000
  H   H783      1.0  0.91867  0.12789  0.00554  1.0000
  N   N66       1.0  0.89773  0.10223  0.00642  1.0000
  H   H784      1.0  0.86564  0.12622  0.00427  1.0000
  H   H785      1.0  0.99251  0.47951  0.04954  1.0000
  C   C782      1.0  0.98708  0.33378  0.03590  1.0000
  C   C783      1.0  0.91319  0.45636  0.99187  1.0000
  H   H786      1.0  0.86089  0.43901  0.99497  1.0000
  S   S259      1.0  0.89899  0.49015  0.07314  1.0000
  Fe  Fe130     1.0  0.91396  0.48679  0.05084  1.0000
  H   H787      1.0  0.87601  0.10784  0.99096  1.0000
  H   H788      1.0  0.98969  0.30380  0.02617  1.0000
  C   C784      1.0  0.92497  0.99500  0.01286  1.0000
  Fe  Fe131     1.0  0.60516  0.09243  0.45223  1.0000
  S   S260      1.0  0.64431  0.08933  0.44807  1.0000
  S   S261      1.0  0.58740  0.07270  0.47124  1.0000
  Fe  Fe132     1.0  0.59875  0.12326  0.42502  1.0000
  S   S262      1.0  0.63753  0.12251  0.41856  1.0000
  S   S263      1.0  0.57354  0.14305  0.41077  1.0000
  Fe  Fe133     1.0  0.64135  0.08387  0.42698  1.0000
  S   S264      1.0  0.66627  0.05473  0.41674  1.0000
  Fe  Fe134     1.0  0.63635  0.12805  0.44021  1.0000
  S   S265      1.0  0.65275  0.15351  0.44769  1.0000
  S   S266      1.0  0.60259  0.08446  0.43173  1.0000
  S   S267      1.0  0.59718  0.13138  0.44608  1.0000
  Fe  Fe135     1.0  0.63155  0.28952  0.43355  1.0000
  S   S268      1.0  0.61027  0.28955  0.45458  1.0000
  S   S269      1.0  0.63662  0.26066  0.42075  1.0000
  Fe  Fe136     1.0  0.63489  0.34115  0.43061  1.0000
  S   S270      1.0  0.61308  0.34559  0.45111  1.0000
  S   S271      1.0  0.65214  0.37031  0.41810  1.0000
  Fe  Fe137     1.0  0.63499  0.31101  0.45822  1.0000
  N   N67       1.0  0.52784  0.48644  0.35590  1.0000
  Fe  Fe138     1.0  0.59053  0.32405  0.44555  1.0000
  S   S272      1.0  0.55130  0.33013  0.45139  1.0000
  S   S273      1.0  0.65847  0.30769  0.43802  1.0000
  S   S274      1.0  0.61017  0.32299  0.42420  1.0000
  N   N68       1.0  0.67389  0.32229  0.39846  1.0000
  C   C785      1.0  0.57054  0.23530  0.42012  1.0000
  H   H789      1.0  0.54878  0.29546  0.41123  1.0000
  C   C786      1.0  0.69157  0.32898  0.40297  1.0000
  C   C787      1.0  0.57655  0.24010  0.43197  1.0000
  H   H790      1.0  0.50448  0.14521  0.40898  1.0000
  C   C788      1.0  0.67161  0.29927  0.40096  1.0000
  C   C789      1.0  0.65668  0.33984  0.39134  1.0000
  C   C790      1.0  0.65730  0.35207  0.46951  1.0000
  C   C791      1.0  0.62567  0.08479  0.39231  1.0000
  S   S275      1.0  0.52752  0.06558  0.39671  1.0000
  C   C792      1.0  0.70563  0.28883  0.41253  1.0000
  C   C793      1.0  0.53980  0.08750  0.40055  1.0000
  C   C794      1.0  0.54160  0.29671  0.42188  1.0000
  H   H791      1.0  0.57896  0.04305  0.39470  1.0000
  H   H792      1.0  0.63747  0.44753  0.39031  1.0000
  H   H793      1.0  0.58981  0.08053  0.39824  1.0000
  C   C795      1.0  0.60776  0.43050  0.39316  1.0000
  C   C796      1.0  0.53780  0.00342  0.38944  1.0000
  C   C797      1.0  0.54637  0.10545  0.39024  1.0000
  H   H794      1.0  0.68542  0.26398  0.41005  1.0000
  H   H795      1.0  0.59435  0.18515  0.44748  1.0000
  H   H796      1.0  0.57462  0.25822  0.43337  1.0000
  C   C798      1.0  0.50244  0.04192  0.47274  1.0000
  N   N69       1.0  0.58500  0.22223  0.44162  1.0000
  H   H797      1.0  0.65873  0.34850  0.45918  1.0000
  H   H798      1.0  0.66384  0.38726  0.46288  1.0000
  C   C799      1.0  0.51326  0.00687  0.39149  1.0000
  H   H799      1.0  0.53677  0.07393  0.42215  1.0000
  H   H800      1.0  0.53866  0.45153  0.38570  1.0000
  C   C800      1.0  0.63488  0.39304  0.40838  1.0000
  C   C801      1.0  0.64390  0.41329  0.40243  1.0000
  C   C802      1.0  0.63031  0.43204  0.39491  1.0000
  C   C803      1.0  0.59889  0.41002  0.39888  1.0000
  C   C804      1.0  0.61236  0.39136  0.40660  1.0000
  H   H801      1.0  0.66136  0.41461  0.40374  1.0000
  H   H802      1.0  0.58144  0.40875  0.39753  1.0000
  H   H803      1.0  0.60527  0.37578  0.41117  1.0000
  C   C805      1.0  0.55046  0.31024  0.42900  1.0000
  C   C806      1.0  0.54059  0.31278  0.44258  1.0000
  C   C807      1.0  0.54226  0.08755  0.41412  1.0000
  H   H804      1.0  0.56427  0.31947  0.42374  1.0000
  C   C808      1.0  0.58739  0.19935  0.43991  1.0000
  H   H805      1.0  0.68832  0.01913  0.39977  1.0000
  H   H806      1.0  0.62379  0.09821  0.39866  1.0000
  H   H807      1.0  0.60740  0.47119  0.42840  1.0000
  H   H808      1.0  0.53787  0.08082  0.47102  1.0000
  C   C809      1.0  0.59057  0.22777  0.45411  1.0000
  C   C810      1.0  0.60931  0.41293  0.43884  1.0000
  C   C811      1.0  0.52669  0.06815  0.47559  1.0000
  H   H809      1.0  0.65717  0.29400  0.39778  1.0000
  H   H810      1.0  0.58423  0.17583  0.42656  1.0000
  C   C812      1.0  0.63652  0.00220  0.39987  1.0000
  C   C813      1.0  0.65504  0.03312  0.41129  1.0000
  C   C814      1.0  0.63128  0.03149  0.41490  1.0000
  C   C815      1.0  0.60512  0.43490  0.43076  1.0000
  H   H811      1.0  0.60815  0.48448  0.45361  1.0000
  H   H812      1.0  0.62130  0.09818  0.47574  1.0000
  C   C816      1.0  0.66984  0.01816  0.40254  1.0000
  H   H813      1.0  0.61979  0.04235  0.42185  1.0000
  H   H814      1.0  0.63195  0.03546  0.37089  1.0000
  S   S276      1.0  0.50999  0.27081  0.41914  1.0000
  H   H815      1.0  0.60552  0.39774  0.43570  1.0000
  C   C817      1.0  0.64884  0.18313  0.43992  1.0000
  C   C818      1.0  0.64219  0.19005  0.42690  1.0000
  C   C819      1.0  0.63883  0.21388  0.42105  1.0000
  C   C820      1.0  0.64176  0.23092  0.42826  1.0000
  C   C821      1.0  0.64853  0.22402  0.44125  1.0000
  C   C822      1.0  0.65223  0.20015  0.44700  1.0000
  H   H816      1.0  0.63978  0.17703  0.42131  1.0000
  H   H817      1.0  0.63371  0.21912  0.41097  1.0000
  H   H818      1.0  0.65102  0.23701  0.44684  1.0000
  H   H819      1.0  0.65755  0.19484  0.45704  1.0000
  C   C823      1.0  0.55200  0.10507  0.41731  1.0000
  C   C824      1.0  0.55908  0.12270  0.40698  1.0000
  C   C825      1.0  0.55584  0.12318  0.39348  1.0000
  C   C826      1.0  0.62208  0.01622  0.40918  1.0000
  H   H820      1.0  0.56126  0.13684  0.38547  1.0000
  C   C827      1.0  0.64969  0.05908  0.37693  1.0000
  H   H821      1.0  0.57627  0.32376  0.47625  1.0000
  H   H822      1.0  0.57412  0.23220  0.46138  1.0000
  C   C828      1.0  0.52278  0.28575  0.42834  1.0000
  N   N70       1.0  0.60870  0.05749  0.38426  1.0000
  H   H823      1.0  0.66282  0.08355  0.38555  1.0000
  C   C829      1.0  0.65631  0.03225  0.47707  1.0000
  C   C830      1.0  0.60174  0.07094  0.48528  1.0000
  C   C831      1.0  0.62995  0.04969  0.37669  1.0000
  C   C832      1.0  0.66018  0.37403  0.47161  1.0000
  H   H824      1.0  0.50260  0.43835  0.38269  1.0000
  H   H825      1.0  0.69299  0.34733  0.40138  1.0000
  H   H826      1.0  0.59978  0.24293  0.45156  1.0000
  H   H827      1.0  0.66674  0.05215  0.37142  1.0000
  H   H828      1.0  0.54647  0.01544  0.39267  1.0000
  C   C833      1.0  0.65076  0.99398  0.47621  1.0000
  H   H829      1.0  0.63115  0.42807  0.46409  1.0000
  N   N71       1.0  0.65011  0.01697  0.47036  1.0000
  C   C834      1.0  0.51312  0.28802  0.44200  1.0000
  H   H830      1.0  0.50281  0.02170  0.39621  1.0000
  H   H831      1.0  0.65537  0.05056  0.47257  1.0000
  H   H832      1.0  0.62521  0.03811  0.45823  1.0000
  C   C835      1.0  0.61863  0.41052  0.45090  1.0000
  H   H833      1.0  0.59296  0.03116  0.37946  1.0000
  H   H834      1.0  0.60259  0.21285  0.45922  1.0000
  C   C836      1.0  0.62383  0.43019  0.45469  1.0000
  H   H835      1.0  0.51428  0.30337  0.45962  1.0000
  C   C837      1.0  0.64749  0.07672  0.38482  1.0000
  C   C838      1.0  0.66062  0.00272  0.39681  1.0000
  C   C839      1.0  0.57331  0.21205  0.41816  1.0000
  C   C840      1.0  0.52194  0.30159  0.44909  1.0000
  H   H836      1.0  0.56905  0.20800  0.40894  1.0000
  H   H837      1.0  0.55393  0.10498  0.42782  1.0000
  H   H838      1.0  0.71771  0.27581  0.41825  1.0000
  H   H839      1.0  0.65555  0.03481  0.44984  1.0000
  S   S277      1.0  0.59019  0.45421  0.38422  1.0000
  C   C841      1.0  0.53875  0.47661  0.36705  1.0000
  H   H840      1.0  0.65446  0.33416  0.38182  1.0000
  C   C842      1.0  0.58805  0.04757  0.38406  1.0000
  H   H841      1.0  0.63557  0.48189  0.44191  1.0000
  C   C843      1.0  0.51333  0.17907  0.40792  1.0000
  H   H842      1.0  0.66212  0.35721  0.38846  1.0000
  N   N72       1.0  0.61989  0.45166  0.44660  1.0000
  H   H843      1.0  0.52582  0.17763  0.39851  1.0000
  C   C844      1.0  0.70766  0.31239  0.41008  1.0000
  C   C845      1.0  0.60641  0.07481  0.39198  1.0000
  C   C846      1.0  0.68754  0.28218  0.40792  1.0000
  H   H844      1.0  0.56377  0.24956  0.41252  1.0000
  C   C847      1.0  0.64232  0.02564  0.45697  1.0000
  C   C848      1.0  0.62494  0.47237  0.45066  1.0000
  H   H845      1.0  0.72129  0.31788  0.41391  1.0000
  H   H846      1.0  0.54401  0.10570  0.37978  1.0000
  H   H847      1.0  0.63943  0.34237  0.39818  1.0000
  C   C849      1.0  0.58177  0.19394  0.42810  1.0000
  H   H848      1.0  0.59786  0.43699  0.42136  1.0000
  C   C850      1.0  0.61058  0.45419  0.43480  1.0000
  H   H849      1.0  0.63495  0.46761  0.45943  1.0000
  C   C851      1.0  0.52989  0.45920  0.37687  1.0000
  H   H850      1.0  0.52005  0.06342  0.45594  1.0000
  H   H851      1.0  0.62192  0.39349  0.45723  1.0000
  C   C852      1.0  0.61810  0.08519  0.48467  1.0000
  C   C853      1.0  0.65299  0.33470  0.48073  1.0000
  H   H852      1.0  0.57547  0.06050  0.37816  1.0000
  H   H853      1.0  0.60346  0.01579  0.41169  1.0000
  C   C854      1.0  0.50986  0.45175  0.37515  1.0000
  H   H854      1.0  0.53360  0.33907  0.48170  1.0000
  C   C855      1.0  0.51680  0.05828  0.46699  1.0000
  S   S278      1.0  0.64762  0.30772  0.47830  1.0000
  H   H855      1.0  0.64001  0.01124  0.45196  1.0000
  Fe  Fe139     1.0  0.59902  0.48951  0.38411  1.0000
  C   C856      1.0  0.50911  0.19908  0.41418  1.0000
  C   C857      1.0  0.50149  0.16073  0.41386  1.0000
  H   H856      1.0  0.55435  0.48228  0.36845  1.0000
  C   C858      1.0  0.65824  0.37893  0.48493  1.0000
  C   C859      1.0  0.56981  0.33550  0.48382  1.0000
  H   H857      1.0  0.51803  0.21359  0.40961  1.0000
  C   C860      1.0  0.50843  0.47895  0.35402  1.0000
  H   H858      1.0  0.49871  0.27939  0.44713  1.0000
  H   H859      1.0  0.50289  0.35823  0.45058  1.0000
  H   H860      1.0  0.49973  0.48671  0.34518  1.0000
  C   C861      1.0  0.49911  0.46159  0.36363  1.0000
  Fe  Fe140     1.0  0.93598  0.26326  0.67769  1.0000
  S   S279      1.0  0.93628  0.29650  0.66271  1.0000
  C   C862      1.0  0.82452  0.32317  0.73206  1.0000
  Fe  Fe141     1.0  0.92154  0.28907  0.70222  1.0000
  S   S280      1.0  0.92039  0.32423  0.68907  1.0000
  C   C863      1.0  0.68642  0.02137  0.58209  1.0000
  Fe  Fe142     1.0  0.90233  0.30972  0.67570  1.0000
  S   S281      1.0  0.87022  0.33083  0.66684  1.0000
  S   S282      1.0  0.90083  0.27571  0.68982  1.0000
  S   S283      1.0  0.95693  0.27292  0.69158  1.0000
  Fe  Fe143     1.0  0.90522  0.08800  0.68828  1.0000
  S   S284      1.0  0.89474  0.06959  0.70954  1.0000
  Fe  Fe144     1.0  0.90147  0.08587  0.65892  1.0000
  S   S285      1.0  0.88806  0.06401  0.64712  1.0000
  S   S286      1.0  0.87599  0.10125  0.67580  1.0000
  Fe  Fe145     1.0  0.73771  0.08623  0.60281  1.0000
  S   S287      1.0  0.70536  0.10128  0.61666  1.0000
  S   S288      1.0  0.73731  0.06863  0.58458  1.0000
  Fe  Fe146     1.0  0.77104  0.10737  0.61483  1.0000
  S   S289      1.0  0.74144  0.12397  0.62935  1.0000
  S   S290      1.0  0.80436  0.11994  0.61563  1.0000
  Fe  Fe147     1.0  0.72836  0.09034  0.63305  1.0000
  S   S291      1.0  0.71440  0.07666  0.65495  1.0000
  Fe  Fe148     1.0  0.72075  0.13391  0.61208  1.0000
  S   S292      1.0  0.69854  0.17001  0.61135  1.0000
  S   S293      1.0  0.75987  0.07225  0.61979  1.0000
  S   S294      1.0  0.75134  0.12017  0.59694  1.0000
  Fe  Fe149     1.0  0.73155  0.29276  0.63440  1.0000
  S   S295      1.0  0.75389  0.32030  0.63084  1.0000
  S   S296      1.0  0.69787  0.29570  0.64940  1.0000
  Fe  Fe150     1.0  0.76037  0.26895  0.61067  1.0000
  S   S297      1.0  0.78470  0.29460  0.60531  1.0000
  S   S298      1.0  0.76837  0.24120  0.59720  1.0000
  Fe  Fe151     1.0  0.78446  0.29020  0.62805  1.0000
  S   S299      1.0  0.81861  0.27704  0.63674  1.0000
  Fe  Fe152     1.0  0.75164  0.32164  0.60849  1.0000
  S   S300      1.0  0.74367  0.35503  0.59337  1.0000
  S   S301      1.0  0.76198  0.26254  0.63314  1.0000
  S   S302      1.0  0.72744  0.29601  0.61242  1.0000
  S   S303      1.0  0.63794  0.42928  0.54620  1.0000
  S   S304      1.0  0.62248  0.02557  0.55571  1.0000
  H   H861      1.0  0.65957  0.20119  0.70397  1.0000
  C   C864      1.0  0.59185  0.35789  0.73008  1.0000
  H   H862      1.0  0.67046  0.99495  0.50575  1.0000
  N   N73       1.0  0.65939  0.07711  0.56540  1.0000
  H   H863      1.0  0.90017  0.13633  0.73050  1.0000
  H   H864      1.0  0.64566  0.06592  0.58638  1.0000
  H   H865      1.0  0.50502  0.35507  0.50909  1.0000
  C   C865      1.0  0.69415  0.09336  0.54532  1.0000
  H   H866      1.0  0.65361  0.36471  0.50643  1.0000
  H   H867      1.0  0.86335  0.28542  0.61819  1.0000
  Fe  Fe153     1.0  0.61146  0.99391  0.55161  1.0000
  Fe  Fe154     1.0  0.64197  0.02687  0.53423  1.0000
  Fe  Fe155     1.0  0.60093  0.16954  0.72862  1.0000
  C   C866      1.0  0.90351  0.24962  0.63662  1.0000
  C   C867      1.0  0.82206  0.11475  0.71962  1.0000
  H   H868      1.0  0.98702  0.02157  0.66113  1.0000
  H   H869      1.0  0.68525  0.21024  0.72808  1.0000
  C   C868      1.0  0.94738  0.04436  0.63923  1.0000
  H   H870      1.0  0.54978  0.17007  0.70477  1.0000
  S   S305      1.0  0.59971  0.30646  0.71914  1.0000
  H   H871      1.0  0.58135  0.35545  0.72286  1.0000
  S   S306      1.0  0.67896  0.47329  0.53089  1.0000
  H   H872      1.0  0.83525  0.15857  0.65202  1.0000
  C   C869      1.0  0.97805  0.03366  0.65338  1.0000
  S   S307      1.0  0.70782  0.24808  0.71037  1.0000
  C   C870      1.0  0.87163  0.34666  0.73186  1.0000
  C   C871      1.0  0.51206  0.36725  0.50019  1.0000
  N   N74       1.0  0.95426  0.06539  0.63412  1.0000
  H   H873      1.0  0.64652  0.06795  0.54903  1.0000
  H   H874      1.0  0.70689  0.10242  0.56204  1.0000
  Fe  Fe156     1.0  0.64211  0.14803  0.70873  1.0000
  S   S308      1.0  0.64004  0.11144  0.71927  1.0000
  S   S309      1.0  0.66692  0.15838  0.68971  1.0000
  H   H875      1.0  0.60059  0.25411  0.71626  1.0000
  H   H876      1.0  0.64884  0.32582  0.50276  1.0000
  S   S310      1.0  0.63406  0.44946  0.51362  1.0000
  Fe  Fe157     1.0  0.60078  0.12330  0.71991  1.0000
  C   C872      1.0  0.76280  0.12055  0.65999  1.0000
  C   C873      1.0  0.88579  0.25640  0.62843  1.0000
  S   S311      1.0  0.60348  0.15905  0.70813  1.0000
  C   C874      1.0  0.97488  0.31019  0.71255  1.0000
  S   S312      1.0  0.98333  0.32837  0.66997  1.0000
  H   H877      1.0  0.54282  0.09699  0.69762  1.0000
  H   H878      1.0  0.78279  0.09958  0.64488  1.0000
  H   H879      1.0  0.79042  0.21961  0.62096  1.0000
  N   N75       1.0  0.68248  0.35722  0.61588  1.0000
  N   N76       1.0  0.88645  0.29694  0.62835  1.0000
  S   S313      1.0  0.91345  0.28405  0.72530  1.0000
  H   H880      1.0  0.64513  0.26622  0.67754  1.0000
  H   H881      1.0  0.76586  0.05352  0.65144  1.0000
  H   H882      1.0  0.77573  0.16022  0.62666  1.0000
  C   C875      1.0  0.66345  0.37566  0.59638  1.0000
  C   C876      1.0  0.51778  0.10285  0.73561  1.0000
  H   H883      1.0  0.53990  0.05864  0.50662  1.0000
  S   S314      1.0  0.50990  0.37075  0.53542  1.0000
  C   C877      1.0  0.94199  0.08186  0.62375  1.0000
  S   S315      1.0  0.57912  0.20338  0.73421  1.0000
  H   H884      1.0  0.82932  0.16285  0.73091  1.0000
  C   C878      1.0  0.55230  0.30747  0.72221  1.0000
  N   N77       1.0  0.52234  0.06186  0.48954  1.0000
  C   C879      1.0  0.90424  0.29044  0.63608  1.0000
  H   H885      1.0  0.67441  0.02317  0.60359  1.0000
  H   H886      1.0  0.55510  0.30794  0.71120  1.0000
  H   H887      1.0  0.92675  0.26159  0.64674  1.0000
  C   C880      1.0  0.61553  0.24806  0.70876  1.0000
  H   H888      1.0  0.67349  0.20875  0.67668  1.0000
  C   C881      1.0  0.52766  0.17461  0.72417  1.0000
  H   H889      1.0  0.81188  0.10085  0.72247  1.0000
  C   C882      1.0  0.65448  0.36136  0.49614  1.0000
  Fe  Fe158     1.0  0.65502  0.00078  0.56146  1.0000
  C   C883      1.0  0.91298  0.26671  0.64036  1.0000
  S   S316      1.0  0.64688  0.25772  0.73246  1.0000
  H   H890      1.0  0.75271  0.06165  0.68198  1.0000
  C   C884      1.0  0.55634  0.42295  0.53622  1.0000
  C   C885      1.0  0.53247  0.43101  0.53504  1.0000
  C   C886      1.0  0.51793  0.41508  0.53500  1.0000
  C   C887      1.0  0.52721  0.39102  0.53627  1.0000
  C   C888      1.0  0.55096  0.38295  0.53768  1.0000
  C   C889      1.0  0.56549  0.39887  0.53764  1.0000
  H   H891      1.0  0.94939  0.07717  0.61340  1.0000
  C   C890      1.0  0.83201  0.14965  0.72430  1.0000
  H   H892      1.0  0.55816  0.36433  0.53879  1.0000
  H   H893      1.0  0.58364  0.39243  0.53896  1.0000
  C   C891      1.0  0.97320  0.07060  0.63814  1.0000
  H   H894      1.0  0.58914  0.36178  0.50569  1.0000
  C   C892      1.0  0.54112  0.10556  0.73034  1.0000
  H   H895      1.0  0.69613  0.39626  0.55760  1.0000
  S   S317      1.0  0.51005  0.99330  0.51533  1.0000
  C   C893      1.0  0.89462  0.30703  0.73308  1.0000
  S   S318      1.0  0.92989  0.06993  0.67186  1.0000
  S   S319      1.0  0.94681  0.22974  0.66873  1.0000
  C   C894      1.0  0.72310  0.35709  0.58224  1.0000
  C   C895      1.0  0.71725  0.37801  0.57324  1.0000
  C   C896      1.0  0.70061  0.38006  0.56447  1.0000
  H   H896      1.0  0.72110  0.28507  0.55363  1.0000
  C   C897      1.0  0.69576  0.34025  0.57357  1.0000
  C   C898      1.0  0.71234  0.33824  0.58226  1.0000
  H   H897      1.0  0.72554  0.39272  0.57308  1.0000
  C   C899      1.0  0.53319  0.16774  0.71121  1.0000
  H   H898      1.0  0.68754  0.32550  0.57374  1.0000
  H   H899      1.0  0.71697  0.32189  0.58875  1.0000
  C   C900      1.0  0.70138  0.28286  0.66630  1.0000
  C   C901      1.0  0.72169  0.26665  0.66917  1.0000
  C   C902      1.0  0.72365  0.25593  0.68273  1.0000
  C   C903      1.0  0.70544  0.26163  0.69345  1.0000
  C   C904      1.0  0.68516  0.27780  0.69055  1.0000
  C   C905      1.0  0.68315  0.28841  0.67701  1.0000
  H   H900      1.0  0.73584  0.26227  0.66097  1.0000
  H   H901      1.0  0.73938  0.24342  0.68493  1.0000
  H   H902      1.0  0.67081  0.28189  0.69871  1.0000
  H   H903      1.0  0.66745  0.30099  0.67484  1.0000
  C   C906      1.0  0.83947  0.11487  0.70808  1.0000
  C   C907      1.0  0.68652  0.02861  0.59461  1.0000
  C   C908      1.0  0.70204  0.04307  0.59558  1.0000
  C   C909      1.0  0.71803  0.04983  0.58409  1.0000
  C   C910      1.0  0.71824  0.04216  0.57164  1.0000
  C   C911      1.0  0.70223  0.02831  0.57056  1.0000
  H   H904      1.0  0.50122  0.09353  0.70676  1.0000
  H   H905      1.0  0.70178  0.04881  0.60522  1.0000
  H   H906      1.0  0.73060  0.04732  0.56271  1.0000
  H   H907      1.0  0.74461  0.26522  0.57205  1.0000
  C   C912      1.0  0.71701  0.19074  0.60681  1.0000
  C   C913      1.0  0.73788  0.18642  0.59759  1.0000
  C   C914      1.0  0.75310  0.20253  0.59429  1.0000
  C   C915      1.0  0.74782  0.22270  0.60051  1.0000
  C   C916      1.0  0.72691  0.22717  0.60973  1.0000
  C   C917      1.0  0.71135  0.21131  0.61274  1.0000
  H   H908      1.0  0.74220  0.17079  0.59283  1.0000
  H   H909      1.0  0.76925  0.19902  0.58715  1.0000
  H   H910      1.0  0.72279  0.24272  0.61459  1.0000
  H   H911      1.0  0.69521  0.21466  0.61991  1.0000
  C   C918      1.0  0.68015  0.13542  0.68029  1.0000
  C   C919      1.0  0.68310  0.11194  0.68658  1.0000
  C   C920      1.0  0.69347  0.09392  0.67875  1.0000
  C   C921      1.0  0.70088  0.09932  0.66461  1.0000
  C   C922      1.0  0.69740  0.12276  0.65835  1.0000
  C   C923      1.0  0.68752  0.14076  0.66619  1.0000
  H   H912      1.0  0.67792  0.10766  0.69750  1.0000
  H   H913      1.0  0.69596  0.07582  0.68369  1.0000
  H   H914      1.0  0.70144  0.12715  0.64739  1.0000
  H   H915      1.0  0.68491  0.15884  0.66120  1.0000
  H   H916      1.0  0.58092  0.48428  0.51459  1.0000
  H   H917      1.0  0.90975  0.23118  0.64019  1.0000
  C   C924      1.0  0.64078  0.25472  0.68704  1.0000
  Fe  Fe159     1.0  0.65711  0.39522  0.53939  1.0000
  C   C925      1.0  0.89837  0.10679  0.72127  1.0000
  C   C926      1.0  0.64885  0.21850  0.70182  1.0000
  C   C927      1.0  0.59717  0.05472  0.49707  1.0000
  H   H918      1.0  0.54715  0.08112  0.49282  1.0000
  H   H919      1.0  0.81208  0.35891  0.72316  1.0000
  H   H920      1.0  0.54628  0.37674  0.51090  1.0000
  C   C928      1.0  0.86435  0.07941  0.63871  1.0000
  C   C929      1.0  0.84793  0.06743  0.63609  1.0000
  C   C930      1.0  0.82920  0.07962  0.62911  1.0000
  C   C931      1.0  0.82730  0.10368  0.62443  1.0000
  C   C932      1.0  0.84404  0.11546  0.62680  1.0000
  C   C933      1.0  0.86219  0.10350  0.63417  1.0000
  H   H921      1.0  0.84974  0.04871  0.63943  1.0000
  H   H922      1.0  0.81670  0.07034  0.62699  1.0000
  H   H923      1.0  0.84312  0.13390  0.62280  1.0000
  H   H924      1.0  0.87495  0.11280  0.63597  1.0000
  H   H925      1.0  0.91131  0.30368  0.63927  1.0000
  C   C934      1.0  0.66379  0.02456  0.48986  1.0000
  H   H926      1.0  0.85818  0.31469  0.69590  1.0000
  H   H927      1.0  0.87769  0.33229  0.63225  1.0000
  C   C935      1.0  0.64099  0.06852  0.57592  1.0000
  C   C936      1.0  0.54817  0.00144  0.52406  1.0000
  H   H928      1.0  0.89506  0.33286  0.71484  1.0000
  H   H929      1.0  0.86172  0.28214  0.71541  1.0000
  C   C937      1.0  0.74940  0.12035  0.67305  1.0000
  H   H930      1.0  0.79583  0.05716  0.65068  1.0000
  C   C938      1.0  0.85340  0.31547  0.66027  1.0000
  C   C939      1.0  0.85915  0.29108  0.66119  1.0000
  C   C940      1.0  0.84714  0.27938  0.65467  1.0000
  C   C941      1.0  0.82941  0.29195  0.64710  1.0000
  C   C942      1.0  0.82286  0.31624  0.64671  1.0000
  C   C943      1.0  0.83484  0.32797  0.65331  1.0000
  H   H931      1.0  0.87334  0.28126  0.66655  1.0000
  H   H932      1.0  0.85220  0.26055  0.65511  1.0000
  H   H933      1.0  0.80921  0.32609  0.64090  1.0000
  H   H934      1.0  0.83022  0.34686  0.65263  1.0000
  C   C944      1.0  0.92474  0.21444  0.66804  1.0000
  C   C945      1.0  0.90086  0.22274  0.67257  1.0000
  C   C946      1.0  0.88396  0.20932  0.67234  1.0000
  H   H935      1.0  0.89541  0.23927  0.67637  1.0000
  H   H936      1.0  0.86558  0.21552  0.67608  1.0000
  C   C947      1.0  0.51737  0.15767  0.70664  1.0000
  H   H937      1.0  0.75074  0.34607  0.54951  1.0000
  H   H938      1.0  0.94968  0.18719  0.65877  1.0000
  N   N78       1.0  0.65443  0.23298  0.68985  1.0000
  H   H939      1.0  0.86509  0.17479  0.71868  1.0000
  H   H940      1.0  0.64775  0.36146  0.73210  1.0000
  C   C948      1.0  0.81813  0.13233  0.72772  1.0000
  N   N79       1.0  0.84925  0.14947  0.71304  1.0000
  S   S320      1.0  0.66655  0.00334  0.58133  1.0000
  C   C949      1.0  0.84863  0.31716  0.70604  1.0000
  C   C950      1.0  0.50322  0.09864  0.72713  1.0000
  C   C951      1.0  0.62128  0.26266  0.69650  1.0000
  N   N80       1.0  0.63465  0.09606  0.67678  1.0000
  C   C952      1.0  0.64640  0.09008  0.66442  1.0000
  C   C953      1.0  0.62574  0.11906  0.67809  1.0000
  C   C954      1.0  0.64989  0.10742  0.65305  1.0000
  C   C955      1.0  0.62912  0.13686  0.66697  1.0000
  C   C956      1.0  0.64128  0.13095  0.65437  1.0000
  C   C957      1.0  0.63069  0.07777  0.68858  1.0000
  H   H941      1.0  0.65374  0.07189  0.66337  1.0000
  H   H942      1.0  0.61626  0.12373  0.68786  1.0000
  H   H943      1.0  0.66000  0.10266  0.64341  1.0000
  H   H944      1.0  0.62279  0.15511  0.66822  1.0000
  H   H945      1.0  0.64458  0.14459  0.64573  1.0000
  H   H946      1.0  0.61266  0.07408  0.68961  1.0000
  H   H947      1.0  0.64384  0.06131  0.68759  1.0000
  H   H948      1.0  0.63219  0.08355  0.69823  1.0000
  C   C958      1.0  0.67570  0.08723  0.56898  1.0000
  C   C959      1.0  0.65286  0.35630  0.59757  1.0000
  H   H949      1.0  0.52524  0.44960  0.53404  1.0000
  H   H950      1.0  0.92282  0.08149  0.62581  1.0000
  H   H951      1.0  0.63874  0.05112  0.57427  1.0000
  H   H952      1.0  0.62401  0.08108  0.57552  1.0000
  S   S321      1.0  0.63996  0.16255  0.72800  1.0000
  C   C960      1.0  0.66473  0.00115  0.49583  1.0000
  C   C961      1.0  0.77864  0.05650  0.65747  1.0000
  C   C962      1.0  0.88759  0.08753  0.72238  1.0000
  C   C963      1.0  0.62646  0.06589  0.50728  1.0000
  Fe  Fe160     1.0  0.61348  0.42976  0.53150  1.0000
  H   H953      1.0  0.71789  0.21705  0.73565  1.0000
  H   H954      1.0  0.70793  0.09936  0.53751  1.0000
  H   H955      1.0  0.94362  0.10021  0.62386  1.0000
  H   H956      1.0  0.53979  0.18267  0.72773  1.0000
  H   H957      1.0  0.95872  0.30319  0.71513  1.0000
  H   H958      1.0  0.68352  0.17961  0.73272  1.0000
  C   C964      1.0  0.57704  0.35687  0.50031  1.0000
  H   H959      1.0  0.85569  0.18227  0.70191  1.0000
  H   H960      1.0  0.58446  0.04371  0.49762  1.0000
  H   H961      1.0  0.91207  0.11018  0.71274  1.0000
  Fe  Fe161     1.0  0.65307  0.41364  0.50928  1.0000
  N   N81       1.0  0.73462  0.31666  0.55048  1.0000
  C   C965      1.0  0.74964  0.32817  0.55422  1.0000
  C   C966      1.0  0.73292  0.29423  0.55663  1.0000
  C   C967      1.0  0.76307  0.31739  0.56459  1.0000
  C   C968      1.0  0.74614  0.28291  0.56702  1.0000
  C   C969      1.0  0.76128  0.29462  0.57099  1.0000
  H   H962      1.0  0.60045  0.47752  0.53662  1.0000
  N   N82       1.0  0.76944  0.07843  0.66311  1.0000
  C   C970      1.0  0.65196  0.33926  0.49404  1.0000
  H   H963      1.0  0.70284  0.32372  0.54193  1.0000
  Fe  Fe162     1.0  0.89264  0.13284  0.66886  1.0000
  C   C971      1.0  0.68972  0.36116  0.56471  1.0000
  S   S322      1.0  0.91991  0.12105  0.68278  1.0000
  C   C972      1.0  0.89107  0.18751  0.66777  1.0000
  Fe  Fe163     1.0  0.95450  0.30725  0.67753  1.0000
  C   C973      1.0  0.52942  0.30833  0.72964  1.0000
  H   H964      1.0  0.67826  0.23844  0.67097  1.0000
  S   S323      1.0  0.97942  0.11055  0.65731  1.0000
  C   C974      1.0  0.67709  0.08355  0.54172  1.0000
  S   S324      1.0  0.87092  0.16913  0.66882  1.0000
  S   S325      1.0  0.57989  0.10530  0.70982  1.0000
  S   S326      1.0  0.65990  0.40731  0.48725  1.0000
  H   H965      1.0  0.72977  0.32233  0.52960  1.0000
  C   C975      1.0  0.69344  0.09530  0.55903  1.0000
  C   C976      1.0  0.91478  0.17975  0.66279  1.0000
  H   H966      1.0  0.64185  0.35574  0.59014  1.0000
  H   H967      1.0  0.51873  0.08558  0.50354  1.0000
  C   C977      1.0  0.86358  0.16779  0.70943  1.0000
  C   C978      1.0  0.63051  0.08261  0.49565  1.0000
  S   S327      1.0  0.66865  0.36249  0.55416  1.0000
  H   H968      1.0  0.67563  0.08843  0.57963  1.0000
  H   H969      1.0  0.76484  0.13705  0.65348  1.0000
  S   S328      1.0  0.91583  0.11880  0.65066  1.0000
  H   H970      1.0  0.66073  0.39011  0.58804  1.0000
  Fe  Fe164     1.0  0.94223  0.10435  0.66518  1.0000
  C   C979      1.0  0.67840  0.37577  0.60564  1.0000
  C   C980      1.0  0.67533  0.22495  0.68016  1.0000
  C   C981      1.0  0.93147  0.19331  0.66277  1.0000
  H   H971      1.0  0.92039  0.16317  0.65900  1.0000
  H   H972      1.0  0.98279  0.07323  0.68083  1.0000
  C   C982      1.0  0.87759  0.28029  0.62423  1.0000
  H   H973      1.0  0.64352  0.09333  0.49501  1.0000
  H   H974      1.0  0.70236  0.02281  0.56087  1.0000
  C   C983      1.0  0.65717  0.33741  0.60802  1.0000
  H   H975      1.0  0.64927  0.32215  0.60893  1.0000
  H   H976      1.0  0.66856  0.03678  0.49518  1.0000
  C   C984      1.0  0.99528  0.29758  0.71753  1.0000
  C   C985      1.0  0.77282  0.09929  0.65517  1.0000
  H   H977      1.0  0.68722  0.39053  0.60437  1.0000
  C   C986      1.0  0.67202  0.33822  0.61720  1.0000
  C   C987      1.0  0.53581  0.09888  0.70821  1.0000
  C   C988      1.0  0.62934  0.22582  0.71144  1.0000
  C   C989      1.0  0.58553  0.34186  0.49056  1.0000
  S   S329      1.0  0.66586  0.30650  0.72114  1.0000
  H   H978      1.0  0.88813  0.32858  0.61448  1.0000
  H   H979      1.0  0.83355  0.35330  0.69970  1.0000
  S   S330      1.0  0.64399  0.06103  0.52025  1.0000
  C   C990      1.0  0.55031  0.10328  0.71665  1.0000
  H   H980      1.0  0.62506  0.21450  0.72100  1.0000
  H   H981      1.0  0.85864  0.32489  0.62262  1.0000
  C   C991      1.0  0.85275  0.13268  0.70480  1.0000
  H   H982      1.0  0.67530  0.32344  0.62531  1.0000
  C   C992      1.0  0.55279  0.36529  0.50320  1.0000
  H   H983      1.0  0.74093  0.13671  0.67678  1.0000
  H   H984      1.0  0.76400  0.19069  0.62249  1.0000
  C   C993      1.0  0.87735  0.32191  0.62414  1.0000
  C   C994      1.0  0.83469  0.33887  0.70818  1.0000
  H   H985      1.0  0.81734  0.23065  0.63372  1.0000
  H   H986      1.0  0.71513  0.36180  0.61993  1.0000
  H   H987      1.0  0.70126  0.34133  0.63266  1.0000
  C   C995      1.0  0.88794  0.32918  0.72555  1.0000
  C   C996      1.0  0.79994  0.20623  0.62794  1.0000
  C   C997      1.0  0.74630  0.09900  0.68114  1.0000
  C   C998      1.0  0.69782  0.35816  0.62558  1.0000
  H   H988      1.0  0.78893  0.17670  0.61136  1.0000
  C   C999      1.0  0.72080  0.32804  0.53951  1.0000
  Fe  Fe165     1.0  0.66013  0.44586  0.52777  1.0000
  H   H989      1.0  0.73545  0.09870  0.69118  1.0000
  H   H990      1.0  0.68953  0.37218  0.63190  1.0000
  C   C1000     1.0  0.75621  0.07809  0.67590  1.0000
  C   C1001     1.0  0.78063  0.17747  0.62223  1.0000
  H   H991      1.0  0.84316  0.10084  0.70196  1.0000
  H   H992      1.0  0.69127  0.22109  0.68522  1.0000
  H   H993      1.0  0.68751  0.12656  0.73396  1.0000
  H   H994      1.0  0.60546  0.04009  0.51723  1.0000
  H   H995      1.0  0.86636  0.13268  0.69588  1.0000
  S   S331      1.0  0.57436  0.44327  0.53590  1.0000
  C   C1002     1.0  0.65970  0.07554  0.55195  1.0000
  N   N83       1.0  0.79688  0.18351  0.62977  1.0000
  C   C1003     1.0  0.81528  0.21253  0.63504  1.0000
  C   C1004     1.0  0.50637  0.17103  0.73244  1.0000
  C   C1005     1.0  0.51223  0.09692  0.71336  1.0000
  C   C1006     1.0  0.95898  0.02830  0.64904  1.0000
  S   S332      1.0  0.63055  0.39425  0.52615  1.0000
  C   C1007     1.0  0.82790  0.19533  0.64384  1.0000
  C   C1008     1.0  0.80945  0.16645  0.63821  1.0000
  H   H996      1.0  0.80751  0.14833  0.63933  1.0000
  H   H997      1.0  0.87796  0.24333  0.62564  1.0000
  H   H998      1.0  0.78155  0.04127  0.66573  1.0000
  H   H999      1.0  0.83987  0.19998  0.64943  1.0000
  C   C1009     1.0  0.82515  0.17208  0.64536  1.0000
  H   H1000     1.0  0.98728  0.19887  0.65870  1.0000
  H   H1001     1.0  0.67730  0.08204  0.53108  1.0000
  C   C1010     1.0  0.60938  0.05234  0.50809  1.0000
  S   S333      1.0  0.68127  0.41158  0.52196  1.0000
  H   H1002     1.0  0.61085  0.28017  0.69449  1.0000
  C   C1011     1.0  0.85042  0.29882  0.71709  1.0000
  H   H1003     1.0  0.50831  0.38501  0.50321  1.0000
  H   H1004     1.0  0.93256  0.04006  0.63591  1.0000
  H   H1005     1.0  0.60424  0.33501  0.48832  1.0000
  C   C1012     1.0  0.49772  0.03600  0.48697  1.0000
  Fe  Fe166     1.0  0.68160  0.26833  0.72523  1.0000
  H   H1006     1.0  0.51481  0.30954  0.72432  1.0000
  H   H1007     1.0  0.88182  0.16066  0.70472  1.0000
  H   H1008     1.0  0.71811  0.34750  0.53834  1.0000
  H   H1009     1.0  0.77426  0.32689  0.56792  1.0000
  C   C1013     1.0  0.57146  0.30619  0.72891  1.0000
  H   H1010     1.0  0.72938  0.12963  0.73215  1.0000
  H   H1011     1.0  0.77145  0.28607  0.57911  1.0000
  C   C1014     1.0  0.53249  0.07239  0.49856  1.0000
  N   N84       1.0  0.83860  0.30204  0.72991  1.0000
  H   H1012     1.0  0.97883  0.08719  0.63407  1.0000
  H   H1013     1.0  0.97865  0.15927  0.66925  1.0000
  H   H1014     1.0  0.86628  0.36367  0.72594  1.0000
  H   H1015     1.0  0.50381  0.04182  0.50633  1.0000
  S   S334      1.0  0.67555  0.00441  0.54016  1.0000
  C   C1015     1.0  0.54567  0.34427  0.48695  1.0000
  C   C1016     1.0  0.89171  0.12149  0.73136  1.0000
  C   C1017     1.0  0.50771  0.04637  0.49526  1.0000
  S   S335      1.0  0.62814  0.99733  0.52952  1.0000
  N   N85       1.0  0.53747  0.35910  0.49648  1.0000
  H   H1016     1.0  0.53430  0.24402  0.73569  1.0000
  H   H1017     1.0  0.50248  0.36836  0.49150  1.0000
  H   H1018     1.0  0.62388  0.35637  0.71547  1.0000
  C   C1018     1.0  0.61572  0.35851  0.72591  1.0000
  Fe  Fe167     1.0  0.63117  0.29586  0.73026  1.0000
  H   H1019     1.0  0.95294  0.01200  0.65337  1.0000
  H   H1020     1.0  0.95990  0.34137  0.69979  1.0000
  C   C1019     1.0  0.62912  0.36126  0.73539  1.0000
  H   H1021     1.0  0.57916  0.00625  0.53073  1.0000
  C   C1020     1.0  0.98536  0.05484  0.64782  1.0000
  C   C1021     1.0  0.97544  0.33172  0.70407  1.0000
  H   H1022     1.0  0.49959  0.42145  0.53398  1.0000
  H   H1023     1.0  0.52166  0.15190  0.69668  1.0000
  H   H1024     1.0  0.55354  0.00857  0.51347  1.0000
  C   C1022     1.0  0.56285  0.99989  0.53380  1.0000
  C   C1023     1.0  0.82253  0.34196  0.72126  1.0000
  C   C1024     1.0  0.99521  0.16392  0.66988  1.0000
  C   C1025     1.0  0.87032  0.08286  0.73368  1.0000
  H   H1025     1.0  0.86201  0.06791  0.73459  1.0000
  C   C1026     1.0  0.52688  0.99333  0.52796  1.0000
  C   C1027     1.0  0.99645  0.34037  0.70068  1.0000
  H   H1026     1.0  0.99505  0.28070  0.72402  1.0000
  Fe  Fe168     1.0  0.93024  0.10749  0.94265  1.0000
  S   S336      1.0  0.92723  0.11427  0.92019  1.0000
  S   S337      1.0  0.95809  0.12164  0.94930  1.0000
  S   S338      1.0  0.96693  0.29308  0.95570  1.0000
  Fe  Fe169     1.0  0.95472  0.33197  0.95248  1.0000
  S   S339      1.0  0.96758  0.35225  0.93224  1.0000
  S   S340      1.0  0.83882  0.36282  0.75289  1.0000
  H   H1027     1.0  0.90208  0.35700  0.88687  1.0000
  H   H1028     1.0  0.84563  0.44457  0.83081  1.0000
  S   S341      1.0  0.97641  0.05146  0.85784  1.0000
  S   S342      1.0  0.65300  0.11369  0.75740  1.0000
  Fe  Fe170     1.0  0.90907  0.42536  0.84631  1.0000
  S   S343      1.0  0.92306  0.39689  0.86252  1.0000
  S   S344      1.0  0.89849  0.41920  0.82685  1.0000
  Fe  Fe171     1.0  0.96713  0.08533  0.96055  1.0000
  S   S345      1.0  0.93434  0.43924  0.87626  1.0000
  Fe  Fe172     1.0  0.95235  0.41653  0.86049  1.0000
  C   C1028     1.0  0.62071  0.20069  0.76233  1.0000
  Fe  Fe173     1.0  0.90408  0.42156  0.87718  1.0000
  S   S346      1.0  0.88740  0.40730  0.89818  1.0000
  S   S347      1.0  0.94040  0.44307  0.84295  1.0000
  S   S348      1.0  0.88719  0.44878  0.86125  1.0000
  Fe  Fe174     1.0  0.78681  0.16962  0.77939  1.0000
  S   S349      1.0  0.76609  0.14123  0.78834  1.0000
  S   S350      1.0  0.77250  0.20815  0.77841  1.0000
  Fe  Fe175     1.0  0.82913  0.13581  0.76713  1.0000
  S   S351      1.0  0.81221  0.10439  0.77512  1.0000
  S   S352      1.0  0.86472  0.13694  0.75432  1.0000
  Fe  Fe176     1.0  0.77930  0.12774  0.76821  1.0000
  S   S353      1.0  0.76029  0.12182  0.75192  1.0000
  Fe  Fe177     1.0  0.80074  0.12069  0.79448  1.0000
  S   S354      1.0  0.80437  0.10428  0.81644  1.0000
  S   S355      1.0  0.79751  0.15788  0.75899  1.0000
  S   S356      1.0  0.82022  0.15045  0.78686  1.0000
  Fe  Fe178     1.0  0.82246  0.34882  0.77411  1.0000
  S   S357      1.0  0.79460  0.36902  0.78854  1.0000
  Fe  Fe179     1.0  0.82331  0.30282  0.79286  1.0000
  S   S358      1.0  0.79628  0.31876  0.80894  1.0000
  S   S359      1.0  0.83762  0.26410  0.79709  1.0000
  Fe  Fe180     1.0  0.77712  0.33767  0.79159  1.0000
  S   S360      1.0  0.73878  0.33435  0.79517  1.0000
  Fe  Fe181     1.0  0.81606  0.34846  0.80476  1.0000
  S   S361      1.0  0.82213  0.35954  0.82409  1.0000
  S   S362      1.0  0.80299  0.31960  0.77576  1.0000
  S   S363      1.0  0.84502  0.33062  0.79010  1.0000
  Fe  Fe182     1.0  0.89947  0.03119  0.88185  1.0000
  H   H1029     1.0  0.64099  0.34765  0.76360  1.0000
  S   S364      1.0  0.87629  0.04609  0.89982  1.0000
  Fe  Fe183     1.0  0.94547  0.03313  0.86288  1.0000
  C   C1029     1.0  0.69544  0.12378  0.74314  1.0000
  Fe  Fe184     1.0  0.97415  0.29770  0.97591  1.0000
  Fe  Fe185     1.0  0.90449  0.02157  0.85288  1.0000
  S   S365      1.0  0.88788  0.02360  0.83402  1.0000
  C   C1030     1.0  0.91954  0.19633  0.96124  1.0000
  S   S366      1.0  0.90857  0.05270  0.86135  1.0000
  H   H1030     1.0  0.81541  0.32593  0.74225  1.0000
  C   C1031     1.0  0.83005  0.08398  0.81995  1.0000
  C   C1032     1.0  0.83910  0.06560  0.81235  1.0000
  C   C1033     1.0  0.85720  0.04746  0.81665  1.0000
  C   C1034     1.0  0.86654  0.04769  0.82846  1.0000
  C   C1035     1.0  0.85819  0.06658  0.83574  1.0000
  C   C1036     1.0  0.83989  0.08461  0.83152  1.0000
  H   H1031     1.0  0.83139  0.06479  0.80354  1.0000
  H   H1032     1.0  0.86359  0.03286  0.81099  1.0000
  H   H1033     1.0  0.86537  0.06696  0.84481  1.0000
  H   H1034     1.0  0.83286  0.09876  0.83747  1.0000
  C   C1037     1.0  0.79267  0.22230  0.78278  1.0000
  C   C1038     1.0  0.80425  0.21265  0.79407  1.0000
  C   C1039     1.0  0.81876  0.22519  0.79816  1.0000
  C   C1040     1.0  0.82166  0.24736  0.79098  1.0000
  C   C1041     1.0  0.81090  0.25644  0.77934  1.0000
  C   C1042     1.0  0.79635  0.24400  0.77528  1.0000
  H   H1035     1.0  0.80148  0.19586  0.79990  1.0000
  H   H1036     1.0  0.82720  0.21797  0.80711  1.0000
  H   H1037     1.0  0.81389  0.27295  0.77340  1.0000
  H   H1038     1.0  0.78786  0.25123  0.76635  1.0000
  C   C1043     1.0  0.87784  0.40178  0.82635  1.0000
  C   C1044     1.0  0.87407  0.39828  0.81354  1.0000
  C   C1045     1.0  0.85704  0.38543  0.81266  1.0000
  C   C1046     1.0  0.84348  0.37616  0.82460  1.0000
  C   C1047     1.0  0.84731  0.37960  0.83740  1.0000
  C   C1048     1.0  0.86446  0.39230  0.83829  1.0000
  H   H1039     1.0  0.88429  0.40565  0.80424  1.0000
  H   H1040     1.0  0.85427  0.38287  0.80274  1.0000
  H   H1041     1.0  0.83689  0.37246  0.84669  1.0000
  H   H1042     1.0  0.86710  0.39500  0.84820  1.0000
  C   C1049     1.0  0.68236  0.11748  0.75595  1.0000
  C   C1050     1.0  0.69296  0.11374  0.76779  1.0000
  C   C1051     1.0  0.71663  0.11581  0.76680  1.0000
  C   C1052     1.0  0.72992  0.12132  0.75393  1.0000
  C   C1053     1.0  0.88529  0.30262  0.74702  1.0000
  C   C1054     1.0  0.82286  0.02468  0.84784  1.0000
  H   H1043     1.0  0.68293  0.10880  0.77773  1.0000
  H   H1044     1.0  0.72481  0.11233  0.77593  1.0000
  H   H1045     1.0  0.55545  0.18176  0.77330  1.0000
  C   C1055     1.0  0.59277  0.21130  0.74622  1.0000
  S   S367      1.0  0.89242  0.05706  0.98325  1.0000
  C   C1056     1.0  0.93830  0.34077  0.88820  1.0000
  C   C1057     1.0  0.72503  0.18634  0.76715  1.0000
  H   H1046     1.0  0.85412  0.05323  0.87310  1.0000
  C   C1058     1.0  0.54891  0.20052  0.77138  1.0000
  H   H1047     1.0  0.80303  0.07777  0.86728  1.0000
  H   H1048     1.0  0.73636  0.18361  0.77487  1.0000
  C   C1059     1.0  0.71448  0.20508  0.74510  1.0000
  H   H1049     1.0  0.69684  0.31859  0.79366  1.0000
  C   C1060     1.0  0.94519  0.36876  0.92321  1.0000
  C   C1061     1.0  0.92180  0.37362  0.92967  1.0000
  C   C1062     1.0  0.90403  0.38579  0.92202  1.0000
  C   C1063     1.0  0.90969  0.39327  0.90793  1.0000
  C   C1064     1.0  0.93317  0.38871  0.90156  1.0000
  C   C1065     1.0  0.95086  0.37657  0.90919  1.0000
  H   H1050     1.0  0.91733  0.36815  0.94054  1.0000
  H   H1051     1.0  0.88591  0.38936  0.92700  1.0000
  H   H1052     1.0  0.93770  0.39363  0.89063  1.0000
  H   H1053     1.0  0.96886  0.37258  0.90406  1.0000
  C   C1066     1.0  0.68110  0.19633  0.73679  1.0000
  C   C1067     1.0  0.91215  0.09581  0.91481  1.0000
  C   C1068     1.0  0.89970  0.08053  0.92429  1.0000
  C   C1069     1.0  0.88827  0.06561  0.91967  1.0000
  C   C1070     1.0  0.88988  0.06540  0.90558  1.0000
  C   C1071     1.0  0.90252  0.08054  0.89613  1.0000
  C   C1072     1.0  0.91321  0.09602  0.90073  1.0000
  H   H1054     1.0  0.89865  0.08036  0.93518  1.0000
  H   H1055     1.0  0.87850  0.05395  0.92703  1.0000
  H   H1056     1.0  0.90375  0.08061  0.88525  1.0000
  H   H1057     1.0  0.92268  0.10791  0.89336  1.0000
  C   C1073     1.0  0.91427  0.34568  0.89326  1.0000
  H   H1058     1.0  0.60887  0.17576  0.75347  1.0000
  N   N86       1.0  0.92159  0.32369  0.91523  1.0000
  H   H1059     1.0  0.64827  0.37435  0.75349  1.0000
  H   H1060     1.0  0.63284  0.18744  0.76783  1.0000
  C   C1074     1.0  0.91932  0.23625  0.96473  1.0000
  H   H1061     1.0  0.98160  0.17747  0.98029  1.0000
  C   C1075     1.0  0.54561  0.23933  0.77668  1.0000
  H   H1062     1.0  0.67700  0.31771  0.77409  1.0000
  C   C1076     1.0  0.97852  0.05819  0.91866  1.0000
  H   H1063     1.0  0.89722  0.48920  0.88409  1.0000
  H   H1064     1.0  0.94492  0.34809  0.87779  1.0000
  C   C1077     1.0  0.86321  0.09793  0.74358  1.0000
  H   H1065     1.0  0.89232  0.46958  0.81908  1.0000
  H   H1066     1.0  0.89951  0.32820  0.93434  1.0000
  H   H1067     1.0  0.51101  0.10401  0.74630  1.0000
  S   S368      1.0  0.49691  0.30948  0.75352  1.0000
  S   S369      1.0  0.93661  0.01423  0.88411  1.0000
  C   C1078     1.0  0.83787  0.04598  0.87729  1.0000
  H   H1068     1.0  0.50709  0.23401  0.74320  1.0000
  N   N87       1.0  0.86673  0.30066  0.82039  1.0000
  C   C1079     1.0  0.87295  0.31943  0.82394  1.0000
  C   C1080     1.0  0.87979  0.29022  0.80960  1.0000
  C   C1081     1.0  0.89179  0.32917  0.81611  1.0000
  C   C1082     1.0  0.89877  0.29948  0.80154  1.0000
  C   C1083     1.0  0.90462  0.31923  0.80476  1.0000
  C   C1084     1.0  0.84636  0.29137  0.82848  1.0000
  H   H1069     1.0  0.86288  0.32739  0.83267  1.0000
  H   H1070     1.0  0.87517  0.27505  0.80692  1.0000
  H   H1071     1.0  0.89606  0.34461  0.81871  1.0000
  H   H1072     1.0  0.90852  0.29165  0.79270  1.0000
  H   H1073     1.0  0.91898  0.32691  0.79845  1.0000
  H   H1074     1.0  0.83185  0.30596  0.83146  1.0000
  H   H1075     1.0  0.83912  0.28138  0.82248  1.0000
  H   H1076     1.0  0.85148  0.27966  0.83788  1.0000
  N   N88       1.0  0.88810  0.09277  0.79708  1.0000
  C   C1085     1.0  0.90151  0.07078  0.79672  1.0000
  C   C1086     1.0  0.88742  0.10453  0.80769  1.0000
  C   C1087     1.0  0.91515  0.06022  0.80702  1.0000
  C   C1088     1.0  0.90095  0.09454  0.81812  1.0000
  C   C1089     1.0  0.91489  0.07223  0.81775  1.0000
  C   C1090     1.0  0.87325  0.10338  0.78651  1.0000
  H   H1077     1.0  0.90136  0.06107  0.78861  1.0000
  H   H1078     1.0  0.87609  0.12159  0.80822  1.0000
  H   H1079     1.0  0.92516  0.04247  0.80700  1.0000
  H   H1080     1.0  0.60302  0.25989  0.75573  1.0000
  H   H1081     1.0  0.92488  0.06391  0.82600  1.0000
  H   H1082     1.0  0.53465  0.19907  0.75351  1.0000
  C   C1091     1.0  0.90617  0.33691  0.90688  1.0000
  N   N89       1.0  0.98193  0.04890  0.90681  1.0000
  N   N90       1.0  0.74827  0.26700  0.79453  1.0000
  C   C1092     1.0  0.74650  0.27886  0.78157  1.0000
  C   C1093     1.0  0.73617  0.24920  0.79983  1.0000
  C   C1094     1.0  0.73243  0.27290  0.77352  1.0000
  C   C1095     1.0  0.72189  0.24280  0.79207  1.0000
  C   C1096     1.0  0.72004  0.25476  0.77884  1.0000
  C   C1097     1.0  0.76235  0.27395  0.80308  1.0000
  H   H1083     1.0  0.75602  0.29303  0.77740  1.0000
  H   H1084     1.0  0.73776  0.23968  0.81004  1.0000
  H   H1085     1.0  0.73097  0.28250  0.76328  1.0000
  H   H1086     1.0  0.71265  0.22841  0.79621  1.0000
  H   H1087     1.0  0.70910  0.24989  0.77272  1.0000
  H   H1088     1.0  0.77509  0.28460  0.79679  1.0000
  H   H1089     1.0  0.75062  0.28480  0.81050  1.0000
  H   H1090     1.0  0.77278  0.25829  0.80864  1.0000
  Fe  Fe186     1.0  0.91965  0.46430  0.85912  1.0000
  C   C1098     1.0  0.69293  0.32483  0.77226  1.0000
  H   H1091     1.0  0.88753  0.34132  0.91083  1.0000
  H   H1092     1.0  0.50204  0.17656  0.74245  1.0000
  C   C1099     1.0  0.60391  0.24149  0.75551  1.0000
  C   C1100     1.0  0.99585  0.05230  0.92718  1.0000
  Fe  Fe187     1.0  0.91624  0.08100  0.97069  1.0000
  Fe  Fe188     1.0  0.93150  0.12843  0.96801  1.0000
  C   C1101     1.0  0.91257  0.31442  0.92940  1.0000
  Fe  Fe189     1.0  0.67019  0.30669  0.74286  1.0000
  C   C1102     1.0  0.70196  0.33422  0.75895  1.0000
  H   H1093     1.0  0.78431  0.07664  0.84738  1.0000
  C   C1103     1.0  0.53376  0.24858  0.76546  1.0000
  H   H1094     1.0  0.51055  0.26261  0.74489  1.0000
  H   H1095     1.0  0.72944  0.35111  0.74648  1.0000
  H   H1096     1.0  0.75006  0.35068  0.76595  1.0000
  C   C1104     1.0  0.72477  0.33474  0.78111  1.0000
  C   C1105     1.0  0.97917  0.42623  0.90491  1.0000
  H   H1097     1.0  0.99293  0.05945  0.93667  1.0000
  C   C1106     1.0  0.61971  0.22444  0.76261  1.0000
  C   C1107     1.0  0.86853  0.31987  0.75323  1.0000
  S   S370      1.0  0.63363  0.29994  0.75170  1.0000
  C   C1108     1.0  0.84177  0.48829  0.83928  1.0000
  H   H1098     1.0  0.96073  0.07466  0.89435  1.0000
  C   C1109     1.0  0.70648  0.17427  0.76923  1.0000
  H   H1099     1.0  0.85815  0.27113  0.74018  1.0000
  N   N91       1.0  0.85700  0.47658  0.82964  1.0000
  H   H1100     1.0  0.82944  0.01024  0.84203  1.0000
  C   C1110     1.0  0.70411  0.32547  0.78334  1.0000
  H   H1101     1.0  0.84286  0.02843  0.88342  1.0000
  S   S371      1.0  0.94183  0.07041  0.95237  1.0000
  C   C1111     1.0  0.95341  0.46332  0.89939  1.0000
  C   C1112     1.0  0.72913  0.20183  0.75502  1.0000
  H   H1102     1.0  0.90017  0.10373  0.82662  1.0000
  S   S372      1.0  0.91746  0.33051  0.96219  1.0000
  H   H1103     1.0  0.62293  0.37580  0.76658  1.0000
  H   H1104     1.0  0.86072  0.31588  0.76381  1.0000
  H   H1105     1.0  0.82376  0.48552  0.84213  1.0000
  C   C1113     1.0  0.80835  0.06254  0.86206  1.0000
  H   H1106     1.0  0.54916  0.25093  0.78288  1.0000
  N   N92       1.0  0.69621  0.19325  0.74727  1.0000
  H   H1107     1.0  0.74372  0.21107  0.75331  1.0000
  S   S373      1.0  0.89221  0.00133  0.87339  1.0000
  C   C1114     1.0  0.73418  0.34346  0.76775  1.0000
  S   S374      1.0  0.68682  0.33642  0.74510  1.0000
  Fe  Fe190     1.0  0.93038  0.29148  0.96671  1.0000
  N   N93       1.0  0.82583  0.04451  0.86607  1.0000
  H   H1108     1.0  0.57903  0.24829  0.74139  1.0000
  S   S375      1.0  0.93065  0.15700  0.98053  1.0000
  C   C1115     1.0  0.72253  0.34360  0.75674  1.0000
  S   S376      1.0  0.68841  0.26899  0.74633  1.0000
  H   H1109     1.0  0.90949  0.22758  0.94697  1.0000
  C   C1116     1.0  0.95388  0.32713  0.89675  1.0000
  H   H1110     1.0  0.56331  0.20781  0.78796  1.0000
  C   C1117     1.0  0.94518  0.31863  0.91032  1.0000
  S   S377      1.0  0.59515  0.13483  0.74060  1.0000
  H   H1111     1.0  0.95747  0.30846  0.91699  1.0000
  H   H1112     1.0  0.98421  0.10904  0.97400  1.0000
  H   H1113     1.0  0.84952  0.09449  0.75209  1.0000
  C   C1118     1.0  0.83327  0.02584  0.85904  1.0000
  H   H1114     1.0  0.93569  0.47353  0.89946  1.0000
  Fe  Fe191     1.0  0.65169  0.26211  0.75329  1.0000
  H   H1115     1.0  0.92684  0.30827  0.93579  1.0000
  H   H1116     1.0  0.54170  0.30755  0.76144  1.0000
  C   C1119     1.0  0.84856  0.46036  0.82321  1.0000
  S   S378      1.0  0.90244  0.11747  0.96044  1.0000
  C   C1120     1.0  0.54462  0.30740  0.75049  1.0000
  C   C1121     1.0  0.59038  0.23493  0.74735  1.0000
  C   C1122     1.0  0.52543  0.30845  0.74380  1.0000
  H   H1117     1.0  0.87373  0.12239  0.78344  1.0000
  H   H1118     1.0  0.98513  0.00230  0.86874  1.0000
  C   C1123     1.0  0.89404  0.42296  0.98407  1.0000
  H   H1119     1.0  0.94130  0.43176  0.91007  1.0000
  H   H1120     1.0  0.58224  0.30491  0.74837  1.0000
  C   C1124     1.0  0.86153  0.34189  0.74564  1.0000
  H   H1121     1.0  0.92487  0.39039  0.97280  1.0000
  H   H1122     1.0  0.80472  0.13214  0.73674  1.0000
  H   H1123     1.0  0.82690  0.27168  0.74154  1.0000
  S   S379      1.0  0.64116  0.23308  0.76943  1.0000
  H   H1124     1.0  0.87931  0.09528  0.77699  1.0000
  H   H1125     1.0  0.83185  0.46890  0.81930  1.0000
  H   H1126     1.0  0.91649  0.18456  0.95500  1.0000
  H   H1127     1.0  0.56336  0.35823  0.74706  1.0000
  C   C1125     1.0  0.87384  0.11731  0.74239  1.0000
  N   N94       1.0  0.52994  0.23417  0.75728  1.0000
  C   C1126     1.0  0.71917  0.12548  0.74214  1.0000
  H   H1128     1.0  0.97265  0.32371  0.89299  1.0000
  H   H1129     1.0  0.98178  0.40779  0.90927  1.0000
  H   H1130     1.0  0.93426  0.41468  0.96081  1.0000
  H   H1131     1.0  0.96824  0.04651  0.88886  1.0000
  S   S380      1.0  0.98868  0.39638  0.86293  1.0000
  H   H1132     1.0  0.86155  0.45431  0.81439  1.0000
  H   H1133     1.0  0.97616  0.21864  0.96819  1.0000
  S   S381      1.0  0.96589  0.33702  0.97153  1.0000
  H   H1134     1.0  0.83760  0.28882  0.75129  1.0000
  H   H1135     1.0  0.94674  0.05083  0.90390  1.0000
  C   C1127     1.0  0.69215  0.17794  0.75911  1.0000
  H   H1136     1.0  0.90409  0.29928  0.92960  1.0000
  C   C1128     1.0  0.60736  0.19413  0.75405  1.0000
  H   H1137     1.0  0.85476  0.10135  0.79047  1.0000
  H   H1138     1.0  0.79738  0.04273  0.83472  1.0000
  H   H1139     1.0  0.89041  0.28553  0.75292  1.0000
  S   S382      1.0  0.91330  0.26684  0.95894  1.0000
  C   C1129     1.0  0.56761  0.30586  0.74311  1.0000
  S   S383      1.0  0.94243  0.00373  0.85259  1.0000
  C   C1130     1.0  0.91560  0.22072  0.95671  1.0000
  C   C1131     1.0  0.92676  0.18734  0.97398  1.0000
  C   C1132     1.0  0.63339  0.36541  0.75860  1.0000
  C   C1133     1.0  0.96355  0.05548  0.89806  1.0000
  C   C1134     1.0  0.80492  0.04290  0.84375  1.0000
  C   C1135     1.0  0.99521  0.18777  0.97930  1.0000
  C   C1136     1.0  0.55342  0.21515  0.77956  1.0000
  C   C1137     1.0  0.79755  0.06195  0.85089  1.0000
  H   H1140     1.0  0.82655  0.05737  0.88457  1.0000
  H   H1141     1.0  0.98571  0.44660  0.85585  1.0000
  H   H1142     1.0  0.84781  0.01202  0.86179  1.0000
  C   C1138     1.0  0.87997  0.47945  0.82638  1.0000
  C   C1139     1.0  0.59570  0.36204  0.75293  1.0000
  H   H1143     1.0  0.67790  0.16829  0.76072  1.0000
  C   C1140     1.0  0.51996  0.24419  0.74467  1.0000
  H   H1144     1.0  0.55220  0.10873  0.73696  1.0000
  H   H1145     1.0  0.96225  0.07019  0.92158  1.0000
  N   N95       1.0  0.97244  0.47324  0.89315  1.0000
  C   C1141     1.0  0.53705  0.21041  0.76023  1.0000
  H   H1146     1.0  0.70338  0.16187  0.77852  1.0000
  C   C1142     1.0  0.93248  0.40641  0.97175  1.0000
  C   C1143     1.0  0.95648  0.43971  0.90542  1.0000
  C   C1144     1.0  0.84029  0.28242  0.74128  1.0000
  H   H1147     1.0  0.58783  0.36286  0.76354  1.0000
  H   H1148     1.0  0.95024  0.40047  0.97484  1.0000
  S   S384      1.0  0.94261  0.09258  0.97980  1.0000
  C   C1145     1.0  0.92705  0.22720  0.97734  1.0000
  C   C1146     1.0  0.99215  0.21086  0.97252  1.0000
  H   H1149     1.0  0.52797  0.26735  0.76323  1.0000
  C   C1147     1.0  0.92724  0.43962  0.98413  1.0000
  H   H1150     1.0  0.88643  0.40976  0.98121  1.0000
  Fe  Fe192     1.0  0.63487  0.12688  0.73875  1.0000
  H   H1151     1.0  0.66233  0.20151  0.74135  1.0000
  H   H1152     1.0  0.94588  0.43989  0.98118  1.0000
  N   N96       1.0  0.61896  0.36332  0.74866  1.0000
  N   N97       1.0  0.91762  0.42314  0.98038  1.0000
  C   C1148     1.0  0.58176  0.35947  0.74368  1.0000
  H   H1153     1.0  0.92971  0.23899  0.98367  1.0000
  Fe  Fe193     1.0  0.92957  0.33253  0.98182  1.0000
  C   C1149     1.0  0.93052  0.20287  0.98199  1.0000
  C   C1150     1.0  0.99475  0.46019  0.89273  1.0000
  C   C1151     1.0  0.91447  0.79639  0.08397  1.0000
  Fe  Fe194     1.0  0.95882  0.76403  0.21977  1.0000
  S   S385      1.0  0.96859  0.79924  0.21768  1.0000
  S   S386      1.0  0.95386  0.74987  0.20139  1.0000
  H   H1154     1.0  0.81467  0.76979  0.18723  1.0000
  C   C1152     1.0  0.90970  0.76453  0.10794  1.0000
  H   H1155     1.0  0.86591  0.75258  0.10504  1.0000
  C   C1153     1.0  0.62067  0.67761  0.22463  1.0000
  H   H1156     1.0  0.51360  0.79504  0.17839  1.0000
  H   H1157     1.0  0.74125  0.58843  0.10984  1.0000
  C   C1154     1.0  0.75086  0.80359  0.18659  1.0000
  H   H1158     1.0  0.78342  0.59782  0.09055  1.0000
  C   C1155     1.0  0.92363  0.78138  0.10676  1.0000
  H   H1159     1.0  0.93196  0.78252  0.11530  1.0000
  Fe  Fe195     1.0  0.65668  0.79318  0.21208  1.0000
  S   S387      1.0  0.65788  0.80061  0.18920  1.0000
  C   C1156     1.0  0.99301  0.53289  0.06634  1.0000
  Fe  Fe196     1.0  0.64763  0.74421  0.21432  1.0000
  S   S388      1.0  0.64805  0.74693  0.19171  1.0000
  C   C1157     1.0  0.99622  0.84734  0.99394  1.0000
  Fe  Fe197     1.0  0.67939  0.76407  0.18959  1.0000
  S   S389      1.0  0.71353  0.75004  0.17664  1.0000
  Fe  Fe198     1.0  0.62629  0.78288  0.19329  1.0000
  S   S390      1.0  0.59334  0.79957  0.18374  1.0000
  S   S391      1.0  0.68061  0.75818  0.21218  1.0000
  S   S392      1.0  0.62346  0.77867  0.21619  1.0000
  Fe  Fe199     1.0  0.62887  0.61979  0.17354  1.0000
  N   N98       1.0  0.86014  0.58486  0.20006  1.0000
  S   S393      1.0  0.65498  0.62912  0.15469  1.0000
  Fe  Fe200     1.0  0.59179  0.64428  0.19419  1.0000
  S   S394      1.0  0.57273  0.67853  0.20052  1.0000
  S   S395      1.0  0.59028  0.63525  0.17379  1.0000
  Fe  Fe201     1.0  0.85555  0.79762  0.15796  1.0000
  S   S396      1.0  0.88476  0.78659  0.14130  1.0000
  S   S397      1.0  0.85706  0.79689  0.18033  1.0000
  Fe  Fe202     1.0  0.81817  0.80568  0.13954  1.0000
  S   S398      1.0  0.84433  0.79529  0.12111  1.0000
  S   S399      1.0  0.77886  0.81825  0.14058  1.0000
  Fe  Fe203     1.0  0.86019  0.76638  0.13656  1.0000
  S   S400      1.0  0.87420  0.72869  0.13436  1.0000
  Fe  Fe204     1.0  0.86676  0.81667  0.12727  1.0000
  S   S401      1.0  0.89124  0.83921  0.11342  1.0000
  S   S402      1.0  0.83235  0.77489  0.15428  1.0000
  S   S403      1.0  0.83930  0.82949  0.14453  1.0000
  Fe  Fe205     1.0  0.79117  0.59623  0.13992  1.0000
  S   S404      1.0  0.82618  0.57313  0.13394  1.0000
  S   S405      1.0  0.76236  0.58132  0.15495  1.0000
  Fe  Fe206     1.0  0.80816  0.64059  0.12497  1.0000
  S   S406      1.0  0.84434  0.62142  0.11767  1.0000
  S   S407      1.0  0.79738  0.67994  0.12121  1.0000
  Fe  Fe207     1.0  0.82592  0.59498  0.11302  1.0000
  Fe  Fe208     1.0  0.84155  0.60152  0.13908  1.0000
  S   S408      1.0  0.87113  0.59392  0.15155  1.0000
  S   S409      1.0  0.78945  0.61602  0.11864  1.0000
  S   S410      1.0  0.80666  0.62258  0.14671  1.0000
  H   H1160     1.0  0.85708  0.57066  0.18256  1.0000
  S   S411      1.0  0.92071  0.51778  0.03493  1.0000
  H   H1161     1.0  0.55663  0.81556  0.20864  1.0000
  H   H1162     1.0  0.49784  0.83687  0.19861  1.0000
  C   C1158     1.0  0.53485  0.76050  0.18176  1.0000
  S   S412      1.0  0.89133  0.51365  0.00305  1.0000
  Fe  Fe209     1.0  0.92342  0.89010  0.03596  1.0000
  S   S413      1.0  0.95286  0.86987  0.02256  1.0000
  S   S414      1.0  0.89407  0.87302  0.04928  1.0000
  Fe  Fe210     1.0  0.93988  0.93630  0.02493  1.0000
  S   S415      1.0  0.97063  0.92000  0.01081  1.0000
  S   S416      1.0  0.65917  0.81774  0.22609  1.0000
  Fe  Fe211     1.0  0.94556  0.90032  0.00592  1.0000
  C   C1159     1.0  0.82091  0.61842  0.19394  1.0000
  Fe  Fe212     1.0  0.97572  0.89107  0.02838  1.0000
  C   C1160     1.0  0.69400  0.61052  0.21791  1.0000
  S   S417      1.0  0.91402  0.91918  0.01864  1.0000
  S   S418      1.0  0.94701  0.90877  0.04325  1.0000
  H   H1163     1.0  0.51315  0.70607  0.16242  1.0000
  H   H1164     1.0  0.80953  0.54615  0.10228  1.0000
  H   H1165     1.0  0.97731  0.85020  0.99724  1.0000
  N   N99       1.0  0.76941  0.81421  0.18030  1.0000
  H   H1166     1.0  0.93160  0.52265  0.06378  1.0000
  C   C1161     1.0  0.79319  0.55088  0.10909  1.0000
  H   H1167     1.0  0.73287  0.81305  0.18650  1.0000
  H   H1168     1.0  0.92227  0.86318  0.99778  1.0000
  S   S419      1.0  0.62289  0.58384  0.18390  1.0000
  H   H1169     1.0  0.97040  0.69720  0.21493  1.0000
  C   C1162     1.0  0.53478  0.61664  0.16494  1.0000
  H   H1170     1.0  0.93420  0.52928  0.00319  1.0000
  H   H1171     1.0  0.83514  0.81938  0.20518  1.0000
  S   S420      1.0  0.64284  0.71122  0.22879  1.0000
  H   H1172     1.0  0.80485  0.82802  0.22535  1.0000
  C   C1163     1.0  0.79662  0.77907  0.18707  1.0000
  H   H1173     1.0  0.52242  0.69450  0.19401  1.0000
  C   C1164     1.0  0.75475  0.78017  0.19290  1.0000
  C   C1165     1.0  0.68714  0.81704  0.23006  1.0000
  C   C1166     1.0  0.98739  0.69427  0.21832  1.0000
  H   H1174     1.0  0.87394  0.83119  0.20252  1.0000
  H   H1175     1.0  0.74814  0.84317  0.16951  1.0000
  S   S421      1.0  0.98849  0.51454  0.02516  1.0000
  C   C1167     1.0  0.86236  0.53947  0.09657  1.0000
  C   C1168     1.0  0.87620  0.51873  0.09221  1.0000
  C   C1169     1.0  0.88179  0.51663  0.07819  1.0000
  H   H1176     1.0  0.85811  0.54085  0.10739  1.0000
  H   H1177     1.0  0.50620  0.84523  0.21308  1.0000
  C   C1170     1.0  0.89146  0.84854  0.09563  1.0000
  C   C1171     1.0  0.87400  0.84529  0.08890  1.0000
  C   C1172     1.0  0.87515  0.85266  0.07464  1.0000
  C   C1173     1.0  0.89386  0.86308  0.06702  1.0000
  C   C1174     1.0  0.91144  0.86607  0.07374  1.0000
  C   C1175     1.0  0.91011  0.85903  0.08800  1.0000
  H   H1178     1.0  0.85956  0.83723  0.09468  1.0000
  H   H1179     1.0  0.86144  0.85034  0.06951  1.0000
  H   H1180     1.0  0.92593  0.87407  0.06799  1.0000
  H   H1181     1.0  0.92373  0.86153  0.09315  1.0000
  C   C1176     1.0  0.85239  0.71524  0.13127  1.0000
  C   C1177     1.0  0.83117  0.72877  0.12769  1.0000
  C   C1178     1.0  0.81432  0.71791  0.12457  1.0000
  C   C1179     1.0  0.81844  0.69347  0.12528  1.0000
  C   C1180     1.0  0.83945  0.68000  0.12917  1.0000
  C   C1181     1.0  0.85649  0.69086  0.13205  1.0000
  H   H1182     1.0  0.82783  0.74762  0.12714  1.0000
  H   H1183     1.0  0.79823  0.72854  0.12154  1.0000
  H   H1184     1.0  0.84275  0.66118  0.12989  1.0000
  H   H1185     1.0  0.87280  0.68029  0.13492  1.0000
  H   H1186     1.0  0.73592  0.56832  0.13386  1.0000
  H   H1187     1.0  0.80513  0.52634  0.12633  1.0000
  C   C1182     1.0  0.68488  0.61642  0.15519  1.0000
  C   C1183     1.0  0.70218  0.62410  0.14466  1.0000
  C   C1184     1.0  0.72613  0.61403  0.14473  1.0000
  C   C1185     1.0  0.73283  0.59600  0.15524  1.0000
  C   C1186     1.0  0.71555  0.58861  0.16587  1.0000
  C   C1187     1.0  0.69166  0.59895  0.16593  1.0000
  H   H1188     1.0  0.69700  0.63770  0.13637  1.0000
  H   H1189     1.0  0.73933  0.61983  0.13650  1.0000
  H   H1190     1.0  0.72063  0.57467  0.17403  1.0000
  H   H1191     1.0  0.67844  0.59302  0.17412  1.0000
  H   H1192     1.0  0.78106  0.74962  0.19786  1.0000
  C   C1188     1.0  0.85156  0.60241  0.20784  1.0000
  C   C1189     1.0  0.73142  0.76939  0.16685  1.0000
  C   C1190     1.0  0.75492  0.76034  0.16187  1.0000
  C   C1191     1.0  0.76957  0.77517  0.15377  1.0000
  C   C1192     1.0  0.76070  0.79911  0.15041  1.0000
  C   C1193     1.0  0.73697  0.80806  0.15504  1.0000
  C   C1194     1.0  0.72240  0.79329  0.16339  1.0000
  H   H1193     1.0  0.76186  0.74178  0.16430  1.0000
  H   H1194     1.0  0.78759  0.76795  0.14989  1.0000
  H   H1195     1.0  0.72991  0.82651  0.15229  1.0000
  H   H1196     1.0  0.70416  0.80033  0.16698  1.0000
  H   H1197     1.0  0.88181  0.85215  0.21996  1.0000
  C   C1195     1.0  0.60286  0.71807  0.21768  1.0000
  C   C1196     1.0  0.58702  0.71064  0.21150  1.0000
  C   C1197     1.0  0.58889  0.68685  0.21109  1.0000
  C   C1198     1.0  0.60527  0.67023  0.21799  1.0000
  H   H1198     1.0  0.91057  0.83082  0.98961  1.0000
  H   H1199     1.0  0.60232  0.73659  0.21714  1.0000
  H   H1200     1.0  0.57412  0.72338  0.20643  1.0000
  H   H1201     1.0  0.60644  0.65171  0.21798  1.0000
  C   C1199     1.0  0.90038  0.77953  0.08557  1.0000
  N   N100      1.0  0.89848  0.76362  0.09737  1.0000
  H   H1202     1.0  0.82550  0.63370  0.21089  1.0000
  H   H1203     1.0  0.93650  0.81073  0.09374  1.0000
  H   H1204     1.0  0.54606  0.81565  0.17831  1.0000
  Fe  Fe213     1.0  0.93371  0.63892  0.21902  1.0000
  C   C1200     1.0  0.70776  0.80839  0.22159  1.0000
  C   C1201     1.0  0.82977  0.60045  0.18606  1.0000
  H   H1205     1.0  0.80595  0.63182  0.19134  1.0000
  H   H1206     1.0  0.87756  0.53407  0.05774  1.0000
  H   H1207     1.0  0.70659  0.80187  0.21243  1.0000
  C   C1202     1.0  0.50644  0.79497  0.21284  1.0000
  C   C1203     1.0  0.87187  0.61614  0.16084  1.0000
  C   C1204     1.0  0.85500  0.63690  0.16045  1.0000
  C   C1205     1.0  0.88867  0.61218  0.16959  1.0000
  H   H1208     1.0  0.84240  0.64051  0.15348  1.0000
  H   H1209     1.0  0.90208  0.59641  0.16974  1.0000
  C   C1206     1.0  0.88426  0.78416  0.18593  1.0000
  C   C1207     1.0  0.88545  0.78014  0.20000  1.0000
  C   C1208     1.0  0.90690  0.77017  0.20475  1.0000
  C   C1209     1.0  0.92721  0.76366  0.19549  1.0000
  C   C1210     1.0  0.92597  0.76725  0.18143  1.0000
  C   C1211     1.0  0.90459  0.77769  0.17665  1.0000
  H   H1210     1.0  0.86976  0.78448  0.20730  1.0000
  H   H1211     1.0  0.90756  0.76698  0.21563  1.0000
  H   H1212     1.0  0.94164  0.76222  0.17421  1.0000
  H   H1213     1.0  0.90397  0.78081  0.16579  1.0000
  H   H1214     1.0  0.76457  0.85055  0.18107  1.0000
  C   C1212     1.0  0.76997  0.54566  0.13159  1.0000
  C   C1213     1.0  0.65854  0.59405  0.22539  1.0000
  S   S422      1.0  0.63077  0.63229  0.19291  1.0000
  C   C1214     1.0  0.92987  0.53390  0.99292  1.0000
  H   H1215     1.0  0.70694  0.64537  0.17577  1.0000
  S   S423      1.0  0.91293  0.61922  0.21025  1.0000
  C   C1215     1.0  0.76506  0.83870  0.17363  1.0000
  S   S424      1.0  0.83468  0.58390  0.09181  1.0000
  C   C1216     1.0  0.85376  0.55818  0.08692  1.0000
  C   C1217     1.0  0.94882  0.52555  0.06459  1.0000
  C   C1218     1.0  0.67556  0.60185  0.21481  1.0000
  H   H1216     1.0  0.80680  0.81093  0.17590  1.0000
  C   C1219     1.0  0.95933  0.54161  0.05457  1.0000
  C   C1220     1.0  0.51931  0.65839  0.19570  1.0000
  H   H1217     1.0  0.88062  0.74290  0.08901  1.0000
  H   H1218     1.0  0.89731  0.57613  0.19793  1.0000
  H   H1219     1.0  0.89128  0.72921  0.10468  1.0000
  C   C1221     1.0  0.51265  0.83518  0.20439  1.0000
  S   S425      1.0  0.90818  0.67317  0.21619  1.0000
  H   H1220     1.0  0.70772  0.61552  0.20979  1.0000
  H   H1221     1.0  0.59297  0.74953  0.18562  1.0000
  C   C1222     1.0  0.53827  0.76365  0.21904  1.0000
  H   H1222     1.0  0.76803  0.53748  0.14228  1.0000
  H   H1223     1.0  0.85274  0.57041  0.06538  1.0000
  H   H1224     1.0  0.89479  0.57857  0.99211  1.0000
  S   S426      1.0  0.86669  0.66698  0.19090  1.0000
  C   C1223     1.0  0.51617  0.62802  0.15771  1.0000
  H   H1225     1.0  0.57183  0.77400  0.21692  1.0000
  N   N101      1.0  0.65278  0.67987  0.17953  1.0000
  C   C1224     1.0  0.65223  0.68576  0.19212  1.0000
  C   C1225     1.0  0.67247  0.66622  0.17348  1.0000
  C   C1226     1.0  0.67130  0.67711  0.19926  1.0000
  C   C1227     1.0  0.69178  0.65701  0.18039  1.0000
  C   C1228     1.0  0.69113  0.66257  0.19337  1.0000
  C   C1229     1.0  0.63232  0.68876  0.17240  1.0000
  H   H1226     1.0  0.63684  0.69699  0.19674  1.0000
  H   H1227     1.0  0.67315  0.66205  0.16336  1.0000
  H   H1228     1.0  0.67057  0.68143  0.20939  1.0000
  H   H1229     1.0  0.70589  0.65559  0.19893  1.0000
  H   H1230     1.0  0.63307  0.70669  0.16676  1.0000
  H   H1231     1.0  0.63151  0.67703  0.16510  1.0000
  H   H1232     1.0  0.61561  0.68939  0.17985  1.0000
  N   N102      1.0  0.89430  0.71237  0.17495  1.0000
  C   C1230     1.0  0.90637  0.71680  0.18423  1.0000
  C   C1231     1.0  0.90340  0.69416  0.16769  1.0000
  C   C1232     1.0  0.92848  0.70328  0.18618  1.0000
  C   C1233     1.0  0.92513  0.67977  0.16971  1.0000
  C   C1234     1.0  0.93772  0.68440  0.17903  1.0000
  C   C1235     1.0  0.87078  0.72627  0.17356  1.0000
  H   H1233     1.0  0.89879  0.73070  0.19032  1.0000
  H   H1234     1.0  0.89345  0.69019  0.16065  1.0000
  H   H1235     1.0  0.93802  0.70703  0.19350  1.0000
  H   H1236     1.0  0.93186  0.66489  0.16428  1.0000
  H   H1237     1.0  0.95440  0.67317  0.18091  1.0000
  H   H1238     1.0  0.85780  0.71989  0.18224  1.0000
  H   H1239     1.0  0.87045  0.74515  0.17351  1.0000
  H   H1240     1.0  0.86528  0.72468  0.16385  1.0000
  N   N103      1.0  0.73624  0.71913  0.13733  1.0000
  C   C1236     1.0  0.74807  0.72986  0.12561  1.0000
  C   C1237     1.0  0.71884  0.73210  0.14542  1.0000
  C   C1238     1.0  0.74295  0.75424  0.12188  1.0000
  C   C1239     1.0  0.71277  0.75644  0.14176  1.0000
  C   C1240     1.0  0.72523  0.76760  0.13006  1.0000
  C   C1241     1.0  0.74327  0.69379  0.14154  1.0000
  H   H1241     1.0  0.76179  0.71958  0.11918  1.0000
  H   H1242     1.0  0.70986  0.72382  0.15494  1.0000
  H   H1243     1.0  0.75288  0.76272  0.11280  1.0000
  H   H1244     1.0  0.69915  0.76665  0.14832  1.0000
  H   H1245     1.0  0.72137  0.78657  0.12748  1.0000
  H   H1246     1.0  0.72974  0.68650  0.14946  1.0000
  H   H1247     1.0  0.74615  0.68433  0.13260  1.0000
  H   H1248     1.0  0.76012  0.69010  0.14572  1.0000
  N   N104      1.0  0.87313  0.93428  0.05240  1.0000
  C   C1242     1.0  0.87044  0.92051  0.06496  1.0000
  C   C1243     1.0  0.88947  0.94852  0.04926  1.0000
  C   C1244     1.0  0.88419  0.92090  0.07481  1.0000
  C   C1245     1.0  0.90354  0.94933  0.05886  1.0000
  C   C1246     1.0  0.90092  0.93533  0.07169  1.0000
  C   C1247     1.0  0.85909  0.93283  0.04211  1.0000
  H   H1249     1.0  0.85814  0.90853  0.06726  1.0000
  H   H1250     1.0  0.89203  0.95910  0.03922  1.0000
  H   H1251     1.0  0.88234  0.90951  0.08464  1.0000
  H   H1252     1.0  0.91682  0.96031  0.05616  1.0000
  H   H1253     1.0  0.91210  0.93537  0.07910  1.0000
  H   H1254     1.0  0.84030  0.93356  0.04676  1.0000
  H   H1255     1.0  0.85998  0.94743  0.03336  1.0000
  H   H1256     1.0  0.86577  0.91601  0.03801  1.0000
  H   H1257     1.0  0.88307  0.55160  0.19877  1.0000
  C   C1248     1.0  0.98210  0.51676  0.07611  1.0000
  H   H1258     1.0  0.76222  0.58370  0.08592  1.0000
  S   S427      1.0  0.98718  0.74561  0.23216  1.0000
  C   C1249     1.0  0.54456  0.80333  0.21138  1.0000
  C   C1250     1.0  0.53085  0.78502  0.17990  1.0000
  C   C1251     1.0  0.90964  0.52834  0.99000  1.0000
  C   C1252     1.0  0.55753  0.74784  0.18338  1.0000
  H   H1259     1.0  0.89214  0.98327  0.01500  1.0000
  Fe  Fe214     1.0  0.91144  0.49778  0.02048  1.0000
  C   C1253     1.0  0.88333  0.74630  0.09904  1.0000
  H   H1260     1.0  0.91575  0.80921  0.07469  1.0000
  H   H1261     1.0  0.56087  0.72888  0.18456  1.0000
  C   C1254     1.0  0.99284  0.61398  0.23066  1.0000
  C   C1255     1.0  0.82168  0.83347  0.22414  1.0000
  C   C1256     1.0  0.83185  0.61946  0.20491  1.0000
  H   H1262     1.0  0.74581  0.80261  0.21814  1.0000
  C   C1257     1.0  0.54929  0.79668  0.17987  1.0000
  C   C1258     1.0  0.57162  0.78400  0.18230  1.0000
  H   H1263     1.0  0.51920  0.64134  0.14891  1.0000
  C   C1259     1.0  0.84965  0.58384  0.18920  1.0000
  H   H1264     1.0  0.68602  0.54669  0.22170  1.0000
  N   N105      1.0  0.96019  0.51341  0.07519  1.0000
  H   H1265     1.0  0.88205  0.56349  0.21405  1.0000
  S   S428      1.0  0.63798  0.57926  0.22199  1.0000
  Fe  Fe215     1.0  0.62185  0.59779  0.20339  1.0000
  C   C1260     1.0  0.88172  0.56817  0.20281  1.0000
  C   C1261     1.0  0.99514  0.62962  0.21838  1.0000
  H   H1266     1.0  0.86020  0.60347  0.21626  1.0000
  Fe  Fe216     1.0  0.58426  0.60047  0.18577  1.0000
  H   H1267     1.0  0.79301  0.57076  0.08374  1.0000
  S   S429      1.0  0.97114  0.64238  0.20960  1.0000
  S   S430      1.0  0.51182  0.74531  0.18223  1.0000
  C   C1262     1.0  0.86044  0.83528  0.21120  1.0000
  H   H1268     1.0  0.89088  0.77940  0.07736  1.0000
  C   C1263     1.0  0.79207  0.80240  0.18068  1.0000
  S   S431      1.0  0.58288  0.61093  0.20626  1.0000
  S   S432      1.0  0.55443  0.58283  0.18469  1.0000
  C   C1264     1.0  0.88773  0.62816  0.17847  1.0000
  C   C1265     1.0  0.87351  0.53549  0.06855  1.0000
  C   C1266     1.0  0.85941  0.55606  0.07291  1.0000
  H   H1269     1.0  0.73995  0.77158  0.19744  1.0000
  C   C1267     1.0  0.85404  0.65288  0.16936  1.0000
  H   H1270     1.0  0.90076  0.62489  0.18509  1.0000
  C   C1268     1.0  0.55331  0.77978  0.21607  1.0000
  C   C1269     1.0  0.77780  0.76784  0.19309  1.0000
  C   C1270     1.0  0.69891  0.54349  0.22896  1.0000
  S   S433      1.0  0.93515  0.97460  0.02667  1.0000
  N   N106      1.0  0.77542  0.56802  0.10455  1.0000
  C   C1271     1.0  0.75193  0.56309  0.12687  1.0000
  C   C1272     1.0  0.75507  0.57436  0.11328  1.0000
  C   C1273     1.0  0.86994  0.64815  0.17872  1.0000
  C   C1274     1.0  0.77857  0.58068  0.09049  1.0000
  H   H1271     1.0  0.84055  0.66860  0.16922  1.0000
  H   H1272     1.0  0.52664  0.84312  0.19718  1.0000
  C   C1275     1.0  0.50892  0.59269  0.17992  1.0000
  H   H1273     1.0  0.82195  0.59991  0.17719  1.0000
  H   H1274     1.0  0.88250  0.50420  0.09975  1.0000
  H   H1275     1.0  0.50613  0.57881  0.18844  1.0000
  C   C1276     1.0  0.57576  0.75950  0.18393  1.0000
  C   C1277     1.0  0.79077  0.53949  0.12268  1.0000
  H   H1276     1.0  0.67512  0.60022  0.20432  1.0000
  C   C1278     1.0  0.83868  0.82855  0.21273  1.0000
  C   C1279     1.0  0.72985  0.80886  0.22480  1.0000
  N   N107      1.0  0.52149  0.81053  0.20955  1.0000
  H   H1277     1.0  0.54494  0.74525  0.22242  1.0000
  H   H1278     1.0  0.51066  0.62418  0.19801  1.0000
  H   H1279     1.0  0.55204  0.62115  0.16170  1.0000
  C   C1280     1.0  0.53128  0.59865  0.17593  1.0000
  Fe  Fe217     1.0  0.88645  0.65278  0.20878  1.0000
  H   H1280     1.0  0.77900  0.84185  0.16467  1.0000
  H   H1281     1.0  0.95057  0.55069  0.04595  1.0000
  H   H1282     1.0  0.90777  0.75234  0.11741  1.0000
  H   H1283     1.0  0.53822  0.65186  0.19454  1.0000
  C   C1281     1.0  0.62001  0.70160  0.22399  1.0000
  H   H1284     1.0  0.63397  0.66477  0.22948  1.0000
  H   H1285     1.0  0.50287  0.75882  0.21963  1.0000
  C   C1282     1.0  0.51041  0.68233  0.19541  1.0000
  H   H1286     1.0  0.70892  0.55808  0.22591  1.0000
  C   C1283     1.0  0.99160  0.67933  0.23052  1.0000
  C   C1284     1.0  0.92617  0.79724  0.09465  1.0000
  S   S434      1.0  0.86588  0.64432  0.22965  1.0000
  Fe  Fe218     1.0  0.89375  0.61218  0.23171  1.0000
  C   C1285     1.0  0.86480  0.84714  0.22092  1.0000
  Fe  Fe219     1.0  0.95712  0.49668  0.03044  1.0000
  N   N108      1.0  0.82625  0.84483  0.23373  1.0000
  C   C1286     1.0  0.98153  0.54533  0.05550  1.0000
  H   H1287     1.0  0.97589  0.60940  0.23507  1.0000
  C   C1287     1.0  0.51465  0.77126  0.21749  1.0000
  C   C1288     1.0  0.92871  0.85969  0.98739  1.0000
  C   C1289     1.0  0.50380  0.64286  0.19765  1.0000
  C   C1290     1.0  0.69526  0.61175  0.23154  1.0000
  H   H1288     1.0  0.93067  0.50433  0.08935  1.0000
  H   H1289     1.0  0.71113  0.52657  0.22778  1.0000
  C   C1291     1.0  0.94896  0.49620  0.08527  1.0000
  Fe  Fe220     1.0  0.99525  0.78125  0.23154  1.0000
  H   H1290     1.0  0.99150  0.50671  0.08427  1.0000
  H   H1291     1.0  0.99016  0.55724  0.04758  1.0000
  S   S435      1.0  0.71910  0.62153  0.23526  1.0000
  C   C1292     1.0  0.84728  0.85210  0.23209  1.0000
  C   C1293     1.0  0.55810  0.63862  0.44961  1.0000
  H   H1292     1.0  0.57729  0.57762  0.47778  1.0000
  S   S436      1.0  0.95420  0.72722  0.26904  1.0000
  C   C1294     1.0  0.62456  0.90811  0.32234  1.0000
  C   C1295     1.0  0.90106  0.69262  0.27255  1.0000
  Fe  Fe221     1.0  0.64375  0.84337  0.47832  1.0000
  C   C1296     1.0  0.68059  0.75891  0.24902  1.0000
  C   C1297     1.0  0.54328  0.93254  0.34859  1.0000
  H   H1293     1.0  0.67743  0.91778  0.30544  1.0000
  S   S437      1.0  0.63017  0.49708  0.39118  1.0000
  C   C1298     1.0  0.49931  0.87171  0.47429  1.0000
  C   C1299     1.0  0.62211  0.88970  0.31611  1.0000
  C   C1300     1.0  0.65961  0.89209  0.30174  1.0000
  C   C1301     1.0  0.66455  0.54281  0.27021  1.0000
  H   H1294     1.0  0.65865  0.92941  0.33304  1.0000
  S   S438      1.0  0.60667  0.93451  0.38574  1.0000
  Fe  Fe222     1.0  0.66628  0.91989  0.36223  1.0000
  S   S439      1.0  0.63829  0.89843  0.36545  1.0000
  S   S440      1.0  0.70016  0.90855  0.34792  1.0000
  Fe  Fe223     1.0  0.61351  0.93291  0.36332  1.0000
  S   S441      1.0  0.58506  0.94372  0.35016  1.0000
  Fe  Fe224     1.0  0.63472  0.90228  0.38754  1.0000
  S   S442      1.0  0.62996  0.87009  0.40295  1.0000
  S   S443      1.0  0.66425  0.92197  0.38473  1.0000
  C   C1302     1.0  0.57045  0.90181  0.36019  1.0000
  H   H1295     1.0  0.79305  0.66351  0.27101  1.0000
  Fe  Fe225     1.0  0.60348  0.52177  0.40333  1.0000
  S   S444      1.0  0.60446  0.55265  0.38656  1.0000
  S   S445      1.0  0.60266  0.52097  0.42600  1.0000
  Fe  Fe226     1.0  0.62870  0.52731  0.37366  1.0000
  S   S446      1.0  0.66188  0.53873  0.36132  1.0000
  H   H1296     1.0  0.88757  0.68678  0.28057  1.0000
  H   H1297     1.0  0.64575  0.74116  0.46236  1.0000
  Fe  Fe227     1.0  0.79176  0.81654  0.28281  1.0000
  Fe  Fe228     1.0  0.76822  0.77437  0.28691  1.0000
  S   S447      1.0  0.73524  0.79585  0.27967  1.0000
  S   S448      1.0  0.77784  0.73504  0.29201  1.0000
  Fe  Fe229     1.0  0.73897  0.82197  0.29258  1.0000
  S   S449      1.0  0.70596  0.83785  0.30619  1.0000
  C   C1303     1.0  0.56942  0.62377  0.44004  1.0000
  S   S450      1.0  0.77022  0.79876  0.30108  1.0000
  Fe  Fe230     1.0  0.70139  0.59399  0.28657  1.0000
  S   S451      1.0  0.68955  0.62803  0.27334  1.0000
  S   S452      1.0  0.67275  0.57358  0.29702  1.0000
  Fe  Fe231     1.0  0.75279  0.59906  0.27914  1.0000
  S   S453      1.0  0.74520  0.63369  0.26554  1.0000
  S   S454      1.0  0.78868  0.58004  0.28361  1.0000
  Fe  Fe232     1.0  0.71479  0.64203  0.28219  1.0000
  S   S455      1.0  0.70086  0.67747  0.28868  1.0000
  Fe  Fe233     1.0  0.72065  0.61668  0.25786  1.0000
  C   C1304     1.0  0.69861  0.54686  0.25291  1.0000
  S   S456      1.0  0.72434  0.60893  0.29670  1.0000
  S   S457      1.0  0.73061  0.58126  0.27018  1.0000
  N   N109      1.0  0.68501  0.55792  0.46721  1.0000
  H   H1298     1.0  0.64563  0.98187  0.47099  1.0000
  C   C1305     1.0  0.66151  0.91044  0.30820  1.0000
  C   C1306     1.0  0.70963  0.71678  0.25705  1.0000
  C   C1307     1.0  0.53048  0.61366  0.45876  1.0000
  C   C1308     1.0  0.71653  0.73795  0.25715  1.0000
  H   H1299     1.0  0.63491  0.53597  0.26294  1.0000
  S   S458      1.0  0.66662  0.85799  0.45948  1.0000
  C   C1309     1.0  0.67065  0.62631  0.33388  1.0000
  H   H1300     1.0  0.83679  0.61004  0.24086  1.0000
  H   H1301     1.0  0.56423  0.55851  0.41713  1.0000
  H   H1302     1.0  0.63602  0.58919  0.35262  1.0000
  Fe  Fe234     1.0  0.62239  0.61103  0.46635  1.0000
  C   C1310     1.0  0.54591  0.55682  0.41864  1.0000
  S   S459      1.0  0.63035  0.60703  0.44399  1.0000
  H   H1303     1.0  0.51011  0.92395  0.34747  1.0000
  H   H1304     1.0  0.66458  0.59117  0.35520  1.0000
  H   H1305     1.0  0.85940  0.77910  0.29486  1.0000
  H   H1306     1.0  0.85982  0.73061  0.25974  1.0000
  H   H1307     1.0  0.58498  0.62768  0.43296  1.0000
  S   S460      1.0  0.51218  0.87579  0.36050  1.0000
  H   H1308     1.0  0.60671  0.88158  0.31943  1.0000
  H   H1309     1.0  0.67691  0.59362  0.45753  1.0000
  S   S461      1.0  0.91756  0.62797  0.24081  1.0000
  C   C1311     1.0  0.51299  0.54068  0.43207  1.0000
  C   C1312     1.0  0.71076  0.82525  0.24536  1.0000
  C   C1313     1.0  0.64820  0.60164  0.35153  1.0000
  C   C1314     1.0  0.93530  0.71100  0.26536  1.0000
  N   N110      1.0  0.64399  0.91836  0.31826  1.0000
  H   H1310     1.0  0.88014  0.80382  0.24493  1.0000
  C   C1315     1.0  0.65208  0.75758  0.45909  1.0000
  H   H1311     1.0  0.89464  0.74746  0.25990  1.0000
  C   C1316     1.0  0.66462  0.53859  0.24677  1.0000
  H   H1312     1.0  0.55851  0.86899  0.36757  1.0000
  H   H1313     1.0  0.91775  0.69748  0.23793  1.0000
  H   H1314     1.0  0.85095  0.86117  0.23965  1.0000
  H   H1315     1.0  0.54739  0.53403  0.43808  1.0000
  S   S462      1.0  0.64160  0.95457  0.35850  1.0000
  S   S463      1.0  0.75904  0.81814  0.24049  1.0000
  C   C1317     1.0  0.85500  0.81416  0.26252  1.0000
  Fe  Fe235     1.0  0.63636  0.95452  0.38129  1.0000
  C   C1318     1.0  0.69535  0.54274  0.47738  1.0000
  H   H1316     1.0  0.58715  0.89566  0.36387  1.0000
  C   C1319     1.0  0.91810  0.69854  0.24851  1.0000
  S   S464      1.0  0.59976  0.51751  0.36551  1.0000
  S   S465      1.0  0.62169  0.81688  0.47831  1.0000
  H   H1317     1.0  0.56391  0.55481  0.46352  1.0000
  C   C1320     1.0  0.51503  0.53714  0.37504  1.0000
  H   H1318     1.0  0.65408  0.52269  0.45830  1.0000
  H   H1319     1.0  0.66910  0.77528  0.24578  1.0000
  H   H1320     1.0  0.89563  0.78996  0.28201  1.0000
  S   S466      1.0  0.62157  0.58097  0.48357  1.0000
  H   H1321     1.0  0.53816  0.85122  0.44844  1.0000
  S   S467      1.0  0.54543  0.56767  0.37306  1.0000
  H   H1322     1.0  0.65531  0.53581  0.23906  1.0000
  S   S468      1.0  0.88261  0.57773  0.24051  1.0000
  H   H1323     1.0  0.68929  0.64844  0.31769  1.0000
  H   H1324     1.0  0.67226  0.49495  0.47713  1.0000
  H   H1325     1.0  0.68055  0.62807  0.34157  1.0000
  H   H1326     1.0  0.54433  0.51631  0.35065  1.0000
  H   H1327     1.0  0.66637  0.88284  0.34279  1.0000
  Fe  Fe236     1.0  0.57571  0.54054  0.37971  1.0000
  C   C1321     1.0  0.50230  0.99119  0.38734  1.0000
  C   C1322     1.0  0.90024  0.77326  0.27769  1.0000
  C   C1323     1.0  0.84945  0.82844  0.27281  1.0000
  C   C1324     1.0  0.90067  0.69098  0.25888  1.0000
  C   C1325     1.0  0.68760  0.54666  0.26655  1.0000
  H   H1328     1.0  0.68993  0.68010  0.26037  1.0000
  C   C1326     1.0  0.67601  0.51256  0.47421  1.0000
  C   C1327     1.0  0.53187  0.85027  0.45966  1.0000
  H   H1329     1.0  0.65570  0.54331  0.28071  1.0000
  H   H1330     1.0  0.66290  0.56266  0.45200  1.0000
  N   N111      1.0  0.65353  0.61293  0.33728  1.0000
  H   H1331     1.0  0.91216  0.76000  0.28388  1.0000
  H   H1332     1.0  0.51138  0.87156  0.48123  1.0000
  H   H1333     1.0  0.53351  0.83154  0.46445  1.0000
  S   S469      1.0  0.52084  0.53808  0.46656  1.0000
  H   H1334     1.0  0.65468  0.95072  0.31783  1.0000
  C   C1328     1.0  0.53238  0.89470  0.35777  1.0000
  H   H1335     1.0  0.67877  0.60524  0.25259  1.0000
  N   N112      1.0  0.51544  0.97262  0.38129  1.0000
  C   C1329     1.0  0.55108  0.98452  0.38320  1.0000
  C   C1330     1.0  0.85972  0.76824  0.28722  1.0000
  C   C1331     1.0  0.75620  0.71918  0.29129  1.0000
  C   C1332     1.0  0.73257  0.73012  0.29154  1.0000
  C   C1333     1.0  0.71562  0.71705  0.29100  1.0000
  C   C1334     1.0  0.72230  0.69314  0.28993  1.0000
  C   C1335     1.0  0.74592  0.68218  0.28964  1.0000
  C   C1336     1.0  0.76279  0.69515  0.29051  1.0000
  H   H1336     1.0  0.72728  0.74853  0.29240  1.0000
  H   H1337     1.0  0.69732  0.72556  0.29129  1.0000
  H   H1338     1.0  0.75109  0.66368  0.28896  1.0000
  H   H1339     1.0  0.78100  0.68663  0.29059  1.0000
  C   C1337     1.0  0.66516  0.54700  0.34331  1.0000
  C   C1338     1.0  0.64773  0.54608  0.33583  1.0000
  C   C1339     1.0  0.65053  0.55378  0.32157  1.0000
  C   C1340     1.0  0.67054  0.56283  0.31476  1.0000
  C   C1341     1.0  0.68791  0.56382  0.32224  1.0000
  C   C1342     1.0  0.68529  0.55578  0.33645  1.0000
  H   H1340     1.0  0.63214  0.53940  0.34101  1.0000
  H   H1341     1.0  0.63699  0.55300  0.31585  1.0000
  H   H1342     1.0  0.70346  0.57061  0.31709  1.0000
  H   H1343     1.0  0.69887  0.55649  0.34217  1.0000
  C   C1343     1.0  0.61045  0.54494  0.43085  1.0000
  C   C1344     1.0  0.61941  0.56225  0.42104  1.0000
  C   C1345     1.0  0.62543  0.58126  0.42520  1.0000
  C   C1346     1.0  0.62236  0.58313  0.43915  1.0000
  C   C1347     1.0  0.61327  0.56587  0.44895  1.0000
  C   C1348     1.0  0.60753  0.54672  0.44481  1.0000
  H   H1344     1.0  0.62208  0.56084  0.41027  1.0000
  H   H1345     1.0  0.63261  0.59448  0.41757  1.0000
  H   H1346     1.0  0.61072  0.56720  0.45972  1.0000
  H   H1347     1.0  0.60062  0.53333  0.45243  1.0000
  C   C1349     1.0  0.70181  0.88880  0.33633  1.0000
  C   C1350     1.0  0.68266  0.87861  0.33604  1.0000
  C   C1351     1.0  0.68451  0.86267  0.32697  1.0000
  C   C1352     1.0  0.70541  0.85692  0.31790  1.0000
  C   C1353     1.0  0.72472  0.86691  0.31819  1.0000
  C   C1354     1.0  0.72292  0.88277  0.32740  1.0000
  H   H1348     1.0  0.73303  0.73792  0.26049  1.0000
  H   H1349     1.0  0.66955  0.85484  0.32692  1.0000
  H   H1350     1.0  0.74097  0.86261  0.31124  1.0000
  H   H1351     1.0  0.73792  0.89047  0.32754  1.0000
  C   C1355     1.0  0.63883  0.86911  0.41882  1.0000
  C   C1356     1.0  0.65854  0.87811  0.41958  1.0000
  C   C1357     1.0  0.66667  0.87509  0.43219  1.0000
  C   C1358     1.0  0.65476  0.86367  0.44411  1.0000
  C   C1359     1.0  0.63453  0.85549  0.44341  1.0000
  C   C1360     1.0  0.62684  0.85783  0.43075  1.0000
  H   H1352     1.0  0.66791  0.88684  0.41045  1.0000
  H   H1353     1.0  0.68230  0.88151  0.43268  1.0000
  H   H1354     1.0  0.62504  0.84698  0.45256  1.0000
  H   H1355     1.0  0.61149  0.85099  0.43021  1.0000
  H   H1356     1.0  0.61088  0.91402  0.33052  1.0000
  C   C1361     1.0  0.67423  0.73743  0.24906  1.0000
  S   S470      1.0  0.76070  0.84188  0.27528  1.0000
  C   C1362     1.0  0.70188  0.75912  0.25311  1.0000
  C   C1363     1.0  0.55425  0.88673  0.36228  1.0000
  C   C1364     1.0  0.85536  0.57834  0.25155  1.0000
  C   C1365     1.0  0.85348  0.56032  0.26269  1.0000
  C   C1366     1.0  0.83266  0.56078  0.27219  1.0000
  C   C1367     1.0  0.81316  0.57878  0.27039  1.0000
  C   C1368     1.0  0.81455  0.59637  0.25891  1.0000
  C   C1369     1.0  0.83576  0.59631  0.24958  1.0000
  H   H1357     1.0  0.86841  0.54626  0.26422  1.0000
  H   H1358     1.0  0.83171  0.54714  0.28103  1.0000
  H   H1359     1.0  0.79957  0.61039  0.25747  1.0000
  N   N113      1.0  0.50871  0.56548  0.41044  1.0000
  S   S471      1.0  0.64533  0.62861  0.47490  1.0000
  H   H1360     1.0  0.50406  0.58562  0.39065  1.0000
  H   H1361     1.0  0.65773  0.73742  0.24575  1.0000
  C   C1370     1.0  0.56502  0.92464  0.35321  1.0000
  H   H1362     1.0  0.57021  0.98171  0.38153  1.0000
  C   C1371     1.0  0.56090  0.60362  0.43987  1.0000
  N   N114      1.0  0.50725  0.86219  0.46246  1.0000
  C   C1372     1.0  0.53165  0.56813  0.40877  1.0000
  Fe  Fe237     1.0  0.94288  0.80261  0.23725  1.0000
  S   S472      1.0  0.97041  0.78794  0.25103  1.0000
  H   H1363     1.0  0.82429  0.76229  0.29509  1.0000
  H   H1364     1.0  0.94812  0.71552  0.24362  1.0000
  H   H1365     1.0  0.64632  0.58985  0.24717  1.0000
  H   H1366     1.0  0.55243  0.49584  0.33845  1.0000
  H   H1367     1.0  0.70786  0.58108  0.45696  1.0000
  C   C1373     1.0  0.91860  0.70235  0.27581  1.0000
  H   H1368     1.0  0.86037  0.85449  0.28122  1.0000
  H   H1369     1.0  0.52108  0.58440  0.35030  1.0000
  H   H1370     1.0  0.62787  0.59964  0.33014  1.0000
  H   H1371     1.0  0.91855  0.70415  0.28634  1.0000
  C   C1374     1.0  0.83982  0.74521  0.27747  1.0000
  S   S473      1.0  0.82439  0.82794  0.28556  1.0000
  H   H1372     1.0  0.66704  0.64421  0.30003  1.0000
  C   C1375     1.0  0.65295  0.53866  0.26028  1.0000
  C   C1376     1.0  0.51454  0.56902  0.35595  1.0000
  C   C1377     1.0  0.64686  0.93695  0.32525  1.0000
  H   H1373     1.0  0.68879  0.78226  0.48085  1.0000
  H   H1374     1.0  0.53954  0.65943  0.47101  1.0000
  C   C1378     1.0  0.53650  0.54297  0.43035  1.0000
  H   H1375     1.0  0.51538  0.60942  0.46615  1.0000
  C   C1379     1.0  0.83977  0.75887  0.28739  1.0000
  C   C1380     1.0  0.66578  0.52808  0.46372  1.0000
  N   N115      1.0  0.67576  0.78394  0.46223  1.0000
  C   C1381     1.0  0.66845  0.79940  0.45122  1.0000
  C   C1382     1.0  0.66833  0.76296  0.46595  1.0000
  C   C1383     1.0  0.53772  0.50434  0.34562  1.0000
  H   H1376     1.0  0.50177  0.96320  0.36549  1.0000
  H   H1377     1.0  0.68753  0.68953  0.24238  1.0000
  C   C1384     1.0  0.53953  0.96929  0.37908  1.0000
  C   C1385     1.0  0.68870  0.82544  0.24193  1.0000
  S   S474      1.0  0.91462  0.83447  0.24029  1.0000
  S   S475      1.0  0.62269  0.98807  0.39054  1.0000
  N   N116      1.0  0.53919  0.63318  0.45899  1.0000
  H   H1378     1.0  0.54365  0.85841  0.46395  1.0000
  C   C1386     1.0  0.87920  0.75094  0.26758  1.0000
  H   H1379     1.0  0.52108  0.63871  0.47895  1.0000
  H   H1380     1.0  0.52194  0.52788  0.38421  1.0000
  N   N117      1.0  0.84742  0.61571  0.27837  1.0000
  C   C1387     1.0  0.84971  0.63391  0.26787  1.0000
  C   C1388     1.0  0.82619  0.61485  0.28665  1.0000
  C   C1389     1.0  0.83024  0.65141  0.26510  1.0000
  C   C1390     1.0  0.80631  0.63199  0.28413  1.0000
  C   C1391     1.0  0.80837  0.65029  0.27321  1.0000
  C   C1392     1.0  0.86811  0.59759  0.28100  1.0000
  H   H1381     1.0  0.86666  0.63486  0.26151  1.0000
  H   H1382     1.0  0.82421  0.60033  0.29492  1.0000
  H   H1383     1.0  0.83219  0.66575  0.25671  1.0000
  H   H1384     1.0  0.78933  0.63062  0.29038  1.0000
  H   H1385     1.0  0.70198  0.88155  0.37609  1.0000
  H   H1386     1.0  0.86291  0.58085  0.28645  1.0000
  H   H1387     1.0  0.87941  0.59361  0.27117  1.0000
  H   H1388     1.0  0.87860  0.60365  0.28724  1.0000
  C   C1393     1.0  0.67792  0.60445  0.24206  1.0000
  C   C1394     1.0  0.89059  0.83029  0.25331  1.0000
  H   H1389     1.0  0.67390  0.88528  0.29409  1.0000
  H   H1390     1.0  0.69004  0.58929  0.47272  1.0000
  C   C1395     1.0  0.87588  0.81472  0.25293  1.0000
  H   H1391     1.0  0.89578  0.85695  0.26371  1.0000
  H   H1392     1.0  0.63087  0.76991  0.44296  1.0000
  H   H1393     1.0  0.64601  0.80727  0.43563  1.0000
  N   N118      1.0  0.68857  0.71674  0.25320  1.0000
  C   C1396     1.0  0.69241  0.78940  0.46973  1.0000
  H   H1394     1.0  0.56978  0.59175  0.43267  1.0000
  C   C1397     1.0  0.54111  0.59868  0.44915  1.0000
  H   H1395     1.0  0.67496  0.81569  0.44798  1.0000
  H   H1396     1.0  0.54997  0.95478  0.37412  1.0000
  C   C1398     1.0  0.93525  0.70881  0.25174  1.0000
  C   C1399     1.0  0.86453  0.84341  0.27331  1.0000
  H   H1397     1.0  0.91008  0.77715  0.26719  1.0000
  H   H1398     1.0  0.53903  0.95021  0.34319  1.0000
  H   H1399     1.0  0.82454  0.73771  0.27754  1.0000
  H   H1400     1.0  0.72105  0.70038  0.26027  1.0000
  H   H1401     1.0  0.66246  0.69572  0.25546  1.0000
  Fe  Fe238     1.0  0.89065  0.66081  0.23726  1.0000
  C   C1400     1.0  0.88469  0.84470  0.26345  1.0000
  H   H1402     1.0  0.63993  0.61504  0.35827  1.0000
  S   S476      1.0  0.59941  0.68752  0.48434  1.0000
  N   N119      1.0  0.68700  0.54312  0.24319  1.0000
  C   C1401     1.0  0.64593  0.62163  0.31400  1.0000
  C   C1402     1.0  0.52686  0.91770  0.35103  1.0000
  H   H1403     1.0  0.84343  0.80253  0.26206  1.0000
  N   N120      1.0  0.87909  0.76423  0.27737  1.0000
  Fe  Fe239     1.0  0.75964  0.81381  0.26321  1.0000
  H   H1404     1.0  0.67278  0.83211  0.24851  1.0000
  H   H1405     1.0  0.70700  0.77566  0.25316  1.0000
  C   C1403     1.0  0.66319  0.63546  0.31049  1.0000
  C   C1404     1.0  0.67569  0.63783  0.32045  1.0000
  H   H1406     1.0  0.63846  0.86703  0.30102  1.0000
  Fe  Fe240     1.0  0.96051  0.75375  0.25038  1.0000
  C   C1405     1.0  0.64115  0.61057  0.32756  1.0000
  H   H1407     1.0  0.63671  0.61902  0.30620  1.0000
  S   S477      1.0  0.79241  0.79033  0.26943  1.0000
  C   C1406     1.0  0.68187  0.69442  0.25283  1.0000
  C   C1407     1.0  0.52373  0.55693  0.36768  1.0000
  C   C1408     1.0  0.63979  0.88166  0.30575  1.0000
  H   H1408     1.0  0.51387  0.93868  0.37744  1.0000
  S   S478      1.0  0.87736  0.68116  0.25470  1.0000
  H   H1409     1.0  0.62966  0.94570  0.33048  1.0000
  H   H1410     1.0  0.70953  0.85565  0.38844  1.0000
  C   C1409     1.0  0.65219  0.79464  0.44413  1.0000
  C   C1410     1.0  0.85957  0.74133  0.26745  1.0000
  C   C1411     1.0  0.64377  0.77368  0.44822  1.0000
  H   H1411     1.0  0.71631  0.55056  0.25008  1.0000
  H   H1412     1.0  0.71180  0.83184  0.25452  1.0000
  N   N121      1.0  0.69549  0.85004  0.37167  1.0000
  C   C1412     1.0  0.67598  0.84044  0.37263  1.0000
  C   C1413     1.0  0.71442  0.84545  0.36165  1.0000
  C   C1414     1.0  0.67505  0.82593  0.36331  1.0000
  C   C1415     1.0  0.71417  0.83085  0.35224  1.0000
  C   C1416     1.0  0.69432  0.82109  0.35308  1.0000
  C   C1417     1.0  0.69659  0.86490  0.38157  1.0000
  H   H1413     1.0  0.66088  0.84417  0.38056  1.0000
  H   H1414     1.0  0.72959  0.85363  0.36065  1.0000
  H   H1415     1.0  0.65940  0.81868  0.36396  1.0000
  H   H1416     1.0  0.72893  0.82779  0.34405  1.0000
  H   H1417     1.0  0.69371  0.81030  0.34557  1.0000
  H   H1418     1.0  0.67924  0.86953  0.38807  1.0000
  S   S479      1.0  0.93115  0.76887  0.23819  1.0000
  C   C1418     1.0  0.55417  0.55724  0.47356  1.0000
  S   S480      1.0  0.57236  0.51200  0.39757  1.0000
  H   H1419     1.0  0.53434  0.58301  0.44916  1.0000
  C   C1419     1.0  0.69024  0.58164  0.46338  1.0000
  H   H1420     1.0  0.67466  0.75040  0.47443  1.0000
  C   C1420     1.0  0.67071  0.55076  0.46024  1.0000
  C   C1421     1.0  0.53302  0.54909  0.47801  1.0000
  C   C1422     1.0  0.52745  0.64891  0.46895  1.0000
  H   H1421     1.0  0.69668  0.54981  0.27425  1.0000
  H   H1422     1.0  0.51208  0.66100  0.46500  1.0000
  H   H1423     1.0  0.50541  0.53019  0.44123  1.0000
  H   H1424     1.0  0.56490  0.65423  0.44967  1.0000
  S   S481      1.0  0.58892  0.63259  0.47541  1.0000
  H   H1425     1.0  0.69077  0.80871  0.46903  1.0000
  C   C1423     1.0  0.50368  0.95698  0.37645  1.0000
  H   H1426     1.0  0.53913  0.57885  0.39971  1.0000
  C   C1424     1.0  0.65956  0.59569  0.23898  1.0000
  C   C1425     1.0  0.49700  0.52961  0.37059  1.0000
  H   H1427     1.0  0.58985  0.73736  0.48118  1.0000
  H   H1428     1.0  0.81575  0.85240  0.25430  1.0000
  H   H1429     1.0  0.71072  0.78180  0.46550  1.0000
  H   H1430     1.0  0.67190  0.99211  0.38957  1.0000
  C   C1426     1.0  0.80804  0.85006  0.24548  1.0000
  H   H1431     1.0  0.52408  0.51555  0.33969  1.0000
  H   H1432     1.0  0.79827  0.83539  0.24916  1.0000
  H   H1433     1.0  0.70655  0.54849  0.48298  1.0000
  C   C1427     1.0  0.49927  0.55209  0.42194  1.0000
  C   C1428     1.0  0.56177  0.57011  0.48166  1.0000
  C   C1429     1.0  0.69107  0.51983  0.48100  1.0000
  Fe  Fe241     1.0  0.61166  0.64813  0.48543  1.0000
  C   C1430     1.0  0.60587  0.73133  0.48561  1.0000
  H   H1434     1.0  0.49815  0.85424  0.44452  1.0000
  H   H1435     1.0  0.79531  0.86624  0.24248  1.0000
  C   C1431     1.0  0.49736  0.56098  0.35124  1.0000
  C   C1432     1.0  0.73135  0.81728  0.23670  1.0000
  H   H1436     1.0  0.97765  0.67062  0.23647  1.0000
  H   H1437     1.0  0.56210  0.51239  0.51127  1.0000
  H   H1438     1.0  0.65871  0.96749  0.49368  1.0000
  C   C1433     1.0  0.66382  0.92480  0.52424  1.0000
  Fe  Fe242     1.0  0.65986  0.97455  0.53724  1.0000
  C   C1434     1.0  0.67308  0.54988  0.51029  1.0000
  H   H1439     1.0  0.57028  0.95509  0.51955  1.0000
  H   H1440     1.0  0.57014  0.86852  0.51392  1.0000
  S   S482      1.0  0.64235  0.96863  0.55915  1.0000
  H   H1441     1.0  0.50444  0.54529  0.49467  1.0000
  C   C1435     1.0  0.63391  0.90191  0.53527  1.0000
  H   H1442     1.0  0.50877  0.84106  0.50144  1.0000
  C   C1436     1.0  0.61637  0.52943  0.53619  1.0000
  H   H1443     1.0  0.56346  0.94338  0.53750  1.0000
  C   C1437     1.0  0.54784  0.78401  0.49005  1.0000
  H   H1444     1.0  0.53003  0.71721  0.51260  1.0000
  H   H1445     1.0  0.61705  0.71539  0.52441  1.0000
  C   C1438     1.0  0.65812  0.98572  0.48901  1.0000
  S   S483      1.0  0.65027  0.75953  0.50120  1.0000
  Fe  Fe243     1.0  0.64167  0.59992  0.49300  1.0000
  Fe  Fe244     1.0  0.63003  0.84471  0.50896  1.0000
  C   C1439     1.0  0.56031  0.88529  0.51655  1.0000
  C   C1440     1.0  0.57160  0.93880  0.52719  1.0000
  H   H1446     1.0  0.52700  0.87925  0.51348  1.0000
  H   H1447     1.0  0.59197  0.69487  0.51560  1.0000
  H   H1448     1.0  0.66664  0.87861  0.50762  1.0000
  S   S484      1.0  0.60715  0.81781  0.51163  1.0000
  S   S485      1.0  0.62868  0.86171  0.52750  1.0000
  H   H1449     1.0  0.63831  0.93307  0.54192  1.0000
  C   C1441     1.0  0.52044  0.55220  0.49104  1.0000
  H   H1450     1.0  0.52598  0.94500  0.52597  1.0000
  C   C1442     1.0  0.50961  0.80583  0.49839  1.0000
  C   C1443     1.0  0.51970  0.82525  0.49816  1.0000
  N   N122      1.0  0.69531  0.92146  0.55911  1.0000
  C   C1444     1.0  0.68641  0.92720  0.57190  1.0000
  C   C1445     1.0  0.71051  0.93396  0.55027  1.0000
  C   C1446     1.0  0.69231  0.94622  0.57603  1.0000
  C   C1447     1.0  0.71671  0.95313  0.55404  1.0000
  C   C1448     1.0  0.70751  0.95927  0.56701  1.0000
  C   C1449     1.0  0.68887  0.90138  0.55510  1.0000
  H   H1451     1.0  0.67424  0.91741  0.57889  1.0000
  H   H1452     1.0  0.71753  0.92949  0.54009  1.0000
  H   H1453     1.0  0.68467  0.95127  0.58602  1.0000
  H   H1454     1.0  0.72827  0.96337  0.54687  1.0000
  H   H1455     1.0  0.56200  0.77662  0.52395  1.0000
  H   H1456     1.0  0.66947  0.90239  0.55750  1.0000
  H   H1457     1.0  0.69382  0.90106  0.54386  1.0000
  H   H1458     1.0  0.69781  0.88472  0.56060  1.0000
  C   C1450     1.0  0.67641  0.50240  0.52237  1.0000
  C   C1451     1.0  0.58498  0.71250  0.51792  1.0000
  S   S486      1.0  0.67288  0.57930  0.50254  1.0000
  C   C1452     1.0  0.52373  0.91296  0.51969  1.0000
  H   H1459     1.0  0.59066  0.89636  0.52008  1.0000
  H   H1460     1.0  0.70212  0.54942  0.52054  1.0000
  S   S487      1.0  0.67935  0.94718  0.52417  1.0000
  S   S488      1.0  0.55771  0.59060  0.50449  1.0000
  S   S489      1.0  0.66033  0.82369  0.49658  1.0000
  H   H1461     1.0  0.62854  0.53681  0.54019  1.0000
  H   H1462     1.0  0.60870  0.76603  0.48816  1.0000
  H   H1463     1.0  0.55211  0.71847  0.49751  1.0000
  C   C1453     1.0  0.65965  0.51261  0.51370  1.0000
  C   C1454     1.0  0.54920  0.71246  0.50879  1.0000
  H   H1464     1.0  0.64359  0.68094  0.49513  1.0000
  H   H1465     1.0  0.61955  0.89882  0.54346  1.0000
  H   H1466     1.0  0.51865  0.56691  0.50936  1.0000
  H   H1467     1.0  0.68655  0.91204  0.50663  1.0000
  H   H1468     1.0  0.59058  0.93148  0.52752  1.0000
  C   C1455     1.0  0.51997  0.98429  0.54168  1.0000
  C   C1456     1.0  0.63695  0.73981  0.49556  1.0000
  C   C1457     1.0  0.59930  0.72404  0.52285  1.0000
  C   C1458     1.0  0.61652  0.74758  0.48955  1.0000
  S   S490      1.0  0.61557  0.86653  0.49062  1.0000
  N   N123      1.0  0.55949  0.92222  0.52351  1.0000
  C   C1459     1.0  0.57182  0.90111  0.52010  1.0000
  C   C1460     1.0  0.53575  0.92825  0.52333  1.0000
  H   H1469     1.0  0.66280  0.70966  0.50187  1.0000
  C   C1461     1.0  0.64693  0.71578  0.49727  1.0000
  C   C1462     1.0  0.52358  0.78541  0.49406  1.0000
  S   S491      1.0  0.55600  0.84904  0.49231  1.0000
  H   H1470     1.0  0.64796  0.50226  0.51174  1.0000
  Fe  Fe245     1.0  0.59486  0.83833  0.49238  1.0000
  C   C1463     1.0  0.52846  0.56440  0.49933  1.0000
  C   C1464     1.0  0.58692  0.53356  0.52174  1.0000
  N   N124      1.0  0.56297  0.72370  0.51540  1.0000
  C   C1465     1.0  0.65769  0.53651  0.50787  1.0000
  C   C1466     1.0  0.69156  0.51587  0.52477  1.0000
  Fe  Fe246     1.0  0.59004  0.60416  0.49351  1.0000
  C   C1467     1.0  0.64456  0.92130  0.53442  1.0000
  Fe  Fe247     1.0  0.63601  0.79866  0.49749  1.0000
  C   C1468     1.0  0.56849  0.75844  0.52256  1.0000
  C   C1469     1.0  0.63615  0.69949  0.49341  1.0000
  C   C1470     1.0  0.69009  0.53934  0.51865  1.0000
  C   C1471     1.0  0.67164  0.90946  0.51452  1.0000
  C   C1472     1.0  0.66040  0.89051  0.51507  1.0000
  C   C1473     1.0  0.54385  0.82412  0.49372  1.0000
  C   C1474     1.0  0.64180  0.88644  0.52562  1.0000
  S   S492      1.0  0.61005  0.62102  0.50445  1.0000
  H   H1471     1.0  0.53689  0.75489  0.51614  1.0000
  C   C1475     1.0  0.61592  0.50550  0.53956  1.0000
  H   H1472     1.0  0.60217  0.56219  0.52435  1.0000
  C   C1476     1.0  0.60178  0.54360  0.52722  1.0000
  H   H1473     1.0  0.60258  0.75682  0.52802  1.0000
  C   C1477     1.0  0.54878  0.57391  0.49448  1.0000
  C   C1478     1.0  0.55445  0.74615  0.51797  1.0000
  N   N125      1.0  0.58660  0.51010  0.52507  1.0000
  H   H1474     1.0  0.55443  0.69303  0.51060  1.0000
  H   H1475     1.0  0.57575  0.54463  0.51474  1.0000
  H   H1476     1.0  0.70459  0.50809  0.53143  1.0000
  H   H1477     1.0  0.62773  0.49416  0.54619  1.0000
  C   C1479     1.0  0.59115  0.74731  0.52490  1.0000
  H   H1478     1.0  0.64463  0.54435  0.50133  1.0000
  C   C1480     1.0  0.61539  0.70723  0.48773  1.0000
  H   H1479     1.0  0.71182  0.97433  0.57003  1.0000
  C   C1481     1.0  0.60072  0.49611  0.53394  1.0000
  C   C1482     1.0  0.53611  0.89131  0.51632  1.0000
  S   S493      1.0  0.51054  0.76188  0.49343  1.0000
  C   C1483     1.0  0.57086  0.49980  0.51931  1.0000
  C   C1484     1.0  0.55801  0.80336  0.48994  1.0000
  H   H1480     1.0  0.50340  0.97835  0.54482  1.0000
  C   C1485     1.0  0.53473  0.98260  0.55139  1.0000
  H   H1481     1.0  0.52951  0.97525  0.56197  1.0000
  H   H1482     1.0  0.69888  0.50804  0.48932  1.0000
  H   H1483     1.0  0.55699  0.49387  0.52759  1.0000
  C   C1486     1.0  0.55636  0.99008  0.54744  1.0000
  H   H1484     1.0  0.50493  0.91790  0.51946  1.0000
  S   S494      1.0  0.57525  0.98606  0.55961  1.0000
  H   H1485     1.0  0.57666  0.80241  0.48654  1.0000
  H   H1486     1.0  0.55861  0.76822  0.48670  1.0000
  Fe  Fe248     1.0  0.91573  0.83507  0.91283  1.0000
  S   S495      1.0  0.93762  0.84582  0.92554  1.0000
  S   S496      1.0  0.89163  0.86550  0.90244  1.0000
  Fe  Fe249     1.0  0.93846  0.78291  0.91843  1.0000
  S   S497      1.0  0.96215  0.79012  0.93160  1.0000
  S   S498      1.0  0.94857  0.74644  0.91238  1.0000
  Fe  Fe250     1.0  0.93022  0.81413  0.94053  1.0000
  S   S499      1.0  0.92031  0.81530  0.96326  1.0000
  Fe  Fe251     1.0  0.96720  0.82103  0.91540  1.0000
  C   C1487     1.0  0.93016  0.83698  0.96925  1.0000
  S   S500      1.0  0.90569  0.80482  0.92862  1.0000
  S   S501      1.0  0.94596  0.81245  0.90153  1.0000
  Fe  Fe252     1.0  0.94342  0.58190  0.93681  1.0000
  S   S502      1.0  0.90579  0.59263  0.93363  1.0000
  S   S503      1.0  0.95614  0.56953  0.95712  1.0000
  Fe  Fe253     1.0  0.96134  0.59914  0.90699  1.0000
  S   S504      1.0  0.92506  0.61089  0.90128  1.0000
  H   H1487     1.0  0.88758  0.85458  0.95164  1.0000
  Fe  Fe254     1.0  0.91626  0.62558  0.92117  1.0000
  S   S505      1.0  0.89462  0.66153  0.92433  1.0000
  Fe  Fe255     1.0  0.91842  0.57667  0.91419  1.0000
  S   S506      1.0  0.89840  0.55030  0.91064  1.0000
  S   S507      1.0  0.95294  0.61586  0.92597  1.0000
  S   S508      1.0  0.95561  0.56383  0.91832  1.0000
  H   H1488     1.0  0.88190  0.86177  0.93436  1.0000
  S   S509      1.0  0.94778  0.94880  0.88126  1.0000
  C   C1488     1.0  0.90549  0.53724  0.89559  1.0000
  C   C1489     1.0  0.91815  0.54741  0.88355  1.0000
  C   C1490     1.0  0.92287  0.53680  0.87164  1.0000
  C   C1491     1.0  0.90397  0.53486  0.97671  1.0000
  C   C1492     1.0  0.90123  0.89392  0.95236  1.0000
  C   C1493     1.0  0.89793  0.51626  0.89569  1.0000
  H   H1489     1.0  0.92394  0.56364  0.88336  1.0000
  H   H1490     1.0  0.86137  0.87544  0.94768  1.0000
  C   C1494     1.0  0.91345  0.91243  0.95033  1.0000
  H   H1491     1.0  0.92505  0.60178  0.98025  1.0000
  C   C1495     1.0  0.90707  0.88846  0.89511  1.0000
  C   C1496     1.0  0.89487  0.91124  0.89111  1.0000
  C   C1497     1.0  0.90712  0.92998  0.88659  1.0000
  C   C1498     1.0  0.93159  0.92593  0.88605  1.0000
  C   C1499     1.0  0.94369  0.90311  0.88983  1.0000
  C   C1500     1.0  0.93153  0.88449  0.89428  1.0000
  H   H1492     1.0  0.87593  0.91445  0.89173  1.0000
  H   H1493     1.0  0.89763  0.94752  0.88367  1.0000
  H   H1494     1.0  0.96258  0.89966  0.88933  1.0000
  H   H1495     1.0  0.94122  0.86698  0.89703  1.0000
  C   C1501     1.0  0.93344  0.72290  0.91830  1.0000
  C   C1502     1.0  0.94591  0.70029  0.91662  1.0000
  C   C1503     1.0  0.93422  0.68130  0.91908  1.0000
  C   C1504     1.0  0.90989  0.68465  0.92320  1.0000
  C   C1505     1.0  0.89743  0.70709  0.92550  1.0000
  C   C1506     1.0  0.90919  0.72623  0.92306  1.0000
  H   H1496     1.0  0.96462  0.69763  0.91287  1.0000
  H   H1497     1.0  0.94392  0.66430  0.91717  1.0000
  H   H1498     1.0  0.87855  0.70988  0.92872  1.0000
  H   H1499     1.0  0.89939  0.74365  0.92433  1.0000
  H   H1500     1.0  0.95199  0.84692  0.95024  1.0000
  H   H1501     1.0  0.97651  0.71345  0.88001  1.0000
  H   H1502     1.0  0.93243  0.54488  0.86230  1.0000
  C   C1507     1.0  0.93862  0.55272  0.96938  1.0000
  H   H1503     1.0  0.98469  0.50530  0.88467  1.0000
  C   C1508     1.0  0.96288  0.70304  0.88174  1.0000
  H   H1504     1.0  0.88835  0.53055  0.97441  1.0000
  H   H1505     1.0  0.89557  0.72707  0.89616  1.0000
  C   C1509     1.0  0.91721  0.92555  0.93728  1.0000
  H   H1506     1.0  0.94015  0.62298  0.95690  1.0000
  H   H1507     1.0  0.88707  0.69926  0.89843  1.0000
  C   C1510     1.0  0.94520  0.85058  0.96050  1.0000
  H   H1508     1.0  0.91916  0.64379  0.94790  1.0000
  C   C1511     1.0  0.89722  0.71147  0.89110  1.0000
  H   H1509     1.0  0.97771  0.64513  0.90527  1.0000
  S   S510      1.0  0.99454  0.60397  0.89241  1.0000
  H   H1510     1.0  0.92019  0.91635  0.95882  1.0000
  C   C1512     1.0  0.92256  0.63465  0.95826  1.0000
  H   H1511     1.0  0.85024  0.61362  0.96221  1.0000
  H   H1512     1.0  0.85748  0.58385  0.98289  1.0000
  C   C1513     1.0  0.96869  0.49751  0.88611  1.0000
  C   C1514     1.0  0.88030  0.86920  0.94397  1.0000
  C   C1515     1.0  0.88363  0.62447  0.96007  1.0000
  H   H1513     1.0  0.91112  0.93042  0.91631  1.0000
  H   H1514     1.0  0.89858  0.88364  0.96250  1.0000
  H   H1515     1.0  0.93482  0.73201  0.88588  1.0000
  H   H1516     1.0  0.92683  0.93982  0.93553  1.0000
  C   C1516     1.0  0.94306  0.87378  0.97841  1.0000
  N   N126      1.0  0.89314  0.88857  0.94166  1.0000
  H   H1517     1.0  0.88885  0.89816  0.92066  1.0000
  N   N127      1.0  0.90448  0.62087  0.96498  1.0000
  H   H1518     1.0  0.91397  0.66622  0.88943  1.0000
  H   H1519     1.0  0.88798  0.50842  0.90495  1.0000
  H   H1520     1.0  0.88035  0.63733  0.95106  1.0000
  H   H1521     1.0  0.92296  0.64809  0.96453  1.0000
  C   C1517     1.0  0.90840  0.92032  0.92651  1.0000
  H   H1522     1.0  0.95979  0.55053  0.98504  1.0000
  H   H1523     1.0  0.87854  0.51904  0.84721  1.0000
  S   S511      1.0  0.92212  0.50251  0.85681  1.0000
  N   N128      1.0  0.92197  0.70023  0.88783  1.0000
  H   H1524     1.0  0.98713  0.67064  0.87867  1.0000
  H   H1525     1.0  0.95425  0.50872  0.89214  1.0000
  H   H1526     1.0  0.96255  0.87992  0.95804  1.0000
  C   C1518     1.0  0.84923  0.50382  0.84569  1.0000
  H   H1527     1.0  0.98426  0.84806  0.93085  1.0000
  C   C1519     1.0  0.90842  0.60485  0.97645  1.0000
  H   H1528     1.0  0.95566  0.64706  0.88334  1.0000
  H   H1529     1.0  0.96392  0.49804  0.87584  1.0000
  C   C1520     1.0  0.93920  0.71345  0.88505  1.0000
  C   C1521     1.0  0.89604  0.90187  0.92897  1.0000
  C   C1522     1.0  0.86644  0.61119  0.96639  1.0000
  C   C1523     1.0  0.91548  0.51570  0.87180  1.0000
  C   C1524     1.0  0.92762  0.67673  0.88709  1.0000
  C   C1525     1.0  0.87045  0.59458  0.97799  1.0000
  C   C1526     1.0  0.95133  0.86913  0.96500  1.0000
  H   H1530     1.0  0.91408  0.55202  0.95613  1.0000
  C   C1527     1.0  0.91852  0.54699  0.96637  1.0000
  C   C1528     1.0  0.95110  0.66580  0.88368  1.0000
  C   C1529     1.0  0.92213  0.84139  0.98276  1.0000
  C   C1530     1.0  0.90312  0.50537  0.88388  1.0000
  H   H1531     1.0  0.88919  0.71699  0.88159  1.0000
  C   C1531     1.0  0.94432  0.54605  0.98264  1.0000
  C   C1532     1.0  0.89141  0.59160  0.98317  1.0000
  Fe  Fe256     1.0  0.93050  0.98601  0.87384  1.0000
  H   H1532     1.0  0.99516  0.91952  0.87929  1.0000
  S   S512      1.0  0.95080  0.89758  0.98341  1.0000
  C   C1533     1.0  0.96881  0.67907  0.88103  1.0000
  H   H1533     1.0  0.99362  0.84893  0.97268  1.0000
  H   H1534     1.0  0.98989  0.90741  0.90460  1.0000
  H   H1535     1.0  0.83721  0.51298  0.85341  1.0000
  C   C1534     1.0  0.87246  0.50720  0.84223  1.0000
  C   C1535     1.0  0.88802  0.49484  0.83259  1.0000
  H   H1536     1.0  0.90633  0.49683  0.83020  1.0000
  C   C1536     1.0  0.99635  0.63997  0.90542  1.0000
