data_image0
_chemical_formula_structural       HFeSFeS2FeSFeCS2CH2CS2HCFeCH2CHSCFeSFeSHCH2C2H2CHC2NFeCH2C2H2C2H2SH2C2SC3H5CHC2HSHCHCHC3NH3C2H2C3H2CHCHC9FeC2SH2CHCSC3SHFeCSH2CNSCSNHCNS2HNCH2CH3FeCNS2FeH2FeCS2HCHS2HSC3SFeCH2CSCSHFeSCFeSCFeSFeS3CSH4FeH2SHC3H2FeH3CHNSC2HCHSH3CHC6H4C6H4C2SH2CNCHCFeCSHC2FeNC2HSH2C3HFeHCSC2FeCHSC4FeHCSHSH3C3SH2CH2SHSCHSCHFeHFeH4CH2C3FeHSCHCH4CSHC3SNHCHC2HCFeCS2HSCHSFeH2C4HSFeCH6NC6H8CSCHCSH2CS2CNCH2CFeHSHCH2CFeH3C2HCSH2CHNH2C2H2CHC3H2SCFeHCHSNHFeH2C3HC2HC2HCHC4NH2SCH3SFeS2HCHCFeS2CFeS3HCH2C6H6CHCNH2CH3CNFeHCSHC2SC2H5CH2C2H2C5HC2NC6HFeH3CSHCHNCSH3C2HC2HCH4CHC5HC4HCH2CHFe2C2HC2SC2H2CN2SH4CSHC4H2C2H2C3SH3CHCHC2SCH2SHCFeCH4SC3NHC2HCHCSH8FeHN2H2C2HCHCFeS2FeS2FeSFeHS2HSHCSFeSFeSCFeS3FeHFeS3NC6H4C6H4C2HC3FeH3CHCSH2CHCH4C2NHCHC3SHCH4C2NSCH3C7H2C2HFeHCH4CH2NC3HCHFeCH2C2H3SHCH2SH2CHCH2C2H2C2HCH5CHC4H3CH2CSCFeNSCNH4C2H2CSHCHCH2CH2CS5FeSFeSNHS2FeSCH3SHCFeHCSCH2CNHSH2C2SC2HCHNC4H2FeHSCHC3HNC2HS2C2HCH2CHC4SNC6H8CFeCHCHC2FeC2HC2FeH2FeHC2H2CH3C2FeS3CH5C2HFeH2S2CH4CNCH2CHSHCNSH3C3H4C2HC2SFeC2H2Fe2C2H2SHCH2C2H2C4HC2SHSC5H2SC4H3CNH7NCHCHCH3NC2HC2FeH2C2SCHFeHSC3H4CHCSC2SCHCFeSC4HFeCH2NCSC2HCH6SCSCH3SHCH2SH2C2HC2HSH2CHC3FeCHCHFeS3CH2FeSHSFeS2FeS2FeSFeS3CHFeS2H2NS2FeS2FeS2FeHFeS3FeSHFeSHFeSFeS2HFeS2FeSHC2FeSNSFeS2FeSHFeSFeS3HCFeS2FeS2FeSFeS3HC3SHCFeCH4SCFeSH3S2HC4S2FeH2C7H4C6H5C2HFeC9H5C2HCHCH3C6HCHC4HCH2CSC6HCH2C6H4C6H5C2H2NH2CHS2NHC6H4C6H4C6H4C6H4NHC2H3C2HCHSC2HFeCHSCNC5H5NC6H8NC6H9C5HCH2C2Fe2SH2SH3C2H2Fe2H4CHCHC3HFeC2FeHCH4CHCFeSC3H3CH3CH2CHCHNCHCHCHCHC3HSCHC3N2HCS2HCSNHC2HSHCH4SCH3CH3CSC2NCSH3C3HCH2C2HNCSC3H3CSC2H2FeCHCNH4CH2C4HSCH3C2H4CH7C2HNSCSHC3SH3FeSHFeS2FeSFeHS2Fe2SH4C2HCS3CFeS2FeS2HCFeS3C3NHCH3C5H2N2H2FeC2FeCH2NC6H4CHC3SHCH4C6H4CHC2HFeSH3CFeSCH2CHCH3C2FeC2H3C3HCHC2HSHC3HCS2H2C4HSC2H2CH2CHCHNHC4HCSHC2H3FeC2FeS2FeS3CHSHCSC2SHFeSFeS2C2NCFeS2FeS2FeSFeS3H4NH3C2HC3SCSFeSCFeS2FeSFeS3HC2HC2H4CHC4FeHCHC3HC2HSCH2C2HCSH3C5HCH2C7H4CHC2H5SHC2H5C6H4C2H2C6H4CSC5HC4H2SHC2HC3H3Fe2NC6HC3H10S2C2HSH2CHNHCHC2H3C3FeHNC2SCSC4HCSH4NH2NC6H11CHNCH6C2H2CFeCHFeHCNC6H8CNC2HCFeSHNHSC2HC2HFeHC2HC2HSH3C2FeH2CHSCFeHCSHCHC2NC3H2CHC3NHC2SHC2SH2CSFeHC2SCS2CSHCHFe2SC2H3SHC2Fe2SH2C3HCH3CSCH2SHSCSHFeHCHNCSCHSC4H2CH8CH3NCH3FeC2NCHC2SCH3C6H4C2NFeHC3HC3FeHCHNHCH4CHSC2SHSH4CHC2SC2HCSCFeSFeS2FeS2FeSFeCS2CH3NCHC3NFeHCHCH2C3SH3CSHCH4CFeS2H2CSH3FeS2FeS2FeSFeS3CH2CHNFeH2CNH3C2HCFeC6H4CHSC3HC4H5C2H4CH2CSH2C2H2C3H2C6H8C2H3C7H2C3H2C2H2C5SHC2H2CSCHNHCH2CNHNCHC2H2C4H2FeCHSH2CHCHNH2SC4HCSHC3H4SHCH2NCFeSCSH2C2HSCFeCSHSC3NCH2CSC4H2CNH2CSH2NC2SHFeSFeHFeHC4H2CH2CH2CNC2SC3H2NHCHC2H6C3H5C5HCH3CH3CHSCHC2HFeS2H2CSC2HCFeNHFe2H2FeS2HFeS2FeS3FeS2FeS2FeSFeS3FeS2FeHSFeHFeHS2CH2CHCH2CNHFeS2FeS2FeSFeS3FeS2FeS2FeSFeS3C4HCHFeHC3HSHSCH2C7H5C3H2C6H4NSHC2SHCHC7H4C6H4C6H4C2HC4H4C3HSH5C2HCHC4HCNCH2CHCHSC2HCH2NC6H6N2HCHCH2SC4HFeH4SC2NC6H3SFeH4CH4SH2SC3HCH2CHCH3C2HCSHC3H3CNC6H8CHC2HCHCHCH4CHCHC5H3CNHCH2SCFeCH4NHSCHSHCHCH4CH2CHSC3H2CHNHC3HCHSH4C2HC3HCHCHC2SC3HS2C3NHCHCSH2C2HNFeHC3H2SH4NSFeCFeC2SC4SHSH2C3FeC3HCHC2HCFeHCNCSCS2HS2HCH3C6H3SCFeSFeH3CH6C2H2C2HCH3NCHCH2SNC5HCHCFeHC3SCFeSHSCHFeH2CSHC2HC2HC4HCH2C2HCHSH2C3SCSH2C2HFeSH3CHC3HCHC2NHCSH2NC2HSCH2SH4FeSC2HCSFeCHS2HSHC2SH2FeCS2CSCSHSCFeCH2C2Fe2SFeC2HFeCH2SHFeHNHSHC2HNHCH2CH4CHCHCHCHCH2CHC2HC3HCHCFeHCHCSFeS2FeSCFeSFeS3CSH2SC2NFeSHCFeH2C2HSH2C2HNH2C6H4C2FeH2CFeCH4SCNHC3FeC4FeH3FeC2HC2SCSH2C2H2SCHCHC2FeH5C2HC2H2CHFeHCSCSH2SHNC2HCHC2H2C2SH2CH2SC2NC2HCHCH2CSH3C2H2C2FeC2FeS2CFeSCSNSCHSFeSFeSHC2H2C2SH2CFeSCFeS2FeSFeS3HNFeSFeS2FeSFeSHSFeS2FeS2FeSFeS3FeHSFeS2FeSHS2CH2CHC3HC2FeHCH2C6H4C6H4C7H3C6H4C6HCH2CSC4NHC6H4CH3CHC6H4SC2HCH2CHC2HSC2H3C5HCH4CH2SC3H2CHFeC2HNCHC2SH3CHC3SH2CH5C6H2CHFeC2NC2H5SH4C2H2C3H4C2HCHNC2H3CHNC2H7C3HNH3CHSH2CNH2CN2HC2NH4SHCSHCFeC2HC2SH4SC3HSHC2HSFeH3CH3SHCHCH3CHCSC6H2CH2C2HC3FeSCS2H2CHC2H3CH2CH2CSHSCHFeCSFeHSH2NCH4SFeS2FeSHCSHFeS2FeS2FeSH2S2C2SHSH2C5HCH3C2H3CHCH4CSHNFeC6H4C5Fe2HC2H3S2HSH2CHC2H2SC4HCHSC5SHC2HC3FeCHCH2FeCFeH3C5HNCHNH2C2H4CH5CHNFeCHNH2C2HNCH2C3HCFeHC3FeC2NCSH2NFeHSHCFeS2FeS2FeSFe2S2HFeSCHFeSFeHCHC2SCHNC6H4CH3SCH2CSNCHC6H2C5H3SCH3NC6H5CFeHNHCHCH4S2HCHCH5C2HC2H2CHCH3C2HC5SHC2HSCH3CH3NHC2HCSFe2HSC3HC2FeCHSH2C3FeSCH4CH2FeHCS2CSH3CHSCHSC2HNCSHCH2SHC2FeS2CFeC2SHCFeS2CH3C2FeSC2SHCH2CS2H3CHCNCHCHCH2C2H2SCSCHCSCH3CFeH4C3SHFeSCFeS2FeSFeS3FeS2FeS2FeSFeS3NFeS2FeS2CHFeS3FeS2FeS2FeSFeS3FeCSNFeS2FeH2FeCFeS3HCH2S2H3SHCFeS2FeS2FeSFeS3CNC3HC2H4FeCH4NC4SCHC7H4C6H5C2HFeC2HCH2C6H4C6H2CHC6H5C2H2C6H4C6HCH2C6H4C6H4C6H4C6H6CH3C3HCH2C2H2C2H2C3HC2HCH2CSH3NC6H8NC4SH2NHC2FeCHNC6H8NC6H7C3HNCHCHC2H6C2HCNH2C2HNCHC2SC2HC6HFeNSH4CH4CH2CH4SH3SC3H4C2HCHNC2HCHCHCNHCHC2H2CHC2H2SH3CNFeCH3C2HC2H3SHCHNHSHCH2C6SH3C3SFeS2HFeS2C2NHCFeHNC3HCSHNC3HCHSC2FeH3SCHC3H4CH2CFeCH2CHFeHCH2SHCS2HCHSHC2HCHSFeHSHCH2CHC3H4C2H2CH2CH3CHSCH2C3HCH2CH3C2HC2HSCFeHS5H2C4FeSHC2H2FeSH2CHCS2FeSCFeS2FeSFeS3HNC2H3FeS2FeS2FeHFeS3C7H3FeHFeHFeH3FeCH6C2H4CSHCNSNH2CSC3SCHCH2C6H4C6H5CHCFeCFeHSC6SH2CSC6H4CHCSC6HCFeH3NC6H8FeNHCHCHNCH3NHFeCHC2SNCHFeH2FeHCHNC2H3NHC2HNSCHSHCHC2FeCSH2C2SCSC5HFeH2C5NHCHC2H2SC2SHFe2S2C2HSCH2CHFeSCH2CH2CHSCHS2CH4SHC6HCH5SC4H4SFeHC4HFeSHC3HCHC2H2C3H3SH2C2H3FeSHC2HNH3CSCH4CS2HCHCHSC2H2CHC4NHCH3CH2C2SHNC2NCHCHCH3C2FeC2FeCS2CH9SC2SHCSFeC2HSHFeHS2CHCSHC3H2FeSHC3HSFeH2NCH4FeSC3H2CNSHSCSCH3C2H3CHCHCHCHCFeC2HCH2CSCFeH2CHCH3NC3HSCFeCHCH2CNC2HCHNHCHC2HCH2CSCFeHSC3S2FeHC3HCHCHCHC2SH4C3HCHFeC2FeHSHS2FeH3C2HSH2SC2HSHCH5C3HCHSC2H2NCHCHC3H2C3
_chemical_formula_sum              "H2304 Fe384 S768 C2304 N192"
_cell_length_a       95.4547
_cell_length_b       96.3047
_cell_length_c       96.2676
_cell_angle_alpha    74.174
_cell_angle_beta     74.1399
_cell_angle_gamma    73.545

_space_group_name_H-M_alt    "P 1"
_space_group_IT_number       1

loop_
  _space_group_symop_operation_xyz
  'x, y, z'

loop_
  _atom_site_type_symbol
  _atom_site_label
  _atom_site_symmetry_multiplicity
  _atom_site_fract_x
  _atom_site_fract_y
  _atom_site_fract_z
  _atom_site_occupancy
  H   H1        1.0  0.49856  0.20681  0.99280  1.0000
  Fe  Fe1       1.0  0.44959  0.03572  0.19347  1.0000
  S   S1        1.0  0.43390  0.05794  0.19230  1.0000
  Fe  Fe2       1.0  0.43727  0.02779  0.17162  1.0000
  S   S2        1.0  0.42019  0.04916  0.16885  1.0000
  S   S3        1.0  0.43752  0.00994  0.16076  1.0000
  Fe  Fe3       1.0  0.43903  0.05913  0.16795  1.0000
  S   S4        1.0  0.44230  0.08065  0.15281  1.0000
  Fe  Fe4       1.0  0.41674  0.04588  0.19338  1.0000
  C   C1        1.0  0.48192  0.04402  0.21584  1.0000
  S   S5        1.0  0.45658  0.03795  0.16881  1.0000
  S   S6        1.0  0.43199  0.02341  0.19631  1.0000
  C   C2        1.0  0.49240  0.07277  0.00479  1.0000
  H   H2        1.0  0.47965  0.29296  0.00774  1.0000
  H   H3        1.0  0.43733  0.18103  0.02757  1.0000
  C   C3        1.0  0.43657  0.30372  0.01687  1.0000
  S   S7        1.0  0.46357  0.02956  0.21051  1.0000
  S   S8        1.0  0.47495  0.04467  0.07037  1.0000
  H   H4        1.0  0.46557  0.27697  0.02821  1.0000
  C   C4        1.0  0.48877  0.06753  0.02011  1.0000
  Fe  Fe5       1.0  0.49059  0.02567  0.08191  1.0000
  C   C5        1.0  0.38164  0.04726  0.23745  1.0000
  H   H5        1.0  0.49286  0.05136  0.12315  1.0000
  H   H6        1.0  0.48031  0.05982  0.14646  1.0000
  C   C6        1.0  0.46905  0.00926  0.06176  1.0000
  H   H7        1.0  0.37167  0.05454  0.23405  1.0000
  S   S9        1.0  0.45296  0.24706  0.02275  1.0000
  C   C7        1.0  0.39505  0.29671  0.00381  1.0000
  Fe  Fe6       1.0  0.45423  0.23213  0.00794  1.0000
  S   S10       1.0  0.45559  0.20775  0.01588  1.0000
  Fe  Fe7       1.0  0.43838  0.26366  0.00821  1.0000
  S   S11       1.0  0.41697  0.27806  0.01769  1.0000
  H   H8        1.0  0.43745  0.99889  0.22719  1.0000
  C   C8        1.0  0.48858  0.09173  0.12543  1.0000
  H   H9        1.0  0.46587  0.31552  0.99286  1.0000
  H   H10       1.0  0.38108  0.00040  0.22962  1.0000
  C   C9        1.0  0.42032  0.06372  0.23103  1.0000
  C   C10       1.0  0.48480  0.06755  0.13689  1.0000
  H   H11       1.0  0.46071  0.01811  0.06627  1.0000
  H   H12       1.0  0.46426  0.00689  0.17093  1.0000
  C   C11       1.0  0.47610  0.08688  0.15150  1.0000
  H   H13       1.0  0.45114  0.00729  0.12676  1.0000
  C   C12       1.0  0.45902  0.15530  0.00050  1.0000
  C   C13       1.0  0.48228  0.01214  0.05206  1.0000
  N   N1        1.0  0.49311  0.00092  0.04679  1.0000
  Fe  Fe8       1.0  0.47181  0.25485  0.00544  1.0000
  C   C14       1.0  0.45754  0.09309  0.10913  1.0000
  H   H14       1.0  0.38725  0.29146  0.01271  1.0000
  H   H15       1.0  0.47578  0.17909  0.01628  1.0000
  C   C15       1.0  0.48082  0.07748  0.02929  1.0000
  C   C16       1.0  0.44321  0.17361  0.02007  1.0000
  H   H16       1.0  0.47990  0.99413  0.23715  1.0000
  H   H17       1.0  0.41921  0.06917  0.21980  1.0000
  C   C17       1.0  0.48033  0.09791  0.00789  1.0000
  C   C18       1.0  0.47641  0.09261  0.02316  1.0000
  H   H18       1.0  0.43771  0.28381  0.03398  1.0000
  H   H19       1.0  0.48727  0.10312  0.12600  1.0000
  S   S12       1.0  0.39423  0.05084  0.20814  1.0000
  H   H20       1.0  0.47015  0.10023  0.03031  1.0000
  H   H21       1.0  0.44030  0.19056  0.00068  1.0000
  C   C19       1.0  0.44923  0.08001  0.13410  1.0000
  C   C20       1.0  0.45101  0.09321  0.12398  1.0000
  S   S13       1.0  0.49238  0.25950  0.00849  1.0000
  C   C21       1.0  0.46248  0.07975  0.10430  1.0000
  C   C22       1.0  0.46051  0.06647  0.11432  1.0000
  C   C23       1.0  0.45378  0.06661  0.12927  1.0000
  H   H22       1.0  0.44745  0.10356  0.12768  1.0000
  H   H23       1.0  0.42443  0.30640  0.01936  1.0000
  H   H24       1.0  0.46428  0.05615  0.11058  1.0000
  H   H25       1.0  0.45242  0.05638  0.13709  1.0000
  H   H26       1.0  0.41749  0.03137  0.22323  1.0000
  C   C24       1.0  0.49555  0.08729  0.11203  1.0000
  H   H27       1.0  0.47209  0.04922  0.18308  1.0000
  C   C25       1.0  0.39452  0.04347  0.22685  1.0000
  C   C26       1.0  0.47645  0.18510  0.00492  1.0000
  H   H28       1.0  0.48000  0.03775  0.22709  1.0000
  S   S14       1.0  0.47166  0.08021  0.08578  1.0000
  H   H29       1.0  0.49036  0.06493  0.17506  1.0000
  C   C27       1.0  0.44404  0.29089  0.02525  1.0000
  H   H30       1.0  0.47646  0.01895  0.14103  1.0000
  C   C28       1.0  0.46769  0.19945  0.00171  1.0000
  H   H31       1.0  0.46211  0.13793  0.01982  1.0000
  C   C29       1.0  0.39392  0.02029  0.19575  1.0000
  C   C30       1.0  0.49520  0.06078  0.19654  1.0000
  C   C31       1.0  0.48837  0.08799  0.99870  1.0000
  N   N2        1.0  0.48327  0.08190  0.13761  1.0000
  H   H32       1.0  0.44326  0.05263  0.22470  1.0000
  H   H33       1.0  0.46681  0.09674  0.14971  1.0000
  H   H34       1.0  0.45961  0.02451  0.13437  1.0000
  C   C32       1.0  0.49187  0.06270  0.12372  1.0000
  C   C33       1.0  0.47142  0.01820  0.13219  1.0000
  H   H35       1.0  0.39346  0.03166  0.18966  1.0000
  H   H36       1.0  0.48441  0.08956  0.15589  1.0000
  C   C34       1.0  0.46754  0.29601  0.01036  1.0000
  C   C35       1.0  0.41037  0.29218  0.00361  1.0000
  C   C36       1.0  0.49207  0.05332  0.21132  1.0000
  H   H37       1.0  0.44818  0.15448  0.03737  1.0000
  H   H38       1.0  0.45899  0.10336  0.10139  1.0000
  C   C37       1.0  0.44943  0.15879  0.02554  1.0000
  H   H39       1.0  0.37961  0.02648  0.21572  1.0000
  C   C38       1.0  0.48492  0.99220  0.13505  1.0000
  H   H40       1.0  0.47790  0.07351  0.04112  1.0000
  C   C39       1.0  0.43382  0.05424  0.23388  1.0000
  C   C40       1.0  0.47741  0.05047  0.19107  1.0000
  C   C41       1.0  0.48769  0.05950  0.18653  1.0000
  C   C42       1.0  0.45971  0.30869  0.00208  1.0000
  C   C43       1.0  0.47486  0.04237  0.20559  1.0000
  C   C44       1.0  0.45146  0.99454  0.16569  1.0000
  C   C45       1.0  0.45731  0.14953  0.01572  1.0000
  C   C46       1.0  0.40741  0.03408  0.23131  1.0000
  C   C47       1.0  0.46691  0.99483  0.06597  1.0000
  Fe  Fe9       1.0  0.48408  0.05874  0.07922  1.0000
  C   C48       1.0  0.44932  0.99386  0.22570  1.0000
  C   C49       1.0  0.38616  0.01739  0.21040  1.0000
  S   S15       1.0  0.48187  0.00535  0.09464  1.0000
  H   H41       1.0  0.49813  0.05406  0.21899  1.0000
  H   H42       1.0  0.48389  0.02337  0.04891  1.0000
  C   C50       1.0  0.46339  0.99610  0.17050  1.0000
  H   H43       1.0  0.47103  0.07826  0.16007  1.0000
  C   C51       1.0  0.38697  0.00277  0.21818  1.0000
  S   S16       1.0  0.47516  0.11697  0.00048  1.0000
  C   C52       1.0  0.45962  0.28704  0.02196  1.0000
  C   C53       1.0  0.49719  0.07266  0.11121  1.0000
  C   C54       1.0  0.40246  0.00848  0.18909  1.0000
  S   S17       1.0  0.49747  0.03053  0.15018  1.0000
  H   H44       1.0  0.40856  0.01088  0.17776  1.0000
  Fe  Fe10      1.0  0.49490  0.04586  0.05171  1.0000
  C   C55       1.0  0.38986  0.30773  0.99227  1.0000
  S   S18       1.0  0.45719  0.27286  0.99235  1.0000
  H   H45       1.0  0.49298  0.16756  0.99595  1.0000
  H   H46       1.0  0.47739  0.02351  0.12129  1.0000
  C   C56       1.0  0.45783  0.99733  0.23349  1.0000
  N   N3        1.0  0.44442  0.31237  0.00540  1.0000
  S   S19       1.0  0.43822  0.24820  0.99452  1.0000
  C   C57       1.0  0.44498  0.17896  0.00479  1.0000
  S   S20       1.0  0.47450  0.23826  0.99201  1.0000
  N   N4        1.0  0.47236  0.00271  0.13232  1.0000
  H   H47       1.0  0.49398  0.99524  0.13733  1.0000
  C   C58       1.0  0.46100  0.99892  0.12913  1.0000
  N   N5        1.0  0.40308  0.99416  0.19675  1.0000
  S   S21       1.0  0.49503  0.04872  0.02779  1.0000
  S   S22       1.0  0.49798  0.03974  0.09254  1.0000
  H   H48       1.0  0.49936  0.22452  0.00634  1.0000
  N   N6        1.0  0.45308  0.16989  0.99523  1.0000
  C   C59       1.0  0.48614  0.17857  0.99343  1.0000
  H   H49       1.0  0.46520  0.14805  0.99293  1.0000
  H   H50       1.0  0.37805  0.31098  0.99221  1.0000
  C   C60       1.0  0.42041  0.29900  0.99213  1.0000
  H   H51       1.0  0.43219  0.29570  0.99195  1.0000
  H   H52       1.0  0.49857  0.06511  0.99767  1.0000
  H   H53       1.0  0.45686  0.99238  0.07378  1.0000
  Fe  Fe11      1.0  0.21873  0.04585  0.37943  1.0000
  C   C61       1.0  0.14840  0.04399  0.38261  1.0000
  N   N7        1.0  0.29890  0.03889  0.41665  1.0000
  S   S23       1.0  0.11320  0.07300  0.41989  1.0000
  S   S24       1.0  0.07808  0.07072  0.45282  1.0000
  Fe  Fe12      1.0  0.00648  0.17629  0.43743  1.0000
  H   H54       1.0  0.24663  0.03608  0.39367  1.0000
  H   H55       1.0  0.17554  0.01932  0.35826  1.0000
  Fe  Fe13      1.0  0.02127  0.14419  0.43572  1.0000
  C   C62       1.0  0.04041  0.09605  0.41597  1.0000
  S   S25       1.0  0.04190  0.13191  0.42234  1.0000
  S   S26       1.0  0.20534  0.01610  0.36920  1.0000
  H   H56       1.0  0.16413  0.04488  0.43535  1.0000
  C   C63       1.0  0.32095  0.99627  0.45733  1.0000
  H   H57       1.0  0.06093  0.08967  0.40075  1.0000
  S   S27       1.0  0.00599  0.16201  0.42283  1.0000
  S   S28       1.0  0.02341  0.15915  0.44880  1.0000
  H   H58       1.0  0.14556  0.08030  0.37763  1.0000
  S   S29       1.0  0.42964  0.01343  0.29334  1.0000
  C   C64       1.0  0.29096  0.00331  0.35840  1.0000
  C   C65       1.0  0.04153  0.31826  0.40782  1.0000
  C   C66       1.0  0.36095  0.01168  0.33675  1.0000
  S   S30       1.0  0.39472  0.02776  0.27582  1.0000
  Fe  Fe14      1.0  0.20228  0.02073  0.39149  1.0000
  C   C67       1.0  0.04159  0.30947  0.37446  1.0000
  H   H59       1.0  0.02010  0.28568  0.39590  1.0000
  H   H60       1.0  0.25242  0.03101  0.36238  1.0000
  C   C68       1.0  0.24416  0.04267  0.40187  1.0000
  S   S31       1.0  0.12101  0.05283  0.45178  1.0000
  C   C69       1.0  0.23499  0.05695  0.39978  1.0000
  S   S32       1.0  0.22561  0.06369  0.38514  1.0000
  H   H61       1.0  0.02149  0.10003  0.43385  1.0000
  Fe  Fe15      1.0  0.01597  0.27850  0.46060  1.0000
  S   S33       1.0  0.04091  0.27165  0.45386  1.0000
  C   C70       1.0  0.13515  0.01413  0.38819  1.0000
  Fe  Fe16      1.0  0.01129  0.27475  0.43225  1.0000
  S   S34       1.0  0.03569  0.26801  0.42288  1.0000
  C   C71       1.0  0.22229  0.00728  0.45805  1.0000
  Fe  Fe17      1.0  0.03638  0.25398  0.44554  1.0000
  S   S35       1.0  0.04607  0.22946  0.44969  1.0000
  Fe  Fe18      1.0  0.03744  0.28635  0.43192  1.0000
  S   S36       1.0  0.05147  0.30252  0.41827  1.0000
  S   S37       1.0  0.01170  0.25954  0.45432  1.0000
  S   S38       1.0  0.01275  0.29432  0.43945  1.0000
  C   C72       1.0  0.28205  0.05049  0.40010  1.0000
  S   S39       1.0  0.30586  0.99508  0.40472  1.0000
  H   H62       1.0  0.31632  0.03512  0.38176  1.0000
  H   H63       1.0  0.17678  0.00139  0.39022  1.0000
  H   H64       1.0  0.20607  0.05626  0.41359  1.0000
  H   H65       1.0  0.03077  0.07676  0.45102  1.0000
  Fe  Fe19      1.0  0.22846  0.01957  0.36552  1.0000
  H   H66       1.0  0.12350  0.01849  0.38748  1.0000
  H   H67       1.0  0.05514  0.06039  0.44286  1.0000
  S   S40       1.0  0.25233  0.03775  0.44220  1.0000
  H   H68       1.0  0.00665  0.17573  0.46993  1.0000
  C   C73       1.0  0.19679  0.08329  0.36716  1.0000
  C   C74       1.0  0.28504  0.04665  0.41428  1.0000
  C   C75       1.0  0.17582  0.08630  0.45174  1.0000
  H   H69       1.0  0.36641  0.02025  0.33648  1.0000
  H   H70       1.0  0.17248  0.06515  0.46540  1.0000
  Fe  Fe20      1.0  0.31620  0.00106  0.38075  1.0000
  H   H71       1.0  0.07753  0.06571  0.40448  1.0000
  H   H72       1.0  0.32739  0.00207  0.34884  1.0000
  H   H73       1.0  0.02161  0.31008  0.41277  1.0000
  C   C76       1.0  0.39458  0.03268  0.25698  1.0000
  H   H74       1.0  0.03792  0.24035  0.47665  1.0000
  N   N8        1.0  0.43503  0.04693  0.24800  1.0000
  S   S41       1.0  0.22607  0.02164  0.38877  1.0000
  C   C77       1.0  0.05080  0.07013  0.43506  1.0000
  C   C78       1.0  0.11909  0.99865  0.44011  1.0000
  H   H75       1.0  0.37183  0.04529  0.26067  1.0000
  C   C79       1.0  0.42318  0.04919  0.25958  1.0000
  H   H76       1.0  0.18307  0.99986  0.36454  1.0000
  S   S42       1.0  0.40619  0.99152  0.30159  1.0000
  H   H77       1.0  0.04635  0.28810  0.38901  1.0000
  H   H78       1.0  0.14739  0.03786  0.39380  1.0000
  H   H79       1.0  0.25693  0.02576  0.41640  1.0000
  C   C80       1.0  0.26482  0.01002  0.35692  1.0000
  H   H80       1.0  0.42404  0.04338  0.27079  1.0000
  C   C81       1.0  0.01767  0.20800  0.43414  1.0000
  C   C82       1.0  0.02606  0.19963  0.44472  1.0000
  C   C83       1.0  0.03493  0.20616  0.44940  1.0000
  C   C84       1.0  0.03526  0.22112  0.44366  1.0000
  C   C85       1.0  0.02666  0.22949  0.43328  1.0000
  C   C86       1.0  0.01796  0.22295  0.42849  1.0000
  H   H81       1.0  0.02581  0.18814  0.44926  1.0000
  H   H82       1.0  0.04134  0.19968  0.45764  1.0000
  H   H83       1.0  0.02668  0.24104  0.42885  1.0000
  H   H84       1.0  0.24610  0.99997  0.45113  1.0000
  C   C87       1.0  0.06912  0.08879  0.44509  1.0000
  C   C88       1.0  0.07470  0.09579  0.43067  1.0000
  C   C89       1.0  0.06647  0.10930  0.42401  1.0000
  C   C90       1.0  0.05263  0.11599  0.43176  1.0000
  C   C91       1.0  0.04729  0.10943  0.44643  1.0000
  C   C92       1.0  0.05550  0.09578  0.45305  1.0000
  H   H85       1.0  0.08509  0.09062  0.42440  1.0000
  H   H86       1.0  0.07066  0.11437  0.41268  1.0000
  H   H87       1.0  0.03663  0.11457  0.45250  1.0000
  H   H88       1.0  0.05113  0.09046  0.46423  1.0000
  C   C93       1.0  0.13712  0.05878  0.36216  1.0000
  C   C94       1.0  0.15141  0.05835  0.35294  1.0000
  S   S43       1.0  0.10555  0.04021  0.43219  1.0000
  H   H89       1.0  0.12726  0.06474  0.35778  1.0000
  H   H90       1.0  0.15258  0.06403  0.34145  1.0000
  C   C95       1.0  0.17458  0.01659  0.44629  1.0000
  N   N9        1.0  0.16110  0.00847  0.37620  1.0000
  C   C96       1.0  0.05410  0.08651  0.41160  1.0000
  H   H91       1.0  0.27098  0.05647  0.39829  1.0000
  C   C97       1.0  0.36911  0.99943  0.33060  1.0000
  Fe  Fe21      1.0  0.00332  0.15211  0.46465  1.0000
  C   C98       1.0  0.33913  0.00139  0.34378  1.0000
  S   S44       1.0  0.32859  0.00202  0.42714  1.0000
  H   H92       1.0  0.17908  0.10127  0.48625  1.0000
  C   C99       1.0  0.23782  0.05974  0.42308  1.0000
  C   C100      1.0  0.17270  0.00828  0.36258  1.0000
  Fe  Fe22      1.0  0.41342  0.00933  0.28284  1.0000
  N   N10       1.0  0.05906  0.07367  0.42107  1.0000
  C   C101      1.0  0.15416  0.00532  0.40265  1.0000
  C   C102      1.0  0.03786  0.29672  0.38414  1.0000
  H   H93       1.0  0.41744  0.02156  0.24984  1.0000
  S   S45       1.0  0.18849  0.08806  0.46099  1.0000
  H   H94       1.0  0.27559  0.00780  0.43354  1.0000
  H   H95       1.0  0.17856  0.06346  0.42005  1.0000
  C   C103      1.0  0.25010  0.03690  0.41465  1.0000
  C   C104      1.0  0.24661  0.04534  0.42541  1.0000
  C   C105      1.0  0.17621  0.04161  0.43246  1.0000
  H   H96       1.0  0.02855  0.32253  0.43778  1.0000
  Fe  Fe23      1.0  0.13327  0.06389  0.43003  1.0000
  H   H97       1.0  0.15529  0.06262  0.45139  1.0000
  C   C106      1.0  0.17219  0.09737  0.43964  1.0000
  S   S46       1.0  0.46868  0.99946  0.26777  1.0000
  C   C107      1.0  0.19033  0.08506  0.38162  1.0000
  C   C108      1.0  0.31006  0.03478  0.40515  1.0000
  Fe  Fe24      1.0  0.19905  0.04078  0.36194  1.0000
  C   C109      1.0  0.16415  0.05080  0.35867  1.0000
  H   H98       1.0  0.11232  0.00974  0.43849  1.0000
  S   S47       1.0  0.14061  0.04360  0.42055  1.0000
  C   C110      1.0  0.16509  0.00465  0.38960  1.0000
  C   C111      1.0  0.17537  0.08433  0.38750  1.0000
  C   C112      1.0  0.16304  0.09562  0.43139  1.0000
  C   C113      1.0  0.19980  0.04807  0.42012  1.0000
  Fe  Fe25      1.0  0.12642  0.03313  0.44122  1.0000
  H   H99       1.0  0.27411  0.03710  0.36676  1.0000
  C   C114      1.0  0.03185  0.09244  0.43015  1.0000
  S   S48       1.0  0.43066  0.99367  0.27000  1.0000
  H   H100      1.0  0.18173  0.00535  0.44910  1.0000
  S   S49       1.0  0.18207  0.05112  0.34773  1.0000
  H   H101      1.0  0.14321  0.01714  0.36471  1.0000
  H   H102      1.0  0.15734  0.00266  0.41325  1.0000
  H   H103      1.0  0.23511  0.06630  0.43137  1.0000
  C   C115      1.0  0.17321  0.08056  0.36488  1.0000
  C   C116      1.0  0.18818  0.08106  0.35870  1.0000
  C   C117      1.0  0.27545  0.02676  0.36361  1.0000
  S   S50       1.0  0.11794  0.05275  0.38897  1.0000
  H   H104      1.0  0.16668  0.07875  0.35821  1.0000
  H   H105      1.0  0.19314  0.07933  0.34755  1.0000
  C   C118      1.0  0.30749  0.03853  0.39083  1.0000
  H   H106      1.0  0.14532  0.08951  0.39166  1.0000
  H   H107      1.0  0.15188  0.06968  0.39416  1.0000
  S   S51       1.0  0.41649  0.99724  0.33492  1.0000
  H   H108      1.0  0.20852  0.08337  0.36264  1.0000
  S   S52       1.0  0.22252  0.04391  0.35596  1.0000
  C   C119      1.0  0.13158  0.99533  0.44630  1.0000
  H   H109      1.0  0.29115  0.04892  0.37731  1.0000
  S   S53       1.0  0.22650  0.02678  0.47927  1.0000
  C   C120      1.0  0.30158  0.03413  0.43171  1.0000
  H   H110      1.0  0.32101  0.02848  0.40699  1.0000
  Fe  Fe26      1.0  0.42357  0.99439  0.31142  1.0000
  H   H111      1.0  0.17689  0.10706  0.43631  1.0000
  Fe  Fe27      1.0  0.10120  0.06079  0.44090  1.0000
  H   H112      1.0  0.17050  0.08551  0.39880  1.0000
  H   H113      1.0  0.29977  0.02274  0.43651  1.0000
  H   H114      1.0  0.31330  0.03390  0.43171  1.0000
  H   H115      1.0  0.29404  0.04168  0.43893  1.0000
  C   C121      1.0  0.16004  0.07227  0.44806  1.0000
  H   H116      1.0  0.38087  0.99875  0.32563  1.0000
  H   H117      1.0  0.16831  0.02009  0.45677  1.0000
  C   C122      1.0  0.27878  0.00012  0.35537  1.0000
  C   C123      1.0  0.39140  0.99341  0.35635  1.0000
  C   C124      1.0  0.28931  0.01667  0.36245  1.0000
  Fe  Fe28      1.0  0.44644  0.99595  0.28231  1.0000
  H   H118      1.0  0.03676  0.10651  0.40867  1.0000
  S   S54       1.0  0.00513  0.28674  0.48147  1.0000
  C   C125      1.0  0.40957  0.05869  0.25714  1.0000
  H   H119      1.0  0.01137  0.22955  0.42042  1.0000
  C   C126      1.0  0.07382  0.06422  0.41669  1.0000
  H   H120      1.0  0.39743  0.07276  0.24063  1.0000
  H   H121      1.0  0.33930  0.02207  0.34817  1.0000
  H   H122      1.0  0.39166  0.00359  0.35891  1.0000
  H   H123      1.0  0.27617  0.04987  0.42338  1.0000
  C   C127      1.0  0.23222  0.06563  0.41018  1.0000
  S   S55       1.0  0.33846  0.00060  0.38447  1.0000
  H   H124      1.0  0.19702  0.08661  0.38833  1.0000
  C   C128      1.0  0.20807  0.09653  0.48555  1.0000
  C   C129      1.0  0.14636  0.01336  0.37536  1.0000
  C   C130      1.0  0.15169  0.08033  0.38591  1.0000
  S   S56       1.0  0.19456  0.04531  0.38456  1.0000
  N   N11       1.0  0.16704  0.08200  0.37916  1.0000
  H   H125      1.0  0.08216  0.06698  0.42097  1.0000
  C   C131      1.0  0.16973  0.07373  0.45600  1.0000
  H   H126      1.0  0.26640  0.99321  0.40986  1.0000
  C   C132      1.0  0.44931  0.03714  0.25074  1.0000
  C   C133      1.0  0.03704  0.07939  0.43978  1.0000
  H   H127      1.0  0.44777  0.02883  0.26131  1.0000
  C   C134      1.0  0.16258  0.04339  0.37344  1.0000
  Fe  Fe29      1.0  0.11945  0.05184  0.41212  1.0000
  C   C135      1.0  0.15703  0.08306  0.43550  1.0000
  S   S57       1.0  0.22554  0.06243  0.47178  1.0000
  S   S58       1.0  0.13677  0.00939  0.45101  1.0000
  H   H128      1.0  0.16890  0.00558  0.35391  1.0000
  S   S59       1.0  0.20950  0.04950  0.45339  1.0000
  C   C136      1.0  0.29336  0.04632  0.38833  1.0000
  H   H129      1.0  0.16076  0.10399  0.42168  1.0000
  S   S60       1.0  0.19463  0.04979  0.48868  1.0000
  Fe  Fe30      1.0  0.23182  0.04425  0.45928  1.0000
  H   H130      1.0  0.16660  0.01579  0.44019  1.0000
  H   H131      1.0  0.01072  0.19796  0.47464  1.0000
  C   C137      1.0  0.23555  0.99665  0.45523  1.0000
  C   C138      1.0  0.18427  0.05216  0.42380  1.0000
  C   C139      1.0  0.13564  0.05180  0.37712  1.0000
  C   C140      1.0  0.20882  0.00292  0.46506  1.0000
  H   H132      1.0  0.22513  0.07666  0.40861  1.0000
  S   S61       1.0  0.14750  0.08055  0.42348  1.0000
  Fe  Fe31      1.0  0.20251  0.06567  0.46809  1.0000
  C   C141      1.0  0.49865  0.99321  0.26712  1.0000
  H   H133      1.0  0.02791  0.26209  0.48828  1.0000
  H   H134      1.0  0.17226  0.03695  0.37781  1.0000
  H   H135      1.0  0.40003  0.05991  0.26630  1.0000
  H   H136      1.0  0.22268  0.01879  0.45534  1.0000
  H   H137      1.0  0.05299  0.31083  0.37179  1.0000
  H   H138      1.0  0.49936  0.00107  0.25666  1.0000
  N   N12       1.0  0.06068  0.16434  0.42617  1.0000
  C   C142      1.0  0.06595  0.17424  0.43009  1.0000
  C   C143      1.0  0.05046  0.16927  0.41732  1.0000
  C   C144      1.0  0.06136  0.18948  0.42471  1.0000
  C   C145      1.0  0.04549  0.18443  0.41190  1.0000
  C   C146      1.0  0.05114  0.19457  0.41549  1.0000
  C   C147      1.0  0.06548  0.14839  0.43189  1.0000
  H   H139      1.0  0.07366  0.17042  0.43750  1.0000
  H   H140      1.0  0.04592  0.16146  0.41458  1.0000
  H   H141      1.0  0.06531  0.19737  0.42803  1.0000
  H   H142      1.0  0.03701  0.18834  0.40531  1.0000
  H   H143      1.0  0.04711  0.20638  0.41165  1.0000
  H   H144      1.0  0.06833  0.14223  0.42288  1.0000
  H   H145      1.0  0.07552  0.14564  0.43669  1.0000
  H   H146      1.0  0.05631  0.14429  0.44057  1.0000
  C   C148      1.0  0.19868  0.02315  0.43335  1.0000
  S   S62       1.0  0.30441  0.02077  0.36634  1.0000
  C   C149      1.0  0.02296  0.29548  0.38811  1.0000
  H   H147      1.0  0.07374  0.05232  0.42127  1.0000
  C   C150      1.0  0.26316  0.02334  0.36108  1.0000
  S   S63       1.0  0.24918  0.00499  0.35525  1.0000
  H   H148      1.0  0.32027  0.00790  0.45629  1.0000
  H   H149      1.0  0.21920  0.03016  0.42193  1.0000
  C   C151      1.0  0.00834  0.18893  0.48374  1.0000
  S   S64       1.0  0.18770  0.00988  0.41157  1.0000
  S   S65       1.0  0.00699  0.20013  0.42747  1.0000
  C   C152      1.0  0.34584  0.01266  0.34334  1.0000
  N   N13       1.0  0.18343  0.02734  0.43721  1.0000
  C   C153      1.0  0.00622  0.17621  0.48107  1.0000
  H   H150      1.0  0.45479  0.03083  0.24185  1.0000
  H   H151      1.0  0.01481  0.31236  0.46257  1.0000
  C   C154      1.0  0.20711  0.03347  0.42484  1.0000
  Fe  Fe32      1.0  0.20367  0.03317  0.47421  1.0000
  H   H152      1.0  0.30165  0.99553  0.35734  1.0000
  S   S66       1.0  0.00265  0.13538  0.45262  1.0000
  H   H153      1.0  0.27559  0.03803  0.48302  1.0000
  C   C155      1.0  0.38172  0.04200  0.25249  1.0000
  H   H154      1.0  0.20437  0.01171  0.43658  1.0000
  H   H155      1.0  0.00448  0.22462  0.45896  1.0000
  C   C156      1.0  0.13911  0.01007  0.40190  1.0000
  Fe  Fe33      1.0  0.32870  0.99223  0.40841  1.0000
  H   H156      1.0  0.13056  0.01115  0.41184  1.0000
  H   H157      1.0  0.20628  0.09877  0.47412  1.0000
  H   H158      1.0  0.27404  0.01445  0.45717  1.0000
  C   C157      1.0  0.27855  0.99921  0.44290  1.0000
  C   C158      1.0  0.27764  0.00294  0.45619  1.0000
  H   H159      1.0  0.14666  0.00694  0.47896  1.0000
  C   C159      1.0  0.02673  0.31929  0.40746  1.0000
  S   S67       1.0  0.19345  0.01555  0.47270  1.0000
  H   H160      1.0  0.25012  0.99790  0.48476  1.0000
  H   H161      1.0  0.45693  0.04376  0.25120  1.0000
  C   C160      1.0  0.15049  0.99508  0.48267  1.0000
  H   H162      1.0  0.24811  0.04272  0.48664  1.0000
  N   N14       1.0  0.01207  0.30665  0.38265  1.0000
  H   H163      1.0  0.21984  0.09027  0.48531  1.0000
  H   H164      1.0  0.25922  0.99856  0.38578  1.0000
  C   C161      1.0  0.40811  0.06585  0.24275  1.0000
  C   C162      1.0  0.01564  0.31917  0.37307  1.0000
  H   H165      1.0  0.17139  0.99659  0.48605  1.0000
  H   H166      1.0  0.28125  0.99460  0.47843  1.0000
  C   C163      1.0  0.40740  0.02853  0.24640  1.0000
  H   H167      1.0  0.45266  0.00499  0.24085  1.0000
  C   C164      1.0  0.03045  0.32074  0.36878  1.0000
  C   C165      1.0  0.01006  0.32327  0.45668  1.0000
  C   C166      1.0  0.28146  0.99182  0.46817  1.0000
  H   H168      1.0  0.20654  0.10723  0.48866  1.0000
  H   H169      1.0  0.31474  0.99185  0.48107  1.0000
  S   S68       1.0  0.00105  0.14836  0.48910  1.0000
  C   C167      1.0  0.03442  0.23885  0.48857  1.0000
  Fe  Fe34      1.0  0.42374  0.08355  0.67114  1.0000
  H   H170      1.0  0.45897  0.04794  0.60632  1.0000
  C   C168      1.0  0.48554  0.04523  0.70780  1.0000
  H   H171      1.0  0.43971  0.11066  0.64632  1.0000
  S   S69       1.0  0.47275  0.01204  0.60683  1.0000
  N   N15       1.0  0.48495  0.03571  0.69981  1.0000
  H   H172      1.0  0.42311  0.00811  0.64380  1.0000
  Fe  Fe35      1.0  0.49397  0.01712  0.59136  1.0000
  H   H173      1.0  0.48828  0.11716  0.68062  1.0000
  H   H174      1.0  0.02094  0.23378  0.53089  1.0000
  C   C169      1.0  0.19207  0.06862  0.51691  1.0000
  C   C170      1.0  0.17717  0.07240  0.51568  1.0000
  C   C171      1.0  0.47235  0.03913  0.69258  1.0000
  H   H175      1.0  0.48393  0.03227  0.62266  1.0000
  C   C172      1.0  0.00469  0.26230  0.55662  1.0000
  C   C173      1.0  0.48977  0.08194  0.72211  1.0000
  H   H176      1.0  0.43138  0.05108  0.57659  1.0000
  C   C174      1.0  0.48647  0.03432  0.63211  1.0000
  C   C175      1.0  0.43153  0.09468  0.70311  1.0000
  H   H177      1.0  0.27168  0.02668  0.53006  1.0000
  C   C176      1.0  0.46435  0.12149  0.68702  1.0000
  H   H178      1.0  0.39772  0.05999  0.59895  1.0000
  C   C177      1.0  0.41175  0.11867  0.71423  1.0000
  C   C178      1.0  0.43573  0.04819  0.61601  1.0000
  C   C179      1.0  0.27541  0.03223  0.50629  1.0000
  C   C180      1.0  0.32065  0.03790  0.53786  1.0000
  N   N16       1.0  0.48052  0.11961  0.70303  1.0000
  H   H179      1.0  0.39718  0.08371  0.71358  1.0000
  H   H180      1.0  0.21376  0.07342  0.50782  1.0000
  S   S70       1.0  0.22472  0.04116  0.51311  1.0000
  C   C181      1.0  0.45191  0.12393  0.69847  1.0000
  H   H181      1.0  0.41240  0.04819  0.62250  1.0000
  H   H182      1.0  0.16096  0.08718  0.50337  1.0000
  H   H183      1.0  0.38815  0.01935  0.68984  1.0000
  S   S71       1.0  0.38201  0.00865  0.64010  1.0000
  Fe  Fe36      1.0  0.40241  0.01047  0.58652  1.0000
  S   S72       1.0  0.38048  0.02395  0.59655  1.0000
  S   S73       1.0  0.42191  0.02019  0.57293  1.0000
  H   H184      1.0  0.35847  0.01253  0.50410  1.0000
  C   C182      1.0  0.49557  0.11735  0.70550  1.0000
  H   H185      1.0  0.46176  0.03868  0.70099  1.0000
  C   C183      1.0  0.47866  0.11945  0.68947  1.0000
  Fe  Fe37      1.0  0.44175  0.06201  0.65162  1.0000
  S   S74       1.0  0.42382  0.08247  0.64811  1.0000
  S   S75       1.0  0.46063  0.05581  0.63307  1.0000
  C   C184      1.0  0.42089  0.10809  0.72306  1.0000
  Fe  Fe38      1.0  0.40792  0.06754  0.65904  1.0000
  S   S76       1.0  0.39005  0.06925  0.64710  1.0000
  S   S77       1.0  0.42597  0.04696  0.66084  1.0000
  S   S78       1.0  0.44317  0.06432  0.67368  1.0000
  H   H186      1.0  0.43189  0.00094  0.71356  1.0000
  C   C185      1.0  0.45060  0.10317  0.62606  1.0000
  H   H187      1.0  0.43796  0.08784  0.72430  1.0000
  H   H188      1.0  0.37040  0.99350  0.56524  1.0000
  C   C186      1.0  0.38454  0.02549  0.64170  1.0000
  C   C187      1.0  0.37972  0.03878  0.63211  1.0000
  C   C188      1.0  0.38118  0.05221  0.63405  1.0000
  C   C189      1.0  0.38779  0.05236  0.64534  1.0000
  C   C190      1.0  0.39280  0.03904  0.65478  1.0000
  C   C191      1.0  0.39102  0.02566  0.65307  1.0000
  H   H189      1.0  0.37445  0.03877  0.62350  1.0000
  H   H190      1.0  0.37718  0.06251  0.62679  1.0000
  H   H191      1.0  0.39762  0.03909  0.66369  1.0000
  H   H192      1.0  0.39465  0.01546  0.66062  1.0000
  H   H193      1.0  0.40671  0.04838  0.58558  1.0000
  H   H194      1.0  0.47140  0.05039  0.68535  1.0000
  C   C192      1.0  0.46332  0.09431  0.61885  1.0000
  H   H195      1.0  0.31221  0.04567  0.54381  1.0000
  C   C193      1.0  0.18279  0.09215  0.49492  1.0000
  N   N17       1.0  0.34209  0.01747  0.52309  1.0000
  H   H196      1.0  0.00510  0.26264  0.52141  1.0000
  H   H197      1.0  0.00346  0.17916  0.52114  1.0000
  C   C194      1.0  0.31716  0.03256  0.52743  1.0000
  H   H198      1.0  0.01403  0.25561  0.56153  1.0000
  H   H199      1.0  0.40173  0.04001  0.60466  1.0000
  H   H200      1.0  0.43922  0.08545  0.69875  1.0000
  C   C195      1.0  0.02497  0.23527  0.51899  1.0000
  N   N18       1.0  0.47464  0.08636  0.62596  1.0000
  Fe  Fe39      1.0  0.42560  0.05112  0.68271  1.0000
  H   H201      1.0  0.40394  0.12791  0.71851  1.0000
  C   C196      1.0  0.46836  0.12229  0.71422  1.0000
  S   S79       1.0  0.49361  0.03444  0.57037  1.0000
  H   H202      1.0  0.45605  0.05028  0.58084  1.0000
  C   C197      1.0  0.40594  0.04958  0.59696  1.0000
  C   C198      1.0  0.00719  0.19009  0.49815  1.0000
  S   S80       1.0  0.34908  0.01475  0.58166  1.0000
  C   C199      1.0  0.47969  0.04751  0.65192  1.0000
  C   C200      1.0  0.47650  0.04497  0.63963  1.0000
  H   H203      1.0  0.30603  0.03622  0.52507  1.0000
  H   H204      1.0  0.46030  0.09603  0.65919  1.0000
  H   H205      1.0  0.49626  0.11132  0.71704  1.0000
  H   H206      1.0  0.47227  0.05600  0.65748  1.0000
  H   H207      1.0  0.46986  0.12255  0.72491  1.0000
  C   C201      1.0  0.00282  0.27773  0.55244  1.0000
  H   H208      1.0  0.44078  0.12536  0.69675  1.0000
  H   H209      1.0  0.47374  0.03113  0.68560  1.0000
  C   C202      1.0  0.24656  0.99895  0.50768  1.0000
  C   C203      1.0  0.40199  0.00017  0.70113  1.0000
  H   H210      1.0  0.02241  0.26116  0.52645  1.0000
  H   H211      1.0  0.46445  0.08896  0.70065  1.0000
  C   C204      1.0  0.45105  0.01536  0.66763  1.0000
  C   C205      1.0  0.43928  0.01088  0.66533  1.0000
  C   C206      1.0  0.36684  0.99786  0.67759  1.0000
  C   C207      1.0  0.45389  0.12435  0.71217  1.0000
  C   C208      1.0  0.48833  0.08309  0.69311  1.0000
  H   H212      1.0  0.24406  0.03248  0.53371  1.0000
  C   C209      1.0  0.42191  0.04872  0.61331  1.0000
  C   C210      1.0  0.00367  0.16424  0.49272  1.0000
  N   N19       1.0  0.23963  0.99399  0.52193  1.0000
  C   C211      1.0  0.45886  0.01353  0.59741  1.0000
  C   C212      1.0  0.46211  0.01554  0.58202  1.0000
  C   C213      1.0  0.45072  0.01750  0.57457  1.0000
  C   C214      1.0  0.43612  0.01710  0.58251  1.0000
  C   C215      1.0  0.43293  0.01482  0.59793  1.0000
  C   C216      1.0  0.44427  0.01307  0.60536  1.0000
  H   H213      1.0  0.48590  0.07434  0.60881  1.0000
  Fe  Fe40      1.0  0.30086  0.00385  0.51459  1.0000
  H   H214      1.0  0.42162  0.01509  0.60411  1.0000
  H   H215      1.0  0.44162  0.01178  0.61722  1.0000
  H   H216      1.0  0.40576  0.12594  0.69300  1.0000
  C   C217      1.0  0.49733  0.04221  0.71498  1.0000
  S   S81       1.0  0.40596  0.07057  0.68197  1.0000
  H   H217      1.0  0.45677  0.99654  0.63531  1.0000
  C   C218      1.0  0.46501  0.01291  0.65812  1.0000
  H   H218      1.0  0.31992  0.99751  0.55760  1.0000
  N   N20       1.0  0.19747  0.08811  0.49595  1.0000
  C   C219      1.0  0.34707  0.00403  0.57038  1.0000
  S   S82       1.0  0.42377  0.10512  0.67581  1.0000
  H   H219      1.0  0.16933  0.06603  0.52315  1.0000
  H   H220      1.0  0.47435  0.01589  0.66006  1.0000
  H   H221      1.0  0.42851  0.01264  0.67290  1.0000
  C   C220      1.0  0.03059  0.22278  0.51268  1.0000
  C   C221      1.0  0.41819  0.01997  0.70210  1.0000
  H   H222      1.0  0.01851  0.27266  0.50914  1.0000
  C   C222      1.0  0.42899  0.99932  0.65179  1.0000
  C   C223      1.0  0.44808  0.04880  0.60428  1.0000
  H   H223      1.0  0.45325  0.01925  0.56264  1.0000
  C   C224      1.0  0.26652  0.03042  0.52058  1.0000
  H   H224      1.0  0.35680  0.01910  0.53549  1.0000
  H   H225      1.0  0.44944  0.02036  0.67693  1.0000
  H   H226      1.0  0.32531  0.01842  0.51182  1.0000
  H   H227      1.0  0.46573  0.08846  0.72611  1.0000
  C   C225      1.0  0.45500  0.00193  0.64437  1.0000
  H   H228      1.0  0.40259  0.03679  0.69047  1.0000
  C   C226      1.0  0.25090  0.03363  0.52264  1.0000
  C   C227      1.0  0.24420  0.03806  0.51042  1.0000
  C   C228      1.0  0.43244  0.05058  0.58767  1.0000
  C   C229      1.0  0.47589  0.08558  0.71817  1.0000
  C   C230      1.0  0.41271  0.11752  0.69982  1.0000
  H   H229      1.0  0.46294  0.12078  0.67644  1.0000
  C   C231      1.0  0.42245  0.10549  0.69426  1.0000
  C   C232      1.0  0.48819  0.07771  0.61799  1.0000
  C   C233      1.0  0.40590  0.02515  0.69533  1.0000
  C   C234      1.0  0.01724  0.26207  0.51711  1.0000
  H   H230      1.0  0.44427  0.12606  0.72120  1.0000
  C   C235      1.0  0.49588  0.02306  0.69876  1.0000
  H   H231      1.0  0.46404  0.09375  0.60758  1.0000
  H   H232      1.0  0.00090  0.15597  0.51625  1.0000
  C   C236      1.0  0.44955  0.10389  0.64060  1.0000
  H   H233      1.0  0.03079  0.21176  0.51955  1.0000
  Fe  Fe41      1.0  0.37033  0.00840  0.59047  1.0000
  Fe  Fe42      1.0  0.38305  0.00641  0.61714  1.0000
  C   C237      1.0  0.39772  0.01528  0.69498  1.0000
  C   C238      1.0  0.43093  0.09610  0.71748  1.0000
  H   H234      1.0  0.42080  0.99702  0.66238  1.0000
  C   C239      1.0  0.17246  0.08425  0.50462  1.0000
  C   C240      1.0  0.47369  0.08704  0.64022  1.0000
  S   S83       1.0  0.42878  0.03219  0.70200  1.0000
  C   C241      1.0  0.42235  0.00492  0.70842  1.0000
  C   C242      1.0  0.44643  0.05014  0.58998  1.0000
  H   H235      1.0  0.39312  0.09585  0.73454  1.0000
  H   H236      1.0  0.44154  0.10931  0.62049  1.0000
  C   C243      1.0  0.32812  0.02238  0.52002  1.0000
  N   N21       1.0  0.42046  0.04965  0.59931  1.0000
  N   N22       1.0  0.02402  0.24920  0.51026  1.0000
  S   S84       1.0  0.29490  0.02769  0.50374  1.0000
  H   H237      1.0  0.43689  0.04718  0.62716  1.0000
  H   H238      1.0  0.32323  0.01255  0.57328  1.0000
  H   H239      1.0  0.47339  0.01558  0.57581  1.0000
  H   H240      1.0  0.49558  0.01558  0.69225  1.0000
  C   C244      1.0  0.47517  0.08604  0.70370  1.0000
  S   S85       1.0  0.00947  0.20640  0.50103  1.0000
  H   H241      1.0  0.01070  0.28292  0.55417  1.0000
  C   C245      1.0  0.41431  0.99500  0.70785  1.0000
  C   C246      1.0  0.34572  0.02293  0.53305  1.0000
  C   C247      1.0  0.33506  0.03316  0.54063  1.0000
  C   C248      1.0  0.02869  0.25109  0.49523  1.0000
  H   H242      1.0  0.33787  0.03706  0.54889  1.0000
  H   H243      1.0  0.49261  0.06727  0.62539  1.0000
  C   C249      1.0  0.33283  0.00515  0.56809  1.0000
  C   C250      1.0  0.33095  0.99669  0.55916  1.0000
  H   H244      1.0  0.03929  0.21506  0.49227  1.0000
  H   H245      1.0  0.48262  0.08081  0.64590  1.0000
  C   C251      1.0  0.39975  0.08460  0.73487  1.0000
  C   C252      1.0  0.41748  0.05621  0.73570  1.0000
  C   C253      1.0  0.25313  0.03954  0.49614  1.0000
  S   S86       1.0  0.29913  0.99572  0.53897  1.0000
  H   H246      1.0  0.41274  0.05807  0.71446  1.0000
  H   H247      1.0  0.23340  0.01066  0.53434  1.0000
  H   H248      1.0  0.19594  0.05929  0.52535  1.0000
  C   C254      1.0  0.26871  0.03685  0.49407  1.0000
  H   H249      1.0  0.42430  0.04505  0.73593  1.0000
  C   C255      1.0  0.41093  0.06349  0.72352  1.0000
  H   H250      1.0  0.47779  0.00443  0.63878  1.0000
  C   C256      1.0  0.20214  0.07664  0.50690  1.0000
  C   C257      1.0  0.35338  0.00677  0.51521  1.0000
  S   S87       1.0  0.48751  0.08423  0.67490  1.0000
  C   C258      1.0  0.24130  0.99975  0.53384  1.0000
  H   H251      1.0  0.36230  0.00061  0.52145  1.0000
  H   H252      1.0  0.37867  0.99884  0.67389  1.0000
  S   S88       1.0  0.37070  0.99222  0.61227  1.0000
  H   H253      1.0  0.47694  0.05530  0.70855  1.0000
  C   C259      1.0  0.49314  0.03994  0.65626  1.0000
  Fe  Fe43      1.0  0.21828  0.04514  0.49140  1.0000
  C   C260      1.0  0.03533  0.22463  0.49737  1.0000
  H   H254      1.0  0.49786  0.04984  0.72120  1.0000
  H   H255      1.0  0.36283  0.99928  0.68921  1.0000
  H   H256      1.0  0.34829  0.99824  0.51397  1.0000
  H   H257      1.0  0.25293  0.00104  0.53203  1.0000
  S   S89       1.0  0.39220  0.99652  0.57858  1.0000
  C   C261      1.0  0.46110  0.09571  0.64779  1.0000
  C   C262      1.0  0.24477  0.99389  0.49608  1.0000
  C   C263      1.0  0.46699  0.00630  0.64631  1.0000
  N   N23       1.0  0.44142  0.00404  0.65396  1.0000
  H   H258      1.0  0.36012  0.00709  0.67064  1.0000
  C   C264      1.0  0.00281  0.16523  0.50720  1.0000
  C   C265      1.0  0.00426  0.17832  0.50996  1.0000
  H   H259      1.0  0.25341  0.00694  0.50525  1.0000
  C   C266      1.0  0.40207  0.07781  0.72310  1.0000
  H   H260      1.0  0.00451  0.31852  0.55595  1.0000
  C   C267      1.0  0.35939  0.99443  0.56365  1.0000
  S   S90       1.0  0.40556  0.99395  0.60737  1.0000
  H   H261      1.0  0.49600  0.04262  0.66519  1.0000
  H   H262      1.0  0.23913  0.99206  0.54473  1.0000
  H   H263      1.0  0.49693  0.08426  0.61345  1.0000
  H   H264      1.0  0.36064  0.99142  0.65496  1.0000
  H   H265      1.0  0.49853  0.12819  0.70344  1.0000
  H   H266      1.0  0.39611  0.30050  0.94661  1.0000
  H   H267      1.0  0.46487  0.29731  0.93470  1.0000
  H   H268      1.0  0.42202  0.06266  0.76681  1.0000
  Fe  Fe44      1.0  0.42584  0.28027  0.88686  1.0000
  H   H269      1.0  0.47415  0.10278  0.79685  1.0000
  N   N24       1.0  0.41482  0.28222  0.94887  1.0000
  N   N25       1.0  0.46049  0.30897  0.91353  1.0000
  H   H270      1.0  0.43227  0.26271  0.94957  1.0000
  H   H271      1.0  0.49682  0.22504  0.95593  1.0000
  C   C268      1.0  0.46857  0.20721  0.98706  1.0000
  C   C269      1.0  0.39779  0.28504  0.93346  1.0000
  H   H272      1.0  0.40952  0.09755  0.82987  1.0000
  C   C270      1.0  0.46727  0.30604  0.92515  1.0000
  H   H273      1.0  0.47166  0.27873  0.84305  1.0000
  C   C271      1.0  0.46858  0.30760  0.84169  1.0000
  Fe  Fe45      1.0  0.44545  0.07185  0.77824  1.0000
  S   S91       1.0  0.42930  0.09370  0.77912  1.0000
  S   S92       1.0  0.43758  0.05170  0.79258  1.0000
  Fe  Fe46      1.0  0.46846  0.08577  0.75509  1.0000
  S   S93       1.0  0.45441  0.10887  0.75403  1.0000
  S   S94       1.0  0.40588  0.29674  0.89590  1.0000
  Fe  Fe47      1.0  0.44900  0.10226  0.77880  1.0000
  S   S95       1.0  0.44389  0.11887  0.79329  1.0000
  Fe  Fe48      1.0  0.43613  0.09836  0.75447  1.0000
  H   H274      1.0  0.49663  0.23668  0.93764  1.0000
  S   S96       1.0  0.46475  0.07984  0.77993  1.0000
  S   S97       1.0  0.45052  0.07573  0.75360  1.0000
  H   H275      1.0  0.49407  0.31763  0.96612  1.0000
  S   S98       1.0  0.45900  0.15442  0.85531  1.0000
  H   H276      1.0  0.41861  0.11130  0.81641  1.0000
  C   C272      1.0  0.48692  0.28230  0.89125  1.0000
  S   S99       1.0  0.47608  0.17677  0.86160  1.0000
  Fe  Fe49      1.0  0.47255  0.15392  0.87129  1.0000
  S   S100      1.0  0.46523  0.14792  0.89601  1.0000
  Fe  Fe50      1.0  0.46469  0.17655  0.84429  1.0000
  S   S101      1.0  0.44879  0.19670  0.83469  1.0000
  C   C273      1.0  0.48898  0.13338  0.92815  1.0000
  Fe  Fe51      1.0  0.44698  0.26297  0.86444  1.0000
  S   S102      1.0  0.46527  0.25475  0.87705  1.0000
  S   S103      1.0  0.45164  0.25915  0.84152  1.0000
  S   S104      1.0  0.44223  0.27314  0.90141  1.0000
  Fe  Fe52      1.0  0.45918  0.27799  0.88076  1.0000
  H   H277      1.0  0.46584  0.13811  0.92682  1.0000
  Fe  Fe53      1.0  0.44666  0.25064  0.89665  1.0000
  S   S105      1.0  0.44950  0.23102  0.91566  1.0000
  S   S106      1.0  0.44257  0.28656  0.86634  1.0000
  S   S107      1.0  0.42853  0.25719  0.88381  1.0000
  N   N26       1.0  0.43214  0.08935  0.82010  1.0000
  C   C274      1.0  0.45677  0.23701  0.92726  1.0000
  C   C275      1.0  0.45308  0.23240  0.94266  1.0000
  C   C276      1.0  0.45646  0.23978  0.95168  1.0000
  C   C277      1.0  0.46332  0.25177  0.94518  1.0000
  C   C278      1.0  0.46792  0.25553  0.92987  1.0000
  C   C279      1.0  0.46483  0.24801  0.92097  1.0000
  H   H278      1.0  0.44684  0.22384  0.94758  1.0000
  H   H279      1.0  0.42660  0.00623  0.75108  1.0000
  H   H280      1.0  0.47334  0.26470  0.92485  1.0000
  H   H281      1.0  0.46803  0.25125  0.90912  1.0000
  C   C280      1.0  0.44852  0.21392  0.83790  1.0000
  C   C281      1.0  0.45477  0.21500  0.84905  1.0000
  C   C282      1.0  0.45514  0.22895  0.85072  1.0000
  C   C283      1.0  0.44956  0.24180  0.84098  1.0000
  C   C284      1.0  0.44326  0.24072  0.82991  1.0000
  C   C285      1.0  0.44248  0.22685  0.82856  1.0000
  H   H282      1.0  0.45921  0.20515  0.85643  1.0000
  H   H283      1.0  0.46008  0.22974  0.85925  1.0000
  H   H284      1.0  0.43892  0.25063  0.82237  1.0000
  H   H285      1.0  0.43757  0.22610  0.81997  1.0000
  C   C286      1.0  0.45639  0.12112  0.80267  1.0000
  C   C287      1.0  0.47039  0.11146  0.80306  1.0000
  H   H286      1.0  0.48576  0.21763  0.93372  1.0000
  C   C288      1.0  0.47467  0.12411  0.81987  1.0000
  C   C289      1.0  0.46078  0.13389  0.81929  1.0000
  C   C290      1.0  0.45165  0.13233  0.81080  1.0000
  Fe  Fe54      1.0  0.49377  0.12545  0.98343  1.0000
  H   H287      1.0  0.43932  0.32395  0.98465  1.0000
  H   H288      1.0  0.45699  0.14258  0.82550  1.0000
  H   H289      1.0  0.44084  0.13985  0.81056  1.0000
  C   C291      1.0  0.48716  0.18647  0.97880  1.0000
  H   H290      1.0  0.49021  0.10532  0.81209  1.0000
  C   C292      1.0  0.40751  0.31817  0.90899  1.0000
  S   S108      1.0  0.46467  0.26349  0.95552  1.0000
  H   H291      1.0  0.45388  0.18743  0.89709  1.0000
  H   H292      1.0  0.45151  0.05536  0.81426  1.0000
  C   C293      1.0  0.43521  0.07583  0.81652  1.0000
  H   H293      1.0  0.41606  0.04654  0.76684  1.0000
  C   C294      1.0  0.43251  0.99530  0.75661  1.0000
  H   H294      1.0  0.46187  0.31050  0.85236  1.0000
  H   H295      1.0  0.47210  0.22574  0.81685  1.0000
  H   H296      1.0  0.47625  0.28664  0.95876  1.0000
  H   H297      1.0  0.44712  0.17226  0.97492  1.0000
  C   C295      1.0  0.47717  0.13817  0.92067  1.0000
  C   C296      1.0  0.41236  0.31195  0.89644  1.0000
  N   N27       1.0  0.47283  0.19688  0.89315  1.0000
  H   H298      1.0  0.47900  0.20686  0.96430  1.0000
  C   C297      1.0  0.49687  0.21049  0.93326  1.0000
  H   H299      1.0  0.49486  0.27641  0.93819  1.0000
  C   C298      1.0  0.44233  0.09315  0.82513  1.0000
  C   C299      1.0  0.48002  0.14278  0.90526  1.0000
  C   C300      1.0  0.40658  0.07707  0.74681  1.0000
  S   S109      1.0  0.47002  0.99151  0.77154  1.0000
  H   H300      1.0  0.44720  0.30196  0.90329  1.0000
  C   C301      1.0  0.40239  0.29010  0.94343  1.0000
  H   H301      1.0  0.47053  0.06250  0.82251  1.0000
  H   H302      1.0  0.42708  0.07269  0.81271  1.0000
  H   H303      1.0  0.41309  0.09826  0.81023  1.0000
  H   H304      1.0  0.44553  0.99862  0.79593  1.0000
  C   C302      1.0  0.44901  0.06594  0.81743  1.0000
  C   C303      1.0  0.48261  0.18342  0.89285  1.0000
  N   N28       1.0  0.49350  0.22696  0.81851  1.0000
  S   S110      1.0  0.48602  0.12512  0.83118  1.0000
  C   C304      1.0  0.41942  0.28773  0.95928  1.0000
  H   H305      1.0  0.47268  0.11465  0.90586  1.0000
  H   H306      1.0  0.47021  0.21991  0.89183  1.0000
  H   H307      1.0  0.48045  0.20024  0.81273  1.0000
  C   C305      1.0  0.46099  0.00820  0.77746  1.0000
  C   C306      1.0  0.46572  0.02126  0.76971  1.0000
  C   C307      1.0  0.45864  0.03467  0.77430  1.0000
  C   C308      1.0  0.44675  0.03507  0.78662  1.0000
  C   C309      1.0  0.44200  0.02204  0.79429  1.0000
  C   C310      1.0  0.44913  0.00863  0.78975  1.0000
  C   C311      1.0  0.44955  0.30059  0.91434  1.0000
  H   H308      1.0  0.46253  0.04463  0.76845  1.0000
  H   H309      1.0  0.43286  0.02227  0.80387  1.0000
  C   C312      1.0  0.48370  0.22012  0.81643  1.0000
  C   C313      1.0  0.42263  0.26905  0.94502  1.0000
  H   H310      1.0  0.40277  0.26812  0.92098  1.0000
  Fe  Fe55      1.0  0.49670  0.16604  0.84737  1.0000
  H   H311      1.0  0.45001  0.20464  0.90286  1.0000
  C   C314      1.0  0.41758  0.09957  0.81919  1.0000
  H   H312      1.0  0.46150  0.21812  0.98452  1.0000
  H   H313      1.0  0.42479  0.25341  0.93173  1.0000
  H   H314      1.0  0.47854  0.24829  0.81685  1.0000
  H   H315      1.0  0.39889  0.31443  0.91795  1.0000
  C   C315      1.0  0.39995  0.31457  0.98086  1.0000
  H   H316      1.0  0.46124  0.30441  0.83646  1.0000
  H   H317      1.0  0.48385  0.24039  0.83435  1.0000
  N   N29       1.0  0.49346  0.10667  0.89194  1.0000
  C   C316      1.0  0.45628  0.08358  0.82608  1.0000
  C   C317      1.0  0.47842  0.20081  0.97562  1.0000
  C   C318      1.0  0.47790  0.20917  0.89200  1.0000
  H   H318      1.0  0.43884  0.30463  0.92173  1.0000
  C   C319      1.0  0.49306  0.28894  0.96852  1.0000
  H   H319      1.0  0.45287  0.23686  0.96356  1.0000
  Fe  Fe56      1.0  0.45853  0.25583  0.98000  1.0000
  C   C320      1.0  0.42310  0.31736  0.88464  1.0000
  H   H320      1.0  0.38825  0.29154  0.92869  1.0000
  H   H321      1.0  0.45386  0.28858  0.91840  1.0000
  C   C321      1.0  0.45966  0.06993  0.82210  1.0000
  C   C322      1.0  0.45687  0.19839  0.89419  1.0000
  H   H322      1.0  0.48519  0.26157  0.88841  1.0000
  H   H323      1.0  0.45384  0.20448  0.88344  1.0000
  H   H324      1.0  0.42301  0.31569  0.97219  1.0000
  S   S111      1.0  0.47378  0.29268  0.88065  1.0000
  H   H325      1.0  0.41835  0.29992  0.95568  1.0000
  C   C323      1.0  0.40594  0.27184  0.92913  1.0000
  H   H326      1.0  0.43411  0.04967  0.75613  1.0000
  H   H327      1.0  0.41220  0.28530  0.97046  1.0000
  S   S112      1.0  0.49076  0.14240  0.96258  1.0000
  H   H328      1.0  0.43128  0.28260  0.96003  1.0000
  H   H329      1.0  0.45323  0.18788  0.97637  1.0000
  C   C324      1.0  0.49468  0.14281  0.89737  1.0000
  H   H330      1.0  0.42646  0.31309  0.87470  1.0000
  C   C325      1.0  0.41836  0.26369  0.93505  1.0000
  H   H331      1.0  0.45798  0.32242  0.89234  1.0000
  H   H332      1.0  0.49690  0.24796  0.81854  1.0000
  C   C326      1.0  0.46332  0.32010  0.90157  1.0000
  C   C327      1.0  0.48124  0.28122  0.84510  1.0000
  H   H333      1.0  0.43991  0.10389  0.82794  1.0000
  H   H334      1.0  0.48486  0.29289  0.97768  1.0000
  C   C328      1.0  0.49401  0.28919  0.89753  1.0000
  C   C329      1.0  0.45506  0.17561  0.97922  1.0000
  H   H335      1.0  0.40501  0.08266  0.75569  1.0000
  C   C330      1.0  0.46996  0.11544  0.88427  1.0000
  H   H336      1.0  0.46140  0.99339  0.74378  1.0000
  H   H337      1.0  0.45810  0.12051  0.88663  1.0000
  H   H338      1.0  0.47498  0.02098  0.76026  1.0000
  H   H339      1.0  0.49560  0.10814  0.91309  1.0000
  H   H340      1.0  0.47081  0.11540  0.86165  1.0000
  C   C331      1.0  0.47709  0.11264  0.87027  1.0000
  H   H341      1.0  0.49126  0.09200  0.98688  1.0000
  C   C332      1.0  0.41518  0.31042  0.98097  1.0000
  C   C333      1.0  0.42219  0.05510  0.75980  1.0000
  C   C334      1.0  0.48799  0.24163  0.82221  1.0000
  C   C335      1.0  0.49306  0.20812  0.89086  1.0000
  H   H342      1.0  0.43962  0.99695  0.76320  1.0000
  H   H343      1.0  0.49125  0.25903  0.97927  1.0000
  H   H344      1.0  0.47864  0.17372  0.89350  1.0000
  C   C336      1.0  0.47943  0.11289  0.81173  1.0000
  H   H345      1.0  0.48675  0.12944  0.94001  1.0000
  H   H346      1.0  0.46452  0.08692  0.82954  1.0000
  C   C337      1.0  0.48844  0.20571  0.81396  1.0000
  S   S113      1.0  0.48571  0.16730  0.82911  1.0000
  C   C338      1.0  0.48810  0.28543  0.95780  1.0000
  Fe  Fe57      1.0  0.48104  0.14510  0.84146  1.0000
  N   N30       1.0  0.48154  0.29552  0.84445  1.0000
  S   S114      1.0  0.41851  0.10996  0.74126  1.0000
  C   C339      1.0  0.47833  0.11220  0.89509  1.0000
  N   N31       1.0  0.41539  0.06308  0.74707  1.0000
  H   H347      1.0  0.47219  0.31756  0.83422  1.0000
  H   H348      1.0  0.48249  0.31221  0.93419  1.0000
  H   H349      1.0  0.49210  0.30111  0.89512  1.0000
  H   H350      1.0  0.49185  0.19474  0.92417  1.0000
  C   C340      1.0  0.47723  0.31438  0.92493  1.0000
  C   C341      1.0  0.49009  0.26692  0.89370  1.0000
  H   H351      1.0  0.46668  0.17120  0.97353  1.0000
  H   H352      1.0  0.49174  0.22162  0.85550  1.0000
  C   C342      1.0  0.49246  0.10669  0.86724  1.0000
  S   S115      1.0  0.49421  0.14293  0.85841  1.0000
  H   H353      1.0  0.49267  0.25819  0.84964  1.0000
  C   C343      1.0  0.49308  0.26953  0.84882  1.0000
  H   H354      1.0  0.49329  0.19810  0.84880  1.0000
  C   C344      1.0  0.49346  0.29854  0.84745  1.0000
  H   H355      1.0  0.49339  0.30978  0.84758  1.0000
  H   H356      1.0  0.49702  0.21796  0.88975  1.0000
  C   C345      1.0  0.49854  0.27984  0.94619  1.0000
  H   H357      1.0  0.49698  0.14657  0.88553  1.0000
  H   H358      1.0  0.49813  0.10482  0.85625  1.0000
  C   C346      1.0  0.49792  0.18201  0.89143  1.0000
  S   S116      1.0  0.49915  0.17868  0.96426  1.0000
  S   S117      1.0  0.49095  0.08168  0.74000  1.0000
  S   S118      1.0  0.23358  0.51355  0.02025  1.0000
  S   S119      1.0  0.19467  0.50544  0.02214  1.0000
  S   S120      1.0  0.26680  0.47871  0.02618  1.0000
  Fe  Fe58      1.0  0.25063  0.49412  0.01284  1.0000
  S   S121      1.0  0.02644  0.50052  0.03874  1.0000
  Fe  Fe59      1.0  0.24061  0.52554  0.99697  1.0000
  S   S122      1.0  0.02322  0.49663  0.08141  1.0000
  N   N32       1.0  0.04002  0.46302  0.06799  1.0000
  H   H359      1.0  0.28823  0.52645  0.00982  1.0000
  S   S123      1.0  0.02734  0.52087  0.19529  1.0000
  S   S124      1.0  0.03175  0.41847  0.19225  1.0000
  Fe  Fe60      1.0  0.02897  0.54433  0.19165  1.0000
  S   S125      1.0  0.04493  0.55078  0.20076  1.0000
  C   C347      1.0  0.17157  0.49766  0.01676  1.0000
  H   H360      1.0  0.05627  0.45859  0.09655  1.0000
  H   H361      1.0  0.04996  0.49611  0.01338  1.0000
  H   H362      1.0  0.10711  0.56214  0.00789  1.0000
  S   S126      1.0  0.23488  0.48573  0.00551  1.0000
  H   H363      1.0  0.30914  0.43689  0.01852  1.0000
  C   C348      1.0  0.22345  0.45775  0.99630  1.0000
  Fe  Fe61      1.0  0.02382  0.44115  0.17920  1.0000
  H   H364      1.0  0.02772  0.50501  0.11046  1.0000
  C   C349      1.0  0.00103  0.48675  0.14884  1.0000
  S   S127      1.0  0.01725  0.45215  0.19845  1.0000
  C   C350      1.0  0.16628  0.52934  0.99068  1.0000
  H   H365      1.0  0.44006  0.33552  0.99621  1.0000
  H   H366      1.0  0.27708  0.51362  0.01178  1.0000
  C   C351      1.0  0.02034  0.44471  0.14343  1.0000
  N   N33       1.0  0.29917  0.50878  0.99851  1.0000
  H   H367      1.0  0.01754  0.58585  0.17006  1.0000
  S   S128      1.0  0.00075  0.43850  0.18127  1.0000
  H   H368      1.0  0.03620  0.49573  0.13429  1.0000
  H   H369      1.0  0.02251  0.47015  0.05613  1.0000
  C   C352      1.0  0.04220  0.45913  0.08215  1.0000
  C   C353      1.0  0.27862  0.46548  0.01626  1.0000
  S   S129      1.0  0.00152  0.39613  0.19595  1.0000
  C   C354      1.0  0.20801  0.45937  0.99849  1.0000
  C   C355      1.0  0.09833  0.55730  0.00738  1.0000
  H   H370      1.0  0.09616  0.54474  0.02986  1.0000
  C   C356      1.0  0.29936  0.44608  0.99937  1.0000
  H   H371      1.0  0.02901  0.57801  0.18337  1.0000
  N   N34       1.0  0.99965  0.49272  0.16061  1.0000
  C   C357      1.0  0.02665  0.46087  0.06492  1.0000
  C   C358      1.0  0.07529  0.50338  0.02780  1.0000
  C   C359      1.0  0.02985  0.45364  0.14283  1.0000
  C   C360      1.0  0.03237  0.46500  0.13044  1.0000
  H   H372      1.0  0.20061  0.46212  0.00862  1.0000
  H   H373      1.0  0.05541  0.56677  0.21544  1.0000
  Fe  Fe62      1.0  0.02321  0.42925  0.21177  1.0000
  H   H374      1.0  0.05646  0.54618  0.99840  1.0000
  S   S130      1.0  0.02838  0.54946  0.16759  1.0000
  C   C361      1.0  0.05057  0.46837  0.05655  1.0000
  H   H375      1.0  0.15906  0.52520  0.00090  1.0000
  C   C362      1.0  0.01287  0.44753  0.13194  1.0000
  C   C363      1.0  0.02591  0.51247  0.11770  1.0000
  C   C364      1.0  0.00395  0.48297  0.17406  1.0000
  H   H376      1.0  0.18929  0.53726  0.00543  1.0000
  N   N35       1.0  0.07598  0.54479  0.00588  1.0000
  C   C365      1.0  0.05072  0.50641  0.04421  1.0000
  C   C366      1.0  0.04498  0.50247  0.03432  1.0000
  H   H377      1.0  0.04353  0.50904  0.05442  1.0000
  S   S131      1.0  0.03712  0.42588  0.22819  1.0000
  S   S132      1.0  0.03739  0.45176  0.15808  1.0000
  C   C367      1.0  0.03735  0.57232  0.23361  1.0000
  C   C368      1.0  0.17232  0.49104  0.99397  1.0000
  H   H378      1.0  0.16558  0.49956  0.02762  1.0000
  C   C369      1.0  0.28994  0.45478  0.02231  1.0000
  H   H379      1.0  0.29089  0.45422  0.03341  1.0000
  H   H380      1.0  0.02217  0.58680  0.20659  1.0000
  C   C370      1.0  0.02142  0.58838  0.17880  1.0000
  H   H381      1.0  0.07031  0.50963  0.04880  1.0000
  C   C371      1.0  0.02465  0.46804  0.11910  1.0000
  C   C372      1.0  0.04430  0.56557  0.22151  1.0000
  C   C373      1.0  0.05437  0.49920  0.02105  1.0000
  C   C374      1.0  0.02094  0.53164  0.13671  1.0000
  S   S133      1.0  0.00011  0.42533  0.21700  1.0000
  N   N36       1.0  0.03963  0.47239  0.20365  1.0000
  C   C375      1.0  0.04768  0.45818  0.20716  1.0000
  C   C376      1.0  0.03988  0.47940  0.18919  1.0000
  C   C377      1.0  0.05564  0.45033  0.19608  1.0000
  C   C378      1.0  0.04783  0.47194  0.17781  1.0000
  C   C379      1.0  0.05566  0.45728  0.18132  1.0000
  C   C380      1.0  0.03110  0.48026  0.21548  1.0000
  H   H382      1.0  0.04769  0.45268  0.21860  1.0000
  H   H383      1.0  0.03378  0.49076  0.18634  1.0000
  H   H384      1.0  0.06145  0.43884  0.19899  1.0000
  H   H385      1.0  0.07167  0.47494  0.05008  1.0000
  H   H386      1.0  0.06152  0.45126  0.17260  1.0000
  H   H387      1.0  0.03849  0.48543  0.21859  1.0000
  H   H388      1.0  0.02157  0.48907  0.21194  1.0000
  H   H389      1.0  0.02627  0.47253  0.22537  1.0000
  C   C381      1.0  0.01540  0.56301  0.23691  1.0000
  Fe  Fe63      1.0  0.21838  0.50625  0.01089  1.0000
  C   C382      1.0  0.08230  0.55392  0.99363  1.0000
  H   H390      1.0  0.01535  0.47598  0.17123  1.0000
  C   C383      1.0  0.31240  0.51317  0.99276  1.0000
  H   H391      1.0  0.05766  0.53416  0.01608  1.0000
  C   C384      1.0  0.06587  0.50677  0.04100  1.0000
  C   C385      1.0  0.30024  0.44499  0.01391  1.0000
  Fe  Fe64      1.0  0.10761  0.50440  0.00092  1.0000
  C   C386      1.0  0.06952  0.49968  0.01777  1.0000
  C   C387      1.0  0.09336  0.56050  0.99427  1.0000
  H   H392      1.0  0.01077  0.54845  0.12018  1.0000
  C   C388      1.0  0.08090  0.54147  0.01875  1.0000
  C   C389      1.0  0.18629  0.49946  0.01147  1.0000
  Fe  Fe65      1.0  0.02381  0.52683  0.17215  1.0000
  H   H393      1.0  0.14572  0.55707  0.99665  1.0000
  H   H394      1.0  0.31292  0.52443  0.99216  1.0000
  Fe  Fe66      1.0  0.00801  0.41664  0.19616  1.0000
  H   H395      1.0  0.07675  0.49702  0.00758  1.0000
  C   C390      1.0  0.06546  0.46712  0.07366  1.0000
  C   C391      1.0  0.19404  0.49696  0.99745  1.0000
  H   H396      1.0  0.12822  0.54596  0.99059  1.0000
  H   H397      1.0  0.04771  0.47742  0.16635  1.0000
  C   C392      1.0  0.28564  0.51938  0.00389  1.0000
  H   H398      1.0  0.22791  0.45885  0.00506  1.0000
  H   H399      1.0  0.07527  0.46899  0.07586  1.0000
  H   H400      1.0  0.06958  0.52841  0.99967  1.0000
  C   C393      1.0  0.05483  0.46131  0.08524  1.0000
  C   C394      1.0  0.03069  0.50722  0.13116  1.0000
  Fe  Fe67      1.0  0.01315  0.50373  0.06134  1.0000
  S   S134      1.0  0.03294  0.50984  0.15806  1.0000
  S   S135      1.0  0.25912  0.50682  0.99035  1.0000
  S   S136      1.0  0.12110  0.48482  0.99093  1.0000
  C   C395      1.0  0.17741  0.53986  0.00452  1.0000
  H   H401      1.0  0.02623  0.47718  0.10984  1.0000
  H   H402      1.0  0.42422  0.32736  0.00006  1.0000
  H   H403      1.0  0.04317  0.57863  0.23691  1.0000
  H   H404      1.0  0.02927  0.45028  0.06126  1.0000
  H   H405      1.0  0.01882  0.43558  0.15272  1.0000
  C   C396      1.0  0.01114  0.59170  0.20423  1.0000
  C   C397      1.0  0.06344  0.47049  0.05919  1.0000
  H   H406      1.0  0.00422  0.48933  0.18199  1.0000
  Fe  Fe68      1.0  0.00743  0.51721  0.08786  1.0000
  H   H407      1.0  0.28069  0.52667  0.99446  1.0000
  H   H408      1.0  0.01736  0.46069  0.07486  1.0000
  S   S137      1.0  0.01137  0.53404  0.09769  1.0000
  S   S138      1.0  0.12689  0.51534  0.99579  1.0000
  C   C398      1.0  0.01474  0.45942  0.11995  1.0000
  H   H409      1.0  0.03409  0.45446  0.09118  1.0000
  H   H410      1.0  0.01699  0.54911  0.22222  1.0000
  H   H411      1.0  0.17235  0.55172  0.00481  1.0000
  H   H412      1.0  0.00545  0.44067  0.13244  1.0000
  C   C399      1.0  0.03678  0.55759  0.21701  1.0000
  N   N37       1.0  0.00882  0.59326  0.19042  1.0000
  C   C400      1.0  0.27742  0.46619  0.00189  1.0000
  H   H413      1.0  0.00602  0.44019  0.23693  1.0000
  H   H414      1.0  0.26864  0.47433  0.99717  1.0000
  C   C401      1.0  0.29831  0.49486  0.99844  1.0000
  H   H415      1.0  0.03984  0.47182  0.12990  1.0000
  S   S139      1.0  0.00447  0.46340  0.10625  1.0000
  H   H416      1.0  0.04894  0.47126  0.04529  1.0000
  C   C402      1.0  0.09216  0.54762  0.01968  1.0000
  N   N38       1.0  0.17644  0.53689  0.99072  1.0000
  S   S140      1.0  0.09415  0.50399  0.02419  1.0000
  H   H417      1.0  0.00120  0.59504  0.22645  1.0000
  H   H418      1.0  0.20538  0.49833  0.99327  1.0000
  H   H419      1.0  0.07627  0.53387  0.02834  1.0000
  C   C403      1.0  0.02804  0.51676  0.14075  1.0000
  C   C404      1.0  0.02251  0.55594  0.22504  1.0000
  C   C405      1.0  0.43657  0.32544  0.99621  1.0000
  H   H420      1.0  0.31016  0.47380  0.99265  1.0000
  H   H421      1.0  0.17162  0.53285  0.01438  1.0000
  H   H422      1.0  0.15316  0.49215  0.01208  1.0000
  H   H423      1.0  0.01889  0.53909  0.14403  1.0000
  C   C406      1.0  0.16453  0.49355  0.00797  1.0000
  C   C407      1.0  0.01636  0.53694  0.12320  1.0000
  H   H424      1.0  0.00495  0.47493  0.14963  1.0000
  C   C408      1.0  0.01863  0.52733  0.11378  1.0000
  C   C409      1.0  0.28783  0.45655  0.99342  1.0000
  S   S141      1.0  0.00451  0.55308  0.19916  1.0000
  Fe  Fe69      1.0  0.00360  0.55649  0.17546  1.0000
  C   C410      1.0  0.31095  0.48481  0.99274  1.0000
  C   C411      1.0  0.06436  0.53807  0.00496  1.0000
  H   H425      1.0  0.02787  0.59711  0.17365  1.0000
  H   H426      1.0  0.28778  0.49151  0.00267  1.0000
  Fe  Fe70      1.0  0.00277  0.52989  0.20131  1.0000
  Fe  Fe71      1.0  0.00358  0.48618  0.09194  1.0000
  C   C412      1.0  0.01074  0.52629  0.25477  1.0000
  C   C413      1.0  0.02548  0.34373  0.39163  1.0000
  H   H427      1.0  0.01850  0.60537  0.29212  1.0000
  H   H428      1.0  0.00936  0.64735  0.30402  1.0000
  S   S142      1.0  0.01544  0.35943  0.38137  1.0000
  H   H429      1.0  0.05990  0.32918  0.39995  1.0000
  C   C414      1.0  0.01788  0.32896  0.44265  1.0000
  H   H430      1.0  0.04578  0.35161  0.38535  1.0000
  H   H431      1.0  0.03312  0.33097  0.36173  1.0000
  C   C415      1.0  0.00462  0.44872  0.25591  1.0000
  C   C416      1.0  0.01173  0.34285  0.43483  1.0000
  H   H432      1.0  0.03425  0.44582  0.27055  1.0000
  H   H433      1.0  0.01016  0.54233  0.26692  1.0000
  C   C417      1.0  0.00807  0.64065  0.29722  1.0000
  C   C418      1.0  0.00131  0.61391  0.27215  1.0000
  C   C419      1.0  0.02805  0.44458  0.26325  1.0000
  C   C420      1.0  0.01260  0.45029  0.26539  1.0000
  H   H434      1.0  0.00837  0.50968  0.24507  1.0000
  C   C421      1.0  0.01214  0.44136  0.24429  1.0000
  C   C422      1.0  0.01298  0.61703  0.29058  1.0000
  S   S143      1.0  0.01396  0.58069  0.25560  1.0000
  H   H435      1.0  0.00698  0.32827  0.36912  1.0000
  S   S144      1.0  0.00392  0.65639  0.34802  1.0000
  C   C423      1.0  0.01521  0.62568  0.29901  1.0000
  C   C424      1.0  0.00060  0.42856  0.31431  1.0000
  C   C425      1.0  0.04841  0.32994  0.39980  1.0000
  C   C426      1.0  0.02279  0.57127  0.24116  1.0000
  C   C427      1.0  0.02754  0.43533  0.24241  1.0000
  H   H436      1.0  0.04740  0.43235  0.25040  1.0000
  H   H437      1.0  0.00626  0.42911  0.30279  1.0000
  S   S145      1.0  0.00358  0.45931  0.28004  1.0000
  C   C428      1.0  0.04043  0.34262  0.39158  1.0000
  C   C429      1.0  0.00386  0.51552  0.25407  1.0000
  C   C430      1.0  0.00498  0.53387  0.26630  1.0000
  C   C431      1.0  0.01864  0.33207  0.39963  1.0000
  H   H438      1.0  0.02049  0.52872  0.24642  1.0000
  H   H439      1.0  0.01757  0.34728  0.42383  1.0000
  H   H440      1.0  0.02212  0.62076  0.30716  1.0000
  C   C432      1.0  0.03548  0.43698  0.25186  1.0000
  N   N39       1.0  0.00365  0.62309  0.28086  1.0000
  H   H441      1.0  0.00869  0.61539  0.26097  1.0000
  H   H442      1.0  0.00135  0.39315  0.34992  1.0000
  H   H443      1.0  0.00378  0.60194  0.27749  1.0000
  H   H444      1.0  0.00729  0.33259  0.39929  1.0000
  H   H445      1.0  0.00346  0.40490  0.31955  1.0000
  H   H446      1.0  0.00377  0.60347  0.47783  1.0000
  H   H447      1.0  0.00423  0.56203  0.24272  1.0000
  N   N40       1.0  0.01832  0.58774  0.66222  1.0000
  C   C433      1.0  0.04498  0.48605  0.70029  1.0000
  H   H448      1.0  0.05153  0.57386  0.64135  1.0000
  C   C434      1.0  0.05119  0.45577  0.72887  1.0000
  H   H449      1.0  0.04447  0.49454  0.71909  1.0000
  C   C435      1.0  0.06110  0.50702  0.68354  1.0000
  H   H450      1.0  0.00584  0.43470  0.65728  1.0000
  H   H451      1.0  0.04856  0.48006  0.66653  1.0000
  H   H452      1.0  0.00759  0.58665  0.63186  1.0000
  N   N41       1.0  0.04994  0.48694  0.68540  1.0000
  C   C436      1.0  0.05593  0.54822  0.70811  1.0000
  C   C437      1.0  0.02269  0.49828  0.65645  1.0000
  H   H453      1.0  0.00671  0.47121  0.73344  1.0000
  C   C438      1.0  0.00523  0.47802  0.66042  1.0000
  C   C439      1.0  0.04305  0.52623  0.72900  1.0000
  Fe  Fe72      1.0  0.01957  0.52624  0.66940  1.0000
  H   H454      1.0  0.00665  0.58209  0.68432  1.0000
  H   H455      1.0  0.06096  0.55671  0.70009  1.0000
  C   C440      1.0  0.01527  0.48114  0.64697  1.0000
  C   C441      1.0  0.01630  0.43374  0.64862  1.0000
  S   S146      1.0  0.03336  0.51101  0.65439  1.0000
  C   C442      1.0  0.01611  0.42546  0.61283  1.0000
  H   H456      1.0  0.02932  0.37661  0.67534  1.0000
  Fe  Fe73      1.0  0.01835  0.54795  0.68728  1.0000
  H   H457      1.0  0.02699  0.41422  0.63085  1.0000
  S   S147      1.0  0.00090  0.54145  0.59593  1.0000
  C   C443      1.0  0.00617  0.43806  0.60714  1.0000
  C   C444      1.0  0.00658  0.57829  0.49820  1.0000
  C   C445      1.0  0.00396  0.48499  0.67177  1.0000
  H   H458      1.0  0.06725  0.51532  0.67684  1.0000
  H   H459      1.0  0.01776  0.57212  0.49332  1.0000
  H   H460      1.0  0.02375  0.42287  0.65222  1.0000
  H   H461      1.0  0.00314  0.60173  0.67621  1.0000
  C   C446      1.0  0.01257  0.49519  0.66977  1.0000
  H   H462      1.0  0.03862  0.47791  0.70688  1.0000
  C   C447      1.0  0.03551  0.53566  0.71803  1.0000
  S   S148      1.0  0.01266  0.42192  0.71973  1.0000
  C   C448      1.0  0.00581  0.54639  0.62057  1.0000
  C   C449      1.0  0.03963  0.57846  0.64439  1.0000
  S   S149      1.0  0.02250  0.43396  0.68399  1.0000
  C   C450      1.0  0.01076  0.39544  0.67669  1.0000
  H   H463      1.0  0.05895  0.51336  0.70397  1.0000
  C   C451      1.0  0.04821  0.49545  0.70723  1.0000
  Fe  Fe74      1.0  0.02378  0.43980  0.70465  1.0000
  S   S150      1.0  0.04319  0.44653  0.70813  1.0000
  C   C452      1.0  0.06358  0.53863  0.71881  1.0000
  C   C453      1.0  0.02417  0.49120  0.64503  1.0000
  C   C454      1.0  0.00297  0.44750  0.62887  1.0000
  C   C455      1.0  0.04179  0.44829  0.72627  1.0000
  H   H464      1.0  0.02097  0.41653  0.60688  1.0000
  Fe  Fe75      1.0  0.00901  0.41797  0.69910  1.0000
  C   C456      1.0  0.04198  0.54667  0.70759  1.0000
  H   H465      1.0  0.04059  0.58034  0.66583  1.0000
  H   H466      1.0  0.05954  0.46000  0.71984  1.0000
  N   N42       1.0  0.01283  0.43513  0.63431  1.0000
  C   C457      1.0  0.01940  0.42419  0.62647  1.0000
  S   S151      1.0  0.01875  0.52364  0.69347  1.0000
  C   C458      1.0  0.05791  0.49726  0.67702  1.0000
  C   C459      1.0  0.04754  0.47611  0.67866  1.0000
  H   H467      1.0  0.06171  0.49808  0.66518  1.0000
  C   C460      1.0  0.05635  0.50598  0.69876  1.0000
  H   H468      1.0  0.07449  0.53976  0.71899  1.0000
  H   H469      1.0  0.05586  0.46548  0.68081  1.0000
  H   H470      1.0  0.01644  0.47557  0.63823  1.0000
  H   H471      1.0  0.03617  0.47392  0.68339  1.0000
  H   H472      1.0  0.01593  0.53782  0.61909  1.0000
  H   H473      1.0  0.03207  0.49358  0.63472  1.0000
  S   S152      1.0  0.03302  0.55852  0.69364  1.0000
  C   C461      1.0  0.03338  0.58221  0.65820  1.0000
  S   S153      1.0  0.02151  0.54975  0.66304  1.0000
  C   C462      1.0  0.02086  0.38441  0.66982  1.0000
  H   H474      1.0  0.00780  0.51566  0.62161  1.0000
  H   H475      1.0  0.03806  0.51778  0.73707  1.0000
  H   H476      1.0  0.01165  0.50038  0.67872  1.0000
  S   S154      1.0  0.00882  0.39100  0.63115  1.0000
  H   H477      1.0  0.00787  0.58798  0.50154  1.0000
  C   C463      1.0  0.03035  0.58021  0.63477  1.0000
  H   H478      1.0  0.02463  0.53455  0.71776  1.0000
  H   H479      1.0  0.02040  0.59235  0.68204  1.0000
  S   S155      1.0  0.01145  0.39556  0.69473  1.0000
  H   H480      1.0  0.02412  0.43662  0.73627  1.0000
  H   H481      1.0  0.03496  0.57698  0.62419  1.0000
  C   C464      1.0  0.05717  0.52767  0.72930  1.0000
  C   C465      1.0  0.00906  0.39312  0.64867  1.0000
  H   H482      1.0  0.02820  0.37492  0.65052  1.0000
  C   C466      1.0  0.02019  0.38344  0.65578  1.0000
  C   C467      1.0  0.01500  0.58569  0.63904  1.0000
  H   H483      1.0  0.00873  0.54877  0.64096  1.0000
  S   S156      1.0  0.00288  0.45766  0.70468  1.0000
  H   H484      1.0  0.00352  0.43911  0.59659  1.0000
  H   H485      1.0  0.02179  0.44268  0.64807  1.0000
  C   C468      1.0  0.03134  0.44248  0.73812  1.0000
  H   H486      1.0  0.00171  0.57106  0.50850  1.0000
  C   C469      1.0  0.01179  0.59120  0.67689  1.0000
  C   C470      1.0  0.00177  0.55270  0.63296  1.0000
  C   C471      1.0  0.00913  0.58935  0.65292  1.0000
  Fe  Fe76      1.0  0.00037  0.45015  0.68553  1.0000
  C   C472      1.0  0.99977  0.40545  0.66948  1.0000
  H   H487      1.0  0.99964  0.34837  0.57184  1.0000
  C   C473      1.0  0.99947  0.44916  0.61520  1.0000
  H   H488      1.0  0.44604  0.62020  0.97237  1.0000
  Fe  Fe77      1.0  0.02871  0.49986  0.78744  1.0000
  S   S157      1.0  0.03952  0.47713  0.79822  1.0000
  S   S158      1.0  0.46474  0.32794  0.95966  1.0000
  S   S159      1.0  0.48889  0.63918  0.97293  1.0000
  C   C474      1.0  0.23684  0.52804  0.92475  1.0000
  H   H489      1.0  0.23771  0.49777  0.90513  1.0000
  H   H490      1.0  0.13292  0.46179  0.92984  1.0000
  Fe  Fe78      1.0  0.06048  0.48563  0.79220  1.0000
  S   S160      1.0  0.07831  0.47930  0.80577  1.0000
  H   H491      1.0  0.23668  0.53648  0.93033  1.0000
  S   S161      1.0  0.04903  0.50897  0.78355  1.0000
  Fe  Fe79      1.0  0.11119  0.51920  0.84635  1.0000
  S   S162      1.0  0.11135  0.50746  0.86987  1.0000
  S   S163      1.0  0.09025  0.52352  0.83745  1.0000
  Fe  Fe80      1.0  0.14314  0.52286  0.84084  1.0000
  S   S164      1.0  0.14618  0.51087  0.86363  1.0000
  S   S165      1.0  0.16143  0.53130  0.82299  1.0000
  Fe  Fe81      1.0  0.13423  0.49513  0.86089  1.0000
  S   S166      1.0  0.13926  0.47035  0.86815  1.0000
  Fe  Fe82      1.0  0.12309  0.52409  0.87087  1.0000
  S   S167      1.0  0.11845  0.53403  0.89073  1.0000
  S   S168      1.0  0.13342  0.50568  0.83722  1.0000
  S   S169      1.0  0.12078  0.53741  0.84813  1.0000
  C   C475      1.0  0.23616  0.64130  0.94131  1.0000
  H   H492      1.0  0.21103  0.54595  0.93045  1.0000
  Fe  Fe83      1.0  0.29700  0.57355  0.94611  1.0000
  S   S170      1.0  0.31482  0.57376  0.92542  1.0000
  S   S171      1.0  0.29428  0.55292  0.96362  1.0000
  H   H493      1.0  0.07560  0.52270  0.76604  1.0000
  H   H494      1.0  0.01827  0.46543  0.82451  1.0000
  N   N43       1.0  0.22464  0.52841  0.91972  1.0000
  S   S172      1.0  0.29918  0.59482  0.94977  1.0000
  S   S173      1.0  0.27802  0.58432  0.93443  1.0000
  Fe  Fe84      1.0  0.20876  0.54782  0.87990  1.0000
  S   S174      1.0  0.20430  0.57188  0.86903  1.0000
  S   S175      1.0  0.19104  0.53880  0.89788  1.0000
  Fe  Fe85      1.0  0.23827  0.54111  0.85904  1.0000
  S   S176      1.0  0.23593  0.56435  0.84571  1.0000
  S   S177      1.0  0.25787  0.52276  0.85379  1.0000
  Fe  Fe86      1.0  0.22841  0.57043  0.86793  1.0000
  H   H495      1.0  0.10915  0.49519  0.76205  1.0000
  Fe  Fe87      1.0  0.21210  0.56354  0.84812  1.0000
  S   S178      1.0  0.19920  0.57268  0.83010  1.0000
  S   S179      1.0  0.23216  0.54708  0.88117  1.0000
  S   S180      1.0  0.21527  0.53963  0.85901  1.0000
  Fe  Fe88      1.0  0.19084  0.61343  0.93878  1.0000
  S   S181      1.0  0.19826  0.60453  0.91810  1.0000
  H   H496      1.0  0.29241  0.55145  0.93317  1.0000
  Fe  Fe89      1.0  0.17708  0.58768  0.95676  1.0000
  S   S182      1.0  0.18439  0.57604  0.93794  1.0000
  H   H497      1.0  0.01202  0.43861  0.78932  1.0000
  Fe  Fe90      1.0  0.20570  0.58308  0.93322  1.0000
  S   S183      1.0  0.22821  0.56833  0.92759  1.0000
  Fe  Fe91      1.0  0.17592  0.59852  0.92458  1.0000
  S   S184      1.0  0.16249  0.60093  0.90767  1.0000
  S   S185      1.0  0.19952  0.59226  0.95367  1.0000
  H   H498      1.0  0.25965  0.49649  0.91506  1.0000
  Fe  Fe92      1.0  0.42995  0.34923  0.92324  1.0000
  S   S186      1.0  0.40746  0.35933  0.93553  1.0000
  S   S187      1.0  0.43392  0.34731  0.89974  1.0000
  Fe  Fe93      1.0  0.44456  0.34062  0.94965  1.0000
  S   S188      1.0  0.42314  0.34984  0.96434  1.0000
  H   H499      1.0  0.21859  0.55170  0.98094  1.0000
  C   C476      1.0  0.43191  0.64798  0.94595  1.0000
  C   C477      1.0  0.08275  0.52195  0.77337  1.0000
  Fe  Fe94      1.0  0.42042  0.36906  0.94515  1.0000
  S   S189      1.0  0.41202  0.39166  0.95060  1.0000
  N   N44       1.0  0.36529  0.60452  0.96781  1.0000
  S   S190      1.0  0.44276  0.36078  0.93115  1.0000
  Fe  Fe95      1.0  0.32980  0.47471  0.94632  1.0000
  S   S191      1.0  0.33020  0.46866  0.92530  1.0000
  S   S192      1.0  0.33797  0.49491  0.94498  1.0000
  Fe  Fe96      1.0  0.31812  0.44801  0.96519  1.0000
  S   S193      1.0  0.31706  0.43989  0.94589  1.0000
  H   H500      1.0  0.42174  0.65287  0.94185  1.0000
  Fe  Fe97      1.0  0.33954  0.44534  0.93608  1.0000
  S   S194      1.0  0.35656  0.42933  0.92319  1.0000
  Fe  Fe98      1.0  0.30781  0.46381  0.93690  1.0000
  S   S195      1.0  0.29007  0.47285  0.92348  1.0000
  S   S196      1.0  0.34130  0.45174  0.95615  1.0000
  S   S197      1.0  0.30669  0.47157  0.95723  1.0000
  H   H501      1.0  0.11096  0.45911  0.86420  1.0000
  C   C478      1.0  0.22542  0.59141  0.97983  1.0000
  Fe  Fe99      1.0  0.21424  0.46702  0.89451  1.0000
  S   S198      1.0  0.21380  0.44397  0.90752  1.0000
  S   S199      1.0  0.22588  0.46985  0.87069  1.0000
  Fe  Fe100     1.0  0.20029  0.48048  0.92185  1.0000
  S   S200      1.0  0.19856  0.45843  0.93669  1.0000
  S   S201      1.0  0.19435  0.49976  0.93280  1.0000
  Fe  Fe101     1.0  0.22176  0.45054  0.92416  1.0000
  S   S202      1.0  0.24007  0.43716  0.93635  1.0000
  Fe  Fe102     1.0  0.19074  0.45469  0.91837  1.0000
  S   S203      1.0  0.17115  0.44459  0.92227  1.0000
  S   S204      1.0  0.22378  0.47291  0.91019  1.0000
  S   S205      1.0  0.19071  0.47752  0.90429  1.0000
  H   H502      1.0  0.30364  0.55042  0.88094  1.0000
  C   C479      1.0  0.43232  0.63604  0.95809  1.0000
  C   C480      1.0  0.08084  0.49420  0.89347  1.0000
  C   C481      1.0  0.25875  0.62992  0.90498  1.0000
  S   S206      1.0  0.24800  0.49194  0.96269  1.0000
  H   H503      1.0  0.14378  0.53830  0.94448  1.0000
  C   C482      1.0  0.29725  0.54392  0.92528  1.0000
  Fe  Fe103     1.0  0.04545  0.47279  0.77535  1.0000
  C   C483      1.0  0.35240  0.61996  0.93101  1.0000
  H   H504      1.0  0.29809  0.57304  0.86299  1.0000
  H   H505      1.0  0.24727  0.57749  0.98080  1.0000
  H   H506      1.0  0.36179  0.61565  0.92288  1.0000
  H   H507      1.0  0.19305  0.49093  0.97783  1.0000
  S   S207      1.0  0.13382  0.50938  0.96250  1.0000
  C   C484      1.0  0.32527  0.50342  0.98692  1.0000
  Fe  Fe104     1.0  0.11422  0.49888  0.96997  1.0000
  S   S208      1.0  0.10974  0.48968  0.95289  1.0000
  H   H508      1.0  0.19594  0.59929  0.88697  1.0000
  H   H509      1.0  0.07035  0.54270  0.77953  1.0000
  H   H510      1.0  0.20622  0.60156  0.83257  1.0000
  S   S209      1.0  0.06764  0.47886  0.77024  1.0000
  S   S210      1.0  0.23573  0.58975  0.87064  1.0000
  H   H511      1.0  0.38203  0.38695  0.98019  1.0000
  C   C485      1.0  0.28173  0.57676  0.85008  1.0000
  C   C486      1.0  0.49656  0.34763  0.93001  1.0000
  C   C487      1.0  0.01175  0.45843  0.82329  1.0000
  C   C488      1.0  0.36128  0.40304  0.97824  1.0000
  S   S211      1.0  0.16389  0.48573  0.98286  1.0000
  S   S212      1.0  0.03375  0.49524  0.76481  1.0000
  Fe  Fe105     1.0  0.36410  0.65418  0.95926  1.0000
  H   H512      1.0  0.26974  0.63072  0.90537  1.0000
  H   H513      1.0  0.31608  0.61848  0.94608  1.0000
  C   C489      1.0  0.48178  0.33324  0.95054  1.0000
  C   C490      1.0  0.20834  0.49703  0.94259  1.0000
  C   C491      1.0  0.20854  0.50793  0.94955  1.0000
  C   C492      1.0  0.22046  0.50630  0.95621  1.0000
  C   C493      1.0  0.23246  0.49396  0.95541  1.0000
  C   C494      1.0  0.23229  0.48315  0.94838  1.0000
  C   C495      1.0  0.21999  0.48438  0.94256  1.0000
  H   H514      1.0  0.19967  0.51772  0.94950  1.0000
  H   H515      1.0  0.22065  0.51486  0.96138  1.0000
  H   H516      1.0  0.24164  0.47372  0.94753  1.0000
  H   H517      1.0  0.21968  0.47551  0.93800  1.0000
  C   C496      1.0  0.27657  0.46247  0.92746  1.0000
  C   C497      1.0  0.26786  0.46503  0.91711  1.0000
  C   C498      1.0  0.25700  0.45698  0.91977  1.0000
  C   C499      1.0  0.25442  0.44656  0.93290  1.0000
  C   C500      1.0  0.26349  0.44356  0.94311  1.0000
  C   C501      1.0  0.27459  0.45156  0.94040  1.0000
  H   H518      1.0  0.26979  0.47299  0.90681  1.0000
  H   H519      1.0  0.25121  0.45829  0.91123  1.0000
  H   H520      1.0  0.26185  0.43522  0.95315  1.0000
  H   H521      1.0  0.28144  0.44942  0.94837  1.0000
  H   H522      1.0  0.29783  0.53429  0.88099  1.0000
  C   C502      1.0  0.23758  0.50625  0.91063  1.0000
  C   C503      1.0  0.22494  0.51780  0.91257  1.0000
  H   H523      1.0  0.24857  0.59129  0.90936  1.0000
  Fe  Fe106     1.0  0.05520  0.50188  0.76189  1.0000
  C   C504      1.0  0.21127  0.54038  0.92167  1.0000
  C   C505      1.0  0.39456  0.60811  0.95888  1.0000
  C   C506      1.0  0.07678  0.49815  0.87979  1.0000
  C   C507      1.0  0.39809  0.40352  0.94142  1.0000
  C   C508      1.0  0.39543  0.40036  0.92916  1.0000
  C   C509      1.0  0.38310  0.40892  0.92309  1.0000
  C   C510      1.0  0.37325  0.42051  0.92941  1.0000
  C   C511      1.0  0.37632  0.42411  0.94123  1.0000
  C   C512      1.0  0.38879  0.41570  0.94715  1.0000
  H   H524      1.0  0.40282  0.39127  0.92439  1.0000
  H   H525      1.0  0.38094  0.40626  0.91377  1.0000
  H   H526      1.0  0.36900  0.43320  0.94597  1.0000
  H   H527      1.0  0.39091  0.41830  0.95653  1.0000
  H   H528      1.0  0.00110  0.52368  0.74929  1.0000
  C   C513      1.0  0.15502  0.53569  0.88782  1.0000
  C   C514      1.0  0.10333  0.50901  0.78469  1.0000
  H   H529      1.0  0.26775  0.54975  0.84590  1.0000
  C   C515      1.0  0.35056  0.40280  0.95836  1.0000
  H   H530      1.0  0.16956  0.51796  0.90827  1.0000
  C   C516      1.0  0.21594  0.63113  0.94050  1.0000
  H   H531      1.0  0.28935  0.43045  0.91834  1.0000
  H   H532      1.0  0.13305  0.55487  0.90168  1.0000
  H   H533      1.0  0.34589  0.60051  0.96393  1.0000
  C   C517      1.0  0.23359  0.56245  0.94451  1.0000
  C   C518      1.0  0.22304  0.55855  0.95725  1.0000
  C   C519      1.0  0.17362  0.53289  0.96416  1.0000
  C   C520      1.0  0.15744  0.52667  0.92751  1.0000
  C   C521      1.0  0.24725  0.64261  0.90368  1.0000
  C   C522      1.0  0.24784  0.56268  0.94552  1.0000
  H   H534      1.0  0.21193  0.55867  0.95646  1.0000
  C   C523      1.0  0.24067  0.58875  0.97954  1.0000
  H   H535      1.0  0.25587  0.56602  0.93564  1.0000
  C   C524      1.0  0.38513  0.61317  0.97122  1.0000
  C   C525      1.0  0.14732  0.57493  0.96075  1.0000
  C   C526      1.0  0.13707  0.56902  0.95747  1.0000
  C   C527      1.0  0.13042  0.55832  0.96811  1.0000
  H   H536      1.0  0.37402  0.38008  0.93705  1.0000
  C   C528      1.0  0.32666  0.62150  0.94405  1.0000
  H   H537      1.0  0.15252  0.58309  0.95242  1.0000
  H   H538      1.0  0.13451  0.57259  0.94658  1.0000
  C   C529      1.0  0.20215  0.45783  0.98735  1.0000
  S   S213      1.0  0.00481  0.50930  0.79733  1.0000
  C   C530      1.0  0.17717  0.55447  0.90141  1.0000
  C   C531      1.0  0.17300  0.56568  0.88960  1.0000
  C   C532      1.0  0.16624  0.58007  0.89179  1.0000
  C   C533      1.0  0.16354  0.58302  0.90584  1.0000
  C   C534      1.0  0.16488  0.57121  0.91797  1.0000
  C   C535      1.0  0.17215  0.55692  0.91577  1.0000
  H   H539      1.0  0.17611  0.56356  0.87856  1.0000
  C   C536      1.0  0.09284  0.48227  0.89609  1.0000
  H   H540      1.0  0.16122  0.57331  0.92897  1.0000
  H   H541      1.0  0.17483  0.54817  0.92505  1.0000
  C   C537      1.0  0.25003  0.50727  0.85916  1.0000
  C   C538      1.0  0.25506  0.49621  0.85094  1.0000
  C   C539      1.0  0.24753  0.48473  0.85440  1.0000
  C   C540      1.0  0.23523  0.48417  0.86628  1.0000
  C   C541      1.0  0.23035  0.49512  0.87462  1.0000
  C   C542      1.0  0.23776  0.50665  0.87106  1.0000
  H   H542      1.0  0.26441  0.49681  0.84159  1.0000
  H   H543      1.0  0.25120  0.47634  0.84784  1.0000
  H   H544      1.0  0.22061  0.49498  0.88354  1.0000
  H   H545      1.0  0.23382  0.51520  0.87741  1.0000
  C   C543      1.0  0.30639  0.53677  0.95854  1.0000
  C   C544      1.0  0.30141  0.52358  0.96248  1.0000
  C   C545      1.0  0.31084  0.51071  0.95803  1.0000
  C   C546      1.0  0.32544  0.51091  0.95003  1.0000
  C   C547      1.0  0.33045  0.52406  0.94629  1.0000
  C   C548      1.0  0.32091  0.53699  0.95042  1.0000
  H   H546      1.0  0.29016  0.52336  0.96876  1.0000
  H   H547      1.0  0.30691  0.50061  0.96107  1.0000
  H   H548      1.0  0.34177  0.52424  0.94019  1.0000
  H   H549      1.0  0.32494  0.54704  0.94756  1.0000
  H   H550      1.0  0.16685  0.53628  0.88276  1.0000
  C   C549      1.0  0.26987  0.56949  0.89208  1.0000
  C   C550      1.0  0.25718  0.57200  0.88619  1.0000
  H   H551      1.0  0.28078  0.58864  0.84688  1.0000
  H   H552      1.0  0.24929  0.65332  0.90300  1.0000
  N   N45       1.0  0.09650  0.47833  0.87160  1.0000
  H   H553      1.0  0.27417  0.55857  0.89817  1.0000
  H   H554      1.0  0.25160  0.56313  0.88806  1.0000
  C   C551      1.0  0.34198  0.63480  0.94975  1.0000
  H   H555      1.0  0.26527  0.57704  0.83844  1.0000
  S   S214      1.0  0.34372  0.64553  0.96118  1.0000
  S   S215      1.0  0.16473  0.57656  0.97837  1.0000
  N   N46       1.0  0.00926  0.44066  0.81128  1.0000
  H   H556      1.0  0.24815  0.60442  0.94183  1.0000
  C   C552      1.0  0.11550  0.52163  0.90790  1.0000
  C   C553      1.0  0.11285  0.52671  0.92090  1.0000
  C   C554      1.0  0.11107  0.51694  0.93471  1.0000
  C   C555      1.0  0.11142  0.50211  0.93564  1.0000
  C   C556      1.0  0.11358  0.49709  0.92267  1.0000
  C   C557      1.0  0.11592  0.50676  0.90880  1.0000
  H   H557      1.0  0.11207  0.53826  0.92032  1.0000
  H   H558      1.0  0.10914  0.52099  0.94466  1.0000
  H   H559      1.0  0.11378  0.48565  0.92333  1.0000
  H   H560      1.0  0.11804  0.50270  0.89884  1.0000
  C   C558      1.0  0.14731  0.46350  0.88374  1.0000
  C   C559      1.0  0.15153  0.47296  0.88975  1.0000
  C   C560      1.0  0.15892  0.46717  0.90153  1.0000
  C   C561      1.0  0.16171  0.45196  0.90764  1.0000
  C   C562      1.0  0.15680  0.44259  0.90211  1.0000
  C   C563      1.0  0.14980  0.44832  0.89003  1.0000
  H   H561      1.0  0.14932  0.48471  0.88523  1.0000
  H   H562      1.0  0.16226  0.47455  0.90597  1.0000
  H   H563      1.0  0.15884  0.43082  0.90685  1.0000
  H   H564      1.0  0.14649  0.44094  0.88546  1.0000
  C   C564      1.0  0.17108  0.54309  0.82588  1.0000
  C   C565      1.0  0.17795  0.55222  0.81348  1.0000
  C   C566      1.0  0.18630  0.56136  0.81500  1.0000
  C   C567      1.0  0.18834  0.56111  0.82890  1.0000
  C   C568      1.0  0.18163  0.55183  0.84143  1.0000
  C   C569      1.0  0.17282  0.54295  0.83994  1.0000
  H   H565      1.0  0.17673  0.55233  0.80260  1.0000
  H   H566      1.0  0.19141  0.56847  0.80530  1.0000
  H   H567      1.0  0.18302  0.55170  0.85225  1.0000
  H   H568      1.0  0.16759  0.53587  0.84958  1.0000
  C   C570      1.0  0.08129  0.49167  0.81470  1.0000
  C   C571      1.0  0.07096  0.50498  0.81649  1.0000
  C   C572      1.0  0.07377  0.51454  0.82366  1.0000
  C   C573      1.0  0.08702  0.51103  0.82883  1.0000
  C   C574      1.0  0.09740  0.49777  0.82696  1.0000
  C   C575      1.0  0.09446  0.48807  0.82006  1.0000
  H   H569      1.0  0.06075  0.50784  0.81248  1.0000
  H   H570      1.0  0.06567  0.52477  0.82510  1.0000
  H   H571      1.0  0.10773  0.49507  0.83071  1.0000
  H   H572      1.0  0.10252  0.47781  0.81867  1.0000
  N   N47       1.0  0.36210  0.39135  0.95455  1.0000
  H   H573      1.0  0.36463  0.63235  0.93715  1.0000
  C   C576      1.0  0.13471  0.45759  0.94131  1.0000
  C   C577      1.0  0.48269  0.34433  0.93769  1.0000
  H   H574      1.0  0.30960  0.54211  0.92334  1.0000
  H   H575      1.0  0.47278  0.35033  0.93354  1.0000
  H   H576      1.0  0.20105  0.53593  0.92481  1.0000
  C   C578      1.0  0.24958  0.51657  0.92310  1.0000
  C   C579      1.0  0.14006  0.54700  0.90884  1.0000
  H   H577      1.0  0.21096  0.54883  0.91121  1.0000
  C   C580      1.0  0.35401  0.62947  0.93902  1.0000
  H   H578      1.0  0.21524  0.51801  0.90864  1.0000
  S   S216      1.0  0.41597  0.62982  0.96752  1.0000
  C   C581      1.0  0.28387  0.54646  0.85909  1.0000
  C   C582      1.0  0.44473  0.65353  0.93894  1.0000
  H   H579      1.0  0.39651  0.59716  0.94145  1.0000
  Fe  Fe107     1.0  0.24176  0.50027  0.98358  1.0000
  C   C583      1.0  0.10084  0.52035  0.79218  1.0000
  H   H580      1.0  0.11225  0.49929  0.78661  1.0000
  S   S217      1.0  0.19740  0.63400  0.93888  1.0000
  C   C584      1.0  0.24888  0.45361  0.98100  1.0000
  N   N48       1.0  0.29254  0.52985  0.93116  1.0000
  C   C585      1.0  0.27950  0.52921  0.94145  1.0000
  C   C586      1.0  0.30099  0.51755  0.92593  1.0000
  C   C587      1.0  0.27480  0.51589  0.94710  1.0000
  C   C588      1.0  0.29645  0.50414  0.93109  1.0000
  C   C589      1.0  0.28328  0.50330  0.94176  1.0000
  H   H581      1.0  0.27297  0.53886  0.94577  1.0000
  H   H582      1.0  0.31149  0.51795  0.91799  1.0000
  H   H583      1.0  0.26464  0.51532  0.95554  1.0000
  H   H584      1.0  0.30325  0.49439  0.92700  1.0000
  H   H585      1.0  0.27966  0.49291  0.94591  1.0000
  N   N49       1.0  0.19458  0.50149  0.84930  1.0000
  C   C590      1.0  0.19219  0.49036  0.86140  1.0000
  C   C591      1.0  0.18807  0.50361  0.83765  1.0000
  C   C592      1.0  0.18297  0.48106  0.86212  1.0000
  C   C593      1.0  0.17858  0.49470  0.83809  1.0000
  C   C594      1.0  0.17606  0.48333  0.85041  1.0000
  C   C595      1.0  0.20480  0.51064  0.84856  1.0000
  H   H586      1.0  0.19750  0.48855  0.87054  1.0000
  H   H587      1.0  0.19004  0.51237  0.82797  1.0000
  H   H588      1.0  0.18125  0.47214  0.87168  1.0000
  H   H589      1.0  0.17310  0.49677  0.82898  1.0000
  H   H590      1.0  0.16870  0.47633  0.85092  1.0000
  H   H591      1.0  0.21654  0.50479  0.84482  1.0000
  H   H592      1.0  0.20247  0.52154  0.84082  1.0000
  H   H593      1.0  0.20363  0.51294  0.85958  1.0000
  N   N50       1.0  0.27926  0.43623  0.89968  1.0000
  C   C596      1.0  0.27735  0.44698  0.88724  1.0000
  C   C597      1.0  0.26925  0.42736  0.90606  1.0000
  C   C598      1.0  0.26490  0.44936  0.88115  1.0000
  C   C599      1.0  0.25667  0.42948  0.90028  1.0000
  C   C600      1.0  0.25451  0.44056  0.88775  1.0000
  C   C601      1.0  0.29222  0.43404  0.90610  1.0000
  H   H594      1.0  0.28528  0.45400  0.88215  1.0000
  H   H595      1.0  0.27059  0.41900  0.91607  1.0000
  H   H596      1.0  0.26317  0.45811  0.87150  1.0000
  H   H597      1.0  0.24845  0.42282  0.90575  1.0000
  H   H598      1.0  0.24471  0.44243  0.88324  1.0000
  H   H599      1.0  0.30163  0.42556  0.90151  1.0000
  H   H600      1.0  0.29595  0.44455  0.90383  1.0000
  H   H601      1.0  0.29359  0.54951  0.91476  1.0000
  H   H602      1.0  0.43752  0.33277  0.87630  1.0000
  C   C602      1.0  0.34996  0.40880  0.97026  1.0000
  C   C603      1.0  0.23299  0.64136  0.90385  1.0000
  C   C604      1.0  0.29144  0.56787  0.85926  1.0000
  C   C605      1.0  0.18523  0.54246  0.97776  1.0000
  C   C606      1.0  0.24990  0.50557  0.91609  1.0000
  H   H603      1.0  0.25905  0.51607  0.92742  1.0000
  C   C607      1.0  0.45799  0.64723  0.94408  1.0000
  H   H604      1.0  0.11030  0.46555  0.88685  1.0000
  H   H605      1.0  0.02881  0.44916  0.80636  1.0000
  C   C608      1.0  0.37306  0.38541  0.96253  1.0000
  C   C609      1.0  0.22360  0.61751  0.97678  1.0000
  Fe  Fe108     1.0  0.49206  0.64722  0.94834  1.0000
  Fe  Fe109     1.0  0.11920  0.52674  0.97473  1.0000
  S   S218      1.0  0.11816  0.55058  0.96354  1.0000
  H   H606      1.0  0.12794  0.55630  0.92800  1.0000
  H   H607      1.0  0.06780  0.50770  0.87742  1.0000
  S   S219      1.0  0.39377  0.32780  0.96607  1.0000
  H   H608      1.0  0.09449  0.48780  0.77594  1.0000
  H   H609      1.0  0.16432  0.58897  0.88245  1.0000
  H   H610      1.0  0.16008  0.61126  0.85473  1.0000
  C   C610      1.0  0.16016  0.52617  0.91261  1.0000
  C   C611      1.0  0.03054  0.44383  0.75250  1.0000
  H   H611      1.0  0.17250  0.53133  0.95381  1.0000
  H   H612      1.0  0.28692  0.45718  0.98231  1.0000
  Fe  Fe110     1.0  0.29595  0.58579  0.91382  1.0000
  Fe  Fe111     1.0  0.28192  0.60566  0.93596  1.0000
  H   H613      1.0  0.16768  0.61463  0.87599  1.0000
  H   H614      1.0  0.34091  0.41800  0.97313  1.0000
  H   H615      1.0  0.20738  0.45323  0.96557  1.0000
  H   H616      1.0  0.34984  0.59207  0.98208  1.0000
  C   C612      1.0  0.32827  0.63095  0.95207  1.0000
  H   H617      1.0  0.02763  0.42849  0.79770  1.0000
  C   C613      1.0  0.22567  0.61712  0.94107  1.0000
  H   H618      1.0  0.20647  0.61317  0.87693  1.0000
  C   C614      1.0  0.24072  0.61526  0.94141  1.0000
  C   C615      1.0  0.18394  0.54059  0.96431  1.0000
  C   C616      1.0  0.35007  0.60205  0.97300  1.0000
  H   H619      1.0  0.15955  0.49522  0.93033  1.0000
  Fe  Fe112     1.0  0.13963  0.49688  0.98416  1.0000
  C   C617      1.0  0.25168  0.58603  0.87806  1.0000
  C   C618      1.0  0.17616  0.61220  0.86629  1.0000
  Fe  Fe113     1.0  0.31554  0.59614  0.92798  1.0000
  H   H620      1.0  0.10778  0.51947  0.79977  1.0000
  C   C619      1.0  0.21687  0.60591  0.97832  1.0000
  H   H621      1.0  0.31342  0.53977  0.86691  1.0000
  H   H622      1.0  0.17117  0.48439  0.95217  1.0000
  H   H623      1.0  0.28459  0.53460  0.86247  1.0000
  H   H624      1.0  0.18705  0.61863  0.88558  1.0000
  C   C620      1.0  0.07977  0.53336  0.78091  1.0000
  H   H625      1.0  0.08184  0.49351  0.85817  1.0000
  C   C621      1.0  0.17178  0.61027  0.85432  1.0000
  Fe  Fe114     1.0  0.41207  0.33944  0.95346  1.0000
  S   S220      1.0  0.06742  0.51573  0.74222  1.0000
  C   C622      1.0  0.15715  0.48510  0.93772  1.0000
  C   C623      1.0  0.08480  0.49007  0.86891  1.0000
  C   C624      1.0  0.16368  0.47899  0.94997  1.0000
  H   H626      1.0  0.08658  0.54112  0.79654  1.0000
  H   H627      1.0  0.19081  0.54517  0.95408  1.0000
  H   H628      1.0  0.40597  0.60963  0.95542  1.0000
  C   C625      1.0  0.27711  0.58098  0.88986  1.0000
  H   H629      1.0  0.15301  0.52526  0.88675  1.0000
  H   H630      1.0  0.33425  0.48168  0.98192  1.0000
  H   H631      1.0  0.25467  0.44178  0.98375  1.0000
  C   C626      1.0  0.25577  0.61609  0.90659  1.0000
  H   H632      1.0  0.14780  0.54502  0.88145  1.0000
  H   H633      1.0  0.26260  0.55891  0.96033  1.0000
  C   C627      1.0  0.16047  0.46595  0.95945  1.0000
  H   H634      1.0  0.21342  0.60520  0.85393  1.0000
  C   C628      1.0  0.13704  0.54783  0.92370  1.0000
  H   H635      1.0  0.16535  0.46126  0.96911  1.0000
  N   N51       1.0  0.19095  0.61033  0.86610  1.0000
  C   C629      1.0  0.19535  0.61043  0.87951  1.0000
  H   H636      1.0  0.46876  0.63007  0.95996  1.0000
  C   C630      1.0  0.14746  0.47806  0.93513  1.0000
  H   H637      1.0  0.14227  0.48299  0.92572  1.0000
  C   C631      1.0  0.08891  0.53253  0.79036  1.0000
  H   H638      1.0  0.11421  0.47660  0.85289  1.0000
  C   C632      1.0  0.23042  0.62737  0.90540  1.0000
  H   H639      1.0  0.35578  0.37640  0.94613  1.0000
  C   C633      1.0  0.38926  0.60113  0.95108  1.0000
  C   C634      1.0  0.36237  0.38506  0.94219  1.0000
  C   C635      1.0  0.10064  0.47446  0.88493  1.0000
  H   H640      1.0  0.09636  0.47939  0.90652  1.0000
  S   S221      1.0  0.33747  0.60298  0.92416  1.0000
  C   C636      1.0  0.18266  0.60644  0.84212  1.0000
  H   H641      1.0  0.17953  0.60424  0.83302  1.0000
  C   C637      1.0  0.09723  0.49783  0.76778  1.0000
  C   C638      1.0  0.10537  0.47066  0.85971  1.0000
  C   C639      1.0  0.15088  0.45908  0.95641  1.0000
  N   N52       1.0  0.15160  0.53633  0.90346  1.0000
  N   N53       1.0  0.24173  0.61497  0.90678  1.0000
  H   H642      1.0  0.09035  0.50065  0.75933  1.0000
  C   C640      1.0  0.15070  0.57040  0.97478  1.0000
  S   S222      1.0  0.16750  0.60987  0.94375  1.0000
  S   S223      1.0  0.09890  0.51735  0.98058  1.0000
  H   H643      1.0  0.21373  0.65402  0.94039  1.0000
  C   C641      1.0  0.16483  0.52710  0.97743  1.0000
  S   S224      1.0  0.03835  0.45316  0.77319  1.0000
  N   N54       1.0  0.14467  0.46506  0.94426  1.0000
  H   H644      1.0  0.24016  0.65071  0.94146  1.0000
  C   C642      1.0  0.24599  0.62741  0.94140  1.0000
  C   C643      1.0  0.22713  0.45293  0.97252  1.0000
  H   H645      1.0  0.22167  0.60775  0.94112  1.0000
  S   S225      1.0  0.29451  0.57706  0.89473  1.0000
  H   H646      1.0  0.23449  0.45035  0.96233  1.0000
  C   C644      1.0  0.22121  0.64318  0.94075  1.0000
  H   H647      1.0  0.01100  0.48214  0.78713  1.0000
  H   H648      1.0  0.09826  0.47017  0.85251  1.0000
  H   H649      1.0  0.22381  0.65107  0.90341  1.0000
  H   H650      1.0  0.37050  0.59378  0.94974  1.0000
  S   S226      1.0  0.29835  0.60826  0.91421  1.0000
  C   C645      1.0  0.25889  0.59751  0.87592  1.0000
  H   H651      1.0  0.14849  0.44891  0.96376  1.0000
  H   H652      1.0  0.13976  0.44553  0.94248  1.0000
  H   H653      1.0  0.41041  0.33369  0.91988  1.0000
  C   C646      1.0  0.45851  0.63510  0.95604  1.0000
  H   H654      1.0  0.21915  0.62642  0.90618  1.0000
  H   H655      1.0  0.23272  0.60001  0.90096  1.0000
  H   H656      1.0  0.23095  0.59808  0.92044  1.0000
  C   C647      1.0  0.27164  0.59496  0.88166  1.0000
  S   S227      1.0  0.43358  0.32836  0.94047  1.0000
  C   C648      1.0  0.32449  0.48917  0.98689  1.0000
  C   C649      1.0  0.14585  0.53762  0.93303  1.0000
  N   N55       1.0  0.29212  0.55298  0.86394  1.0000
  C   C650      1.0  0.30227  0.54389  0.87366  1.0000
  S   S228      1.0  0.26462  0.62566  0.94193  1.0000
  H   H657      1.0  0.25472  0.60837  0.86960  1.0000
  H   H658      1.0  0.27747  0.60373  0.87944  1.0000
  H   H659      1.0  0.26465  0.60624  0.90811  1.0000
  C   C651      1.0  0.33877  0.61579  0.93361  1.0000
  C   C652      1.0  0.20167  0.60699  0.85399  1.0000
  C   C653      1.0  0.19769  0.60494  0.84186  1.0000
  H   H660      1.0  0.07497  0.50061  0.90187  1.0000
  C   C654      1.0  0.23839  0.60042  0.90946  1.0000
  H   H661      1.0  0.12372  0.45941  0.94912  1.0000
  H   H662      1.0  0.31890  0.63507  0.96033  1.0000
  C   C655      1.0  0.27301  0.57026  0.84538  1.0000
  C   C656      1.0  0.44568  0.62947  0.96301  1.0000
  H   H663      1.0  0.16452  0.51885  0.93462  1.0000
  N   N56       1.0  0.09440  0.50997  0.77534  1.0000
  C   C657      1.0  0.27424  0.55499  0.84972  1.0000
  S   S229      1.0  0.47334  0.65548  0.93611  1.0000
  C   C658      1.0  0.41398  0.32915  0.91004  1.0000
  C   C659      1.0  0.25157  0.55884  0.95943  1.0000
  C   C660      1.0  0.03968  0.45159  0.75504  1.0000
  H   H664      1.0  0.35774  0.39385  0.93333  1.0000
  H   H665      1.0  0.25359  0.45846  0.96933  1.0000
  H   H666      1.0  0.02279  0.43884  0.76165  1.0000
  C   C661      1.0  0.21177  0.45447  0.97432  1.0000
  S   S230      1.0  0.22380  0.52011  0.98818  1.0000
  C   C662      1.0  0.42493  0.33433  0.89831  1.0000
  C   C663      1.0  0.22682  0.55455  0.97106  1.0000
  H   H667      1.0  0.34219  0.61180  0.97704  1.0000
  H   H668      1.0  0.33562  0.50707  0.98186  1.0000
  Fe  Fe115     1.0  0.39604  0.64774  0.96256  1.0000
  C   C664      1.0  0.01520  0.43187  0.79983  1.0000
  H   H669      1.0  0.34195  0.40762  0.95194  1.0000
  C   C665      1.0  0.37455  0.59926  0.95583  1.0000
  N   N57       1.0  0.23275  0.45499  0.98327  1.0000
  H   H670      1.0  0.38231  0.37645  0.95944  1.0000
  H   H671      1.0  0.19293  0.54884  0.97779  1.0000
  H   H672      1.0  0.47485  0.33787  0.89173  1.0000
  H   H673      1.0  0.01087  0.42163  0.80309  1.0000
  C   C666      1.0  0.42924  0.32864  0.88550  1.0000
  H   H674      1.0  0.07888  0.55610  0.98323  1.0000
  H   H675      1.0  0.48767  0.33246  0.91253  1.0000
  C   C667      1.0  0.37292  0.39127  0.97437  1.0000
  C   C668      1.0  0.47301  0.32880  0.90109  1.0000
  C   C669      1.0  0.24115  0.55443  0.97213  1.0000
  C   C670      1.0  0.01764  0.44920  0.81309  1.0000
  H   H676      1.0  0.00148  0.46145  0.76061  1.0000
  S   S231      1.0  0.38606  0.65039  0.94313  1.0000
  C   C671      1.0  0.37040  0.61141  0.97549  1.0000
  H   H677      1.0  0.26816  0.60675  0.97088  1.0000
  H   H678      1.0  0.38924  0.61845  0.97744  1.0000
  H   H679      1.0  0.22031  0.58226  0.98114  1.0000
  C   C672      1.0  0.13351  0.55403  0.98226  1.0000
  C   C673      1.0  0.18706  0.49274  0.98873  1.0000
  H   H680      1.0  0.05715  0.46354  0.74506  1.0000
  H   H681      1.0  0.15689  0.52096  0.97746  1.0000
  H   H682      1.0  0.00099  0.50813  0.76498  1.0000
  H   H683      1.0  0.49717  0.35622  0.92006  1.0000
  C   C674      1.0  0.04989  0.45773  0.74316  1.0000
  H   H684      1.0  0.36110  0.40783  0.98728  1.0000
  H   H685      1.0  0.09830  0.56778  0.98453  1.0000
  H   H686      1.0  0.26951  0.58763  0.97178  1.0000
  H   H687      1.0  0.20509  0.60819  0.97817  1.0000
  H   H688      1.0  0.24417  0.62356  0.97487  1.0000
  H   H689      1.0  0.21711  0.62886  0.97532  1.0000
  H   H690      1.0  0.25136  0.45984  0.98788  1.0000
  C   C675      1.0  0.23891  0.61444  0.97650  1.0000
  C   C676      1.0  0.26330  0.59707  0.97725  1.0000
  H   H691      1.0  0.36305  0.61566  0.98494  1.0000
  N   N58       1.0  0.24728  0.60022  0.97757  1.0000
  S   S232      1.0  0.37418  0.64970  0.97905  1.0000
  C   C677      1.0  0.14339  0.56033  0.98569  1.0000
  S   S233      1.0  0.24617  0.54777  0.98927  1.0000
  H   H692      1.0  0.26514  0.59420  0.98869  1.0000
  C   C678      1.0  0.99958  0.48426  0.79323  1.0000
  C   C679      1.0  0.48008  0.32583  0.91282  1.0000
  C   C680      1.0  0.49479  0.32572  0.95586  1.0000
  S   S234      1.0  0.31329  0.43505  0.98838  1.0000
  H   H693      1.0  0.19015  0.45942  0.98876  1.0000
  H   H694      1.0  0.48741  0.95371  0.09296  1.0000
  H   H695      1.0  0.40923  0.81934  0.99158  1.0000
  Fe  Fe116     1.0  0.47483  0.83533  0.00487  1.0000
  S   S235      1.0  0.48562  0.84004  0.02061  1.0000
  H   H696      1.0  0.49608  0.96910  0.13753  1.0000
  Fe  Fe117     1.0  0.45162  0.82224  0.02919  1.0000
  S   S236      1.0  0.45997  0.82583  0.04729  1.0000
  S   S237      1.0  0.43235  0.81205  0.03145  1.0000
  Fe  Fe118     1.0  0.46228  0.84803  0.03276  1.0000
  S   S238      1.0  0.45561  0.86807  0.04319  1.0000
  Fe  Fe119     1.0  0.48276  0.81771  0.03414  1.0000
  H   H697      1.0  0.48361  0.92484  0.14379  1.0000
  S   S239      1.0  0.45155  0.84534  0.01572  1.0000
  S   S240      1.0  0.47425  0.81212  0.01731  1.0000
  Fe  Fe120     1.0  0.48006  0.91581  0.10841  1.0000
  Fe  Fe121     1.0  0.44057  0.72955  0.99473  1.0000
  S   S241      1.0  0.45797  0.92522  0.12195  1.0000
  H   H698      1.0  0.46931  0.74571  0.00298  1.0000
  H   H699      1.0  0.49431  0.87611  0.17788  1.0000
  H   H700      1.0  0.40789  0.97184  0.19408  1.0000
  H   H701      1.0  0.49227  0.70469  0.02633  1.0000
  C   C681      1.0  0.49314  0.92686  0.16089  1.0000
  C   C682      1.0  0.37860  0.74605  0.99658  1.0000
  H   H702      1.0  0.48333  0.98474  0.17887  1.0000
  C   C683      1.0  0.47107  0.85608  0.09068  1.0000
  S   S242      1.0  0.48559  0.92132  0.08352  1.0000
  S   S243      1.0  0.47792  0.91414  0.20464  1.0000
  S   S244      1.0  0.45568  0.89663  0.18968  1.0000
  C   C684      1.0  0.47094  0.97829  0.21414  1.0000
  Fe  Fe122     1.0  0.43488  0.73655  0.02509  1.0000
  S   S245      1.0  0.43715  0.75042  0.00229  1.0000
  S   S246      1.0  0.44753  0.74230  0.03854  1.0000
  Fe  Fe123     1.0  0.41609  0.71912  0.01860  1.0000
  S   S247      1.0  0.41644  0.73207  0.99542  1.0000
  S   S248      1.0  0.40491  0.69990  0.02720  1.0000
  H   H703      1.0  0.47230  0.79208  0.99060  1.0000
  C   C685      1.0  0.49507  0.72475  0.03021  1.0000
  Fe  Fe124     1.0  0.41284  0.75170  0.00538  1.0000
  S   S249      1.0  0.39930  0.77440  0.99802  1.0000
  S   S250      1.0  0.44071  0.71526  0.01728  1.0000
  S   S251      1.0  0.41009  0.73909  0.02884  1.0000
  C   C686      1.0  0.48618  0.97737  0.13509  1.0000
  C   C687      1.0  0.37880  0.68978  0.99913  1.0000
  C   C688      1.0  0.49270  0.96302  0.08945  1.0000
  N   N59       1.0  0.49155  0.73991  0.02688  1.0000
  H   H704      1.0  0.47624  0.97077  0.20664  1.0000
  C   C689      1.0  0.46211  0.84333  0.07768  1.0000
  H   H705      1.0  0.45270  0.97176  0.20259  1.0000
  H   H706      1.0  0.45309  0.84183  0.07380  1.0000
  H   H707      1.0  0.47557  0.71827  0.00877  1.0000
  C   C690      1.0  0.39890  0.69999  0.00051  1.0000
  C   C691      1.0  0.39538  0.69589  0.01599  1.0000
  C   C692      1.0  0.38398  0.68829  0.02289  1.0000
  C   C693      1.0  0.37557  0.68547  0.01453  1.0000
  C   C694      1.0  0.48941  0.87901  0.06232  1.0000
  H   H708      1.0  0.40785  0.70563  0.99506  1.0000
  H   H709      1.0  0.38127  0.68499  0.03483  1.0000
  N   N60       1.0  0.45590  0.98439  0.21623  1.0000
  N   N61       1.0  0.44766  0.67513  0.99658  1.0000
  H   H710      1.0  0.49380  0.76018  0.03041  1.0000
  H   H711      1.0  0.49593  0.69639  0.99742  1.0000
  Fe  Fe125     1.0  0.45548  0.91341  0.20215  1.0000
  C   C695      1.0  0.48969  0.91904  0.15249  1.0000
  C   C696      1.0  0.43298  0.67431  0.00161  1.0000
  Fe  Fe126     1.0  0.43927  0.93904  0.21695  1.0000
  C   C697      1.0  0.46133  0.96806  0.16944  1.0000
  H   H712      1.0  0.49329  0.74520  0.04625  1.0000
  H   H713      1.0  0.43312  0.82721  0.99507  1.0000
  N   N62       1.0  0.42934  0.80578  0.99760  1.0000
  C   C698      1.0  0.45612  0.91679  0.14079  1.0000
  C   C699      1.0  0.46270  0.90182  0.14534  1.0000
  C   C700      1.0  0.46192  0.89549  0.16045  1.0000
  C   C701      1.0  0.45491  0.90422  0.17100  1.0000
  C   C702      1.0  0.44779  0.91900  0.16645  1.0000
  C   C703      1.0  0.44835  0.92527  0.15139  1.0000
  H   H714      1.0  0.46835  0.89509  0.13725  1.0000
  H   H715      1.0  0.46715  0.88395  0.16393  1.0000
  H   H716      1.0  0.44154  0.92553  0.17453  1.0000
  H   H717      1.0  0.44293  0.93675  0.14795  1.0000
  C   C704      1.0  0.49183  0.98857  0.08932  1.0000
  H   H718      1.0  0.40721  0.80179  0.00372  1.0000
  C   C705      1.0  0.46891  0.87271  0.04982  1.0000
  C   C706      1.0  0.46427  0.88368  0.05826  1.0000
  C   C707      1.0  0.47446  0.88679  0.06456  1.0000
  S   S252      1.0  0.41902  0.95644  0.22335  1.0000
  H   H719      1.0  0.42867  0.78326  0.00007  1.0000
  C   C708      1.0  0.48394  0.86523  0.04732  1.0000
  H   H720      1.0  0.45267  0.88956  0.06020  1.0000
  H   H721      1.0  0.47070  0.89496  0.07137  1.0000
  H   H722      1.0  0.49473  0.85018  0.08938  1.0000
  H   H723      1.0  0.48769  0.85684  0.04080  1.0000
  C   C709      1.0  0.43656  0.79258  0.03420  1.0000
  C   C710      1.0  0.42608  0.78563  0.03284  1.0000
  C   C711      1.0  0.42950  0.77025  0.03399  1.0000
  C   C712      1.0  0.44315  0.76160  0.03723  1.0000
  C   C713      1.0  0.45343  0.76845  0.03918  1.0000
  C   C714      1.0  0.45026  0.78394  0.03740  1.0000
  H   H724      1.0  0.41532  0.79216  0.03076  1.0000
  H   H725      1.0  0.42140  0.76505  0.03270  1.0000
  H   H726      1.0  0.46384  0.76179  0.04204  1.0000
  H   H727      1.0  0.45827  0.78917  0.03882  1.0000
  C   C715      1.0  0.49413  0.86844  0.05344  1.0000
  H   H728      1.0  0.41445  0.66807  0.99792  1.0000
  C   C716      1.0  0.41304  0.81100  0.00109  1.0000
  C   C717      1.0  0.36586  0.72642  0.00096  1.0000
  H   H729      1.0  0.39591  0.97990  0.21723  1.0000
  Fe  Fe127     1.0  0.49862  0.89757  0.08565  1.0000
  S   S253      1.0  0.44415  0.91444  0.22588  1.0000
  H   H730      1.0  0.36129  0.71725  0.00832  1.0000
  H   H731      1.0  0.47408  0.97728  0.10088  1.0000
  H   H732      1.0  0.36627  0.68026  0.02007  1.0000
  C   C718      1.0  0.48952  0.71671  0.02365  1.0000
  Fe  Fe128     1.0  0.46615  0.91746  0.22742  1.0000
  S   S254      1.0  0.36595  0.68915  0.98940  1.0000
  C   C719      1.0  0.47673  0.73973  0.01043  1.0000
  H   H733      1.0  0.45280  0.98121  0.12662  1.0000
  H   H734      1.0  0.37333  0.73147  0.01783  1.0000
  C   C720      1.0  0.48557  0.84791  0.08635  1.0000
  H   H735      1.0  0.45774  0.69160  0.99791  1.0000
  C   C721      1.0  0.47298  0.96955  0.17469  1.0000
  H   H736      1.0  0.42651  0.67789  0.01171  1.0000
  H   H737      1.0  0.45613  0.77426  0.99583  1.0000
  H   H738      1.0  0.44760  0.68300  0.01542  1.0000
  C   C722      1.0  0.46025  0.79595  0.99231  1.0000
  C   C723      1.0  0.44671  0.98123  0.20803  1.0000
  Fe  Fe129     1.0  0.47030  0.93861  0.19752  1.0000
  C   C724      1.0  0.43814  0.81567  0.99470  1.0000
  C   C725      1.0  0.45930  0.85384  0.08619  1.0000
  H   H739      1.0  0.43639  0.97832  0.21560  1.0000
  H   H740      1.0  0.41366  0.98491  0.17760  1.0000
  H   H741      1.0  0.48987  0.93885  0.15875  1.0000
  C   C726      1.0  0.47426  0.98359  0.17486  1.0000
  C   C727      1.0  0.48521  0.97635  0.09403  1.0000
  C   C728      1.0  0.45489  0.68099  0.00464  1.0000
  H   H742      1.0  0.47662  0.97213  0.06402  1.0000
  C   C729      1.0  0.49741  0.74797  0.03409  1.0000
  H   H743      1.0  0.46068  0.95727  0.16873  1.0000
  C   C730      1.0  0.47976  0.98165  0.22167  1.0000
  C   C731      1.0  0.49116  0.98670  0.05098  1.0000
  H   H744      1.0  0.46065  0.81874  0.98996  1.0000
  S   S255      1.0  0.46026  0.94210  0.22039  1.0000
  H   H745      1.0  0.49161  0.89754  0.14876  1.0000
  C   C732      1.0  0.45119  0.78596  0.99520  1.0000
  C   C733      1.0  0.45055  0.98056  0.16494  1.0000
  C   C734      1.0  0.47675  0.83529  0.07362  1.0000
  H   H746      1.0  0.44810  0.86054  0.08894  1.0000
  C   C735      1.0  0.48262  0.74742  0.01700  1.0000
  S   S256      1.0  0.44870  0.93785  0.19330  1.0000
  S   S257      1.0  0.49131  0.89171  0.11040  1.0000
  H   H747      1.0  0.42391  0.97907  0.19219  1.0000
  H   H748      1.0  0.38384  0.75219  0.00080  1.0000
  C   C736      1.0  0.42608  0.66876  0.99385  1.0000
  C   C737      1.0  0.49398  0.90357  0.15553  1.0000
  C   C738      1.0  0.47455  0.97336  0.13206  1.0000
  C   C739      1.0  0.41258  0.98192  0.18979  1.0000
  H   H749      1.0  0.47534  0.96191  0.13203  1.0000
  S   S258      1.0  0.48477  0.95384  0.18274  1.0000
  C   C740      1.0  0.48020  0.72429  0.01377  1.0000
  C   C741      1.0  0.39069  0.69680  0.99207  1.0000
  H   H750      1.0  0.47976  0.75943  0.01432  1.0000
  H   H751      1.0  0.40968  0.81604  0.01097  1.0000
  C   C742      1.0  0.47797  0.98347  0.06048  1.0000
  H   H752      1.0  0.47890  0.82726  0.06684  1.0000
  H   H753      1.0  0.49166  0.97689  0.21993  1.0000
  C   C743      1.0  0.46188  0.98419  0.12903  1.0000
  H   H754      1.0  0.44147  0.97935  0.16099  1.0000
  C   C744      1.0  0.43566  0.79112  0.99762  1.0000
  H   H755      1.0  0.46910  0.86453  0.09693  1.0000
  N   N63       1.0  0.48828  0.83788  0.07769  1.0000
  H   H756      1.0  0.46539  0.67298  0.00693  1.0000
  C   C745      1.0  0.37257  0.73443  0.00629  1.0000
  C   C746      1.0  0.45372  0.81093  0.99192  1.0000
  C   C747      1.0  0.49173  0.92118  0.23911  1.0000
  C   C748      1.0  0.47316  0.99127  0.23137  1.0000
  H   H757      1.0  0.44367  0.99103  0.19928  1.0000
  C   C749      1.0  0.39548  0.99122  0.21112  1.0000
  S   S259      1.0  0.07805  0.86761  0.41452  1.0000
  H   H758      1.0  0.45194  0.93770  0.25328  1.0000
  C   C750      1.0  0.18547  0.92994  0.47890  1.0000
  C   C751      1.0  0.04658  0.68301  0.37535  1.0000
  H   H759      1.0  0.25899  0.91115  0.43125  1.0000
  H   H760      1.0  0.06757  0.81391  0.35676  1.0000
  H   H761      1.0  0.02903  0.80468  0.45472  1.0000
  Fe  Fe130     1.0  0.14217  0.90872  0.42468  1.0000
  C   C752      1.0  0.24621  0.98198  0.39269  1.0000
  C   C753      1.0  0.16434  0.98927  0.48661  1.0000
  Fe  Fe131     1.0  0.04766  0.83491  0.40889  1.0000
  S   S260      1.0  0.06795  0.82943  0.41858  1.0000
  S   S261      1.0  0.04363  0.82813  0.38994  1.0000
  Fe  Fe132     1.0  0.02820  0.85231  0.43198  1.0000
  S   S262      1.0  0.04221  0.85898  0.40957  1.0000
  S   S263      1.0  0.03222  0.82870  0.43045  1.0000
  S   S264      1.0  0.11852  0.92160  0.42821  1.0000
  C   C754      1.0  0.37097  0.97558  0.32464  1.0000
  H   H762      1.0  0.14430  0.94980  0.48510  1.0000
  S   S265      1.0  0.15046  0.89985  0.40389  1.0000
  H   H763      1.0  0.05489  0.68808  0.37653  1.0000
  C   C755      1.0  0.05617  0.78919  0.33822  1.0000
  S   S266      1.0  0.33626  0.96824  0.40713  1.0000
  C   C756      1.0  0.49680  0.97315  0.29431  1.0000
  C   C757      1.0  0.31916  0.97201  0.47283  1.0000
  S   S267      1.0  0.32217  0.97785  0.37739  1.0000
  H   H764      1.0  0.06250  0.67049  0.35997  1.0000
  Fe  Fe133     1.0  0.31393  0.97169  0.40188  1.0000
  S   S268      1.0  0.29921  0.95594  0.41455  1.0000
  Fe  Fe134     1.0  0.34393  0.97673  0.38280  1.0000
  S   S269      1.0  0.36398  0.96476  0.36851  1.0000
  S   S270      1.0  0.26477  0.89490  0.48246  1.0000
  C   C758      1.0  0.11659  0.85724  0.41753  1.0000
  C   C759      1.0  0.00400  0.73531  0.31866  1.0000
  N   N64       1.0  0.12530  0.86710  0.41525  1.0000
  C   C760      1.0  0.18907  0.88848  0.44015  1.0000
  Fe  Fe135     1.0  0.22649  0.91179  0.38674  1.0000
  S   S271      1.0  0.22035  0.90446  0.41135  1.0000
  S   S272      1.0  0.21691  0.90361  0.37255  1.0000
  Fe  Fe136     1.0  0.24408  0.93262  0.38871  1.0000
  S   S273      1.0  0.23843  0.92756  0.41345  1.0000
  S   S274      1.0  0.25892  0.94825  0.37636  1.0000
  Fe  Fe137     1.0  0.24397  0.90406  0.41085  1.0000
  S   S275      1.0  0.25850  0.88456  0.42300  1.0000
  Fe  Fe138     1.0  0.21562  0.92874  0.41088  1.0000
  S   S276      1.0  0.19498  0.94081  0.42414  1.0000
  S   S277      1.0  0.25072  0.90909  0.38617  1.0000
  S   S278      1.0  0.22056  0.93606  0.38632  1.0000
  H   H765      1.0  0.11315  0.85555  0.40837  1.0000
  H   H766      1.0  0.12514  0.88748  0.39973  1.0000
  H   H767      1.0  0.36950  0.96511  0.33276  1.0000
  H   H768      1.0  0.20747  0.92229  0.45192  1.0000
  N   N65       1.0  0.03194  0.68687  0.38235  1.0000
  H   H769      1.0  0.07052  0.69403  0.32540  1.0000
  H   H770      1.0  0.29294  0.95020  0.46276  1.0000
  H   H771      1.0  0.17937  0.89791  0.43843  1.0000
  C   C761      1.0  0.03561  0.69039  0.32701  1.0000
  C   C762      1.0  0.26097  0.90182  0.44024  1.0000
  H   H772      1.0  0.12567  0.86551  0.45070  1.0000
  C   C763      1.0  0.03603  0.75460  0.41475  1.0000
  C   C764      1.0  0.26553  0.87538  0.45010  1.0000
  C   C765      1.0  0.00485  0.82677  0.41142  1.0000
  S   S279      1.0  0.44187  0.97710  0.30143  1.0000
  C   C766      1.0  0.31797  0.98714  0.47139  1.0000
  S   S280      1.0  0.00990  0.73109  0.40462  1.0000
  Fe  Fe139     1.0  0.02435  0.74000  0.38338  1.0000
  S   S281      1.0  0.04860  0.72951  0.38218  1.0000
  C   C767      1.0  0.05498  0.76243  0.42185  1.0000
  Fe  Fe140     1.0  0.03027  0.76055  0.35346  1.0000
  S   S282      1.0  0.05498  0.75141  0.35006  1.0000
  S   S283      1.0  0.02280  0.77916  0.33540  1.0000
  Fe  Fe141     1.0  0.04866  0.72944  0.35890  1.0000
  S   S284      1.0  0.06068  0.70976  0.34870  1.0000
  Fe  Fe142     1.0  0.05189  0.75275  0.37364  1.0000
  S   S285      1.0  0.06654  0.76170  0.38239  1.0000
  S   S286      1.0  0.02405  0.73847  0.36064  1.0000
  S   S287      1.0  0.02751  0.76324  0.37645  1.0000
  H   H773      1.0  0.18463  0.87955  0.44879  1.0000
  C   C768      1.0  0.07360  0.79316  0.34997  1.0000
  C   C769      1.0  0.00129  0.78387  0.31982  1.0000
  H   H774      1.0  0.49603  0.96541  0.30487  1.0000
  C   C770      1.0  0.04029  0.66704  0.36367  1.0000
  C   C771      1.0  0.00505  0.84183  0.40741  1.0000
  H   H775      1.0  0.30499  0.91389  0.48923  1.0000
  H   H776      1.0  0.30334  0.95656  0.44449  1.0000
  H   H777      1.0  0.22899  0.95501  0.42895  1.0000
  H   H778      1.0  0.48606  0.93215  0.25725  1.0000
  C   C772      1.0  0.26202  0.88751  0.43874  1.0000
  H   H779      1.0  0.28418  0.98140  0.43142  1.0000
  C   C773      1.0  0.05853  0.69531  0.32894  1.0000
  C   C774      1.0  0.05059  0.70319  0.33998  1.0000
  C   C775      1.0  0.17037  0.91109  0.47395  1.0000
  C   C776      1.0  0.37960  0.98633  0.36385  1.0000
  Fe  Fe143     1.0  0.00470  0.67718  0.33067  1.0000
  H   H780      1.0  0.99952  0.76257  0.39507  1.0000
  C   C777      1.0  0.04358  0.79768  0.47013  1.0000
  H   H781      1.0  0.13098  0.99009  0.47996  1.0000
  C   C778      1.0  0.19398  0.95981  0.42093  1.0000
  C   C779      1.0  0.20326  0.96682  0.40870  1.0000
  C   C780      1.0  0.20168  0.98222  0.40586  1.0000
  H   H782      1.0  0.14241  0.95814  0.44682  1.0000
  C   C781      1.0  0.18158  0.98352  0.42752  1.0000
  C   C782      1.0  0.18318  0.96818  0.43034  1.0000
  H   H783      1.0  0.21147  0.96041  0.40129  1.0000
  S   S288      1.0  0.09701  0.89370  0.45886  1.0000
  C   C783      1.0  0.26697  0.87763  0.46338  1.0000
  H   H784      1.0  0.01567  0.84504  0.40277  1.0000
  H   H785      1.0  0.00929  0.78786  0.31023  1.0000
  C   C784      1.0  0.42081  0.94191  0.26638  1.0000
  C   C785      1.0  0.42065  0.94233  0.25176  1.0000
  H   H786      1.0  0.18459  0.89350  0.48650  1.0000
  C   C786      1.0  0.00207  0.74528  0.41445  1.0000
  S   S289      1.0  0.25156  0.96818  0.46047  1.0000
  H   H787      1.0  0.42341  0.93137  0.27387  1.0000
  H   H788      1.0  0.41177  0.97887  0.26530  1.0000
  H   H789      1.0  0.02533  0.79535  0.43522  1.0000
  C   C787      1.0  0.01230  0.82620  0.48567  1.0000
  C   C788      1.0  0.37922  0.97322  0.36048  1.0000
  C   C789      1.0  0.39082  0.96706  0.34987  1.0000
  C   C790      1.0  0.40233  0.97437  0.34204  1.0000
  C   C791      1.0  0.32563  0.97534  0.44611  1.0000
  H   H790      1.0  0.04332  0.82995  0.35763  1.0000
  C   C792      1.0  0.04857  0.78393  0.43258  1.0000
  H   H791      1.0  0.39073  0.95677  0.34742  1.0000
  H   H792      1.0  0.41106  0.96973  0.33360  1.0000
  C   C793      1.0  0.05104  0.68916  0.32231  1.0000
  C   C794      1.0  0.28807  0.95395  0.40386  1.0000
  C   C795      1.0  0.27992  0.94292  0.40933  1.0000
  C   C796      1.0  0.27145  0.94073  0.40065  1.0000
  C   C797      1.0  0.27055  0.94997  0.38678  1.0000
  C   C798      1.0  0.27876  0.96096  0.38131  1.0000
  C   C799      1.0  0.28749  0.96299  0.38985  1.0000
  H   H793      1.0  0.28051  0.93576  0.42009  1.0000
  H   H794      1.0  0.26608  0.93159  0.40454  1.0000
  H   H795      1.0  0.27807  0.96813  0.37059  1.0000
  H   H796      1.0  0.29345  0.97177  0.38569  1.0000
  C   C800      1.0  0.11450  0.85277  0.44385  1.0000
  H   H797      1.0  0.17303  0.98993  0.43477  1.0000
  C   C801      1.0  0.04155  0.82632  0.34832  1.0000
  C   C802      1.0  0.25509  0.99018  0.39478  1.0000
  H   H798      1.0  0.04575  0.74817  0.40796  1.0000
  H   H799      1.0  0.26659  0.86427  0.44886  1.0000
  H   H800      1.0  0.26197  0.91508  0.45452  1.0000
  H   H801      1.0  0.00290  0.86977  0.40691  1.0000
  H   H802      1.0  0.20874  0.98766  0.39632  1.0000
  S   S290      1.0  0.05803  0.80578  0.45832  1.0000
  H   H803      1.0  0.06967  0.86391  0.44674  1.0000
  C   C803      1.0  0.01930  0.79173  0.47526  1.0000
  C   C804      1.0  0.32294  0.96614  0.46017  1.0000
  H   H804      1.0  0.25749  0.97348  0.43010  1.0000
  H   H805      1.0  0.34248  0.98030  0.33844  1.0000
  H   H806      1.0  0.17594  0.96281  0.43976  1.0000
  H   H807      1.0  0.13550  0.87784  0.42509  1.0000
  H   H808      1.0  0.01696  0.66652  0.36911  1.0000
  C   C805      1.0  0.16918  0.90005  0.39571  1.0000
  C   C806      1.0  0.17593  0.89463  0.38279  1.0000
  C   C807      1.0  0.19069  0.89555  0.37572  1.0000
  C   C808      1.0  0.19860  0.90207  0.38147  1.0000
  C   C809      1.0  0.19168  0.90765  0.39425  1.0000
  C   C810      1.0  0.17714  0.90635  0.40154  1.0000
  H   H809      1.0  0.16975  0.88980  0.37819  1.0000
  H   H810      1.0  0.19595  0.89131  0.36576  1.0000
  H   H811      1.0  0.19720  0.91364  0.39818  1.0000
  H   H812      1.0  0.17195  0.91078  0.41132  1.0000
  C   C811      1.0  0.09502  0.89228  0.43109  1.0000
  C   C812      1.0  0.09046  0.88659  0.42147  1.0000
  H   H813      1.0  0.10221  0.90004  0.42666  1.0000
  H   H814      1.0  0.09422  0.89001  0.40965  1.0000
  C   C813      1.0  0.04931  0.80921  0.38960  1.0000
  C   C814      1.0  0.04119  0.80324  0.38353  1.0000
  C   C815      1.0  0.04635  0.78868  0.38143  1.0000
  C   C816      1.0  0.05960  0.77988  0.38549  1.0000
  C   C817      1.0  0.06763  0.78580  0.39178  1.0000
  C   C818      1.0  0.06242  0.80041  0.39397  1.0000
  H   H815      1.0  0.03109  0.81003  0.38004  1.0000
  H   H816      1.0  0.04041  0.78460  0.37600  1.0000
  H   H817      1.0  0.07800  0.77914  0.39479  1.0000
  H   H818      1.0  0.06885  0.80503  0.39850  1.0000
  C   C819      1.0  0.22394  0.88597  0.45224  1.0000
  S   S291      1.0  0.02671  0.68263  0.31818  1.0000
  C   C820      1.0  0.41843  0.95508  0.27104  1.0000
  C   C821      1.0  0.13996  0.98064  0.44878  1.0000
  C   C822      1.0  0.13586  0.96941  0.44499  1.0000
  C   C823      1.0  0.12356  0.97296  0.43837  1.0000
  C   C824      1.0  0.11525  0.98759  0.43595  1.0000
  H   H819      1.0  0.32865  0.97068  0.43645  1.0000
  C   C825      1.0  0.26256  0.90405  0.45346  1.0000
  C   C826      1.0  0.41443  0.96869  0.26150  1.0000
  C   C827      1.0  0.12887  0.86980  0.42694  1.0000
  C   C828      1.0  0.08145  0.87619  0.42701  1.0000
  H   H820      1.0  0.12719  0.87195  0.39176  1.0000
  H   H821      1.0  0.03295  0.83369  0.47797  1.0000
  S   S292      1.0  0.00057  0.75692  0.47450  1.0000
  H   H822      1.0  0.28009  0.98987  0.35208  1.0000
  C   C829      1.0  0.05098  0.67301  0.36596  1.0000
  C   C830      1.0  0.14167  0.98546  0.48320  1.0000
  H   H823      1.0  0.02166  0.71801  0.31035  1.0000
  C   C831      1.0  0.20817  0.98821  0.46698  1.0000
  C   C832      1.0  0.41383  0.96913  0.24698  1.0000
  C   C833      1.0  0.03378  0.78617  0.43146  1.0000
  H   H824      1.0  0.03665  0.80668  0.33621  1.0000
  H   H825      1.0  0.47312  0.97843  0.29523  1.0000
  H   H826      1.0  0.07078  0.77021  0.42852  1.0000
  Fe  Fe144     1.0  0.14523  0.90855  0.45536  1.0000
  Fe  Fe145     1.0  0.06118  0.85313  0.42133  1.0000
  N   N66       1.0  0.45699  0.93366  0.27446  1.0000
  C   C834      1.0  0.46172  0.93895  0.28378  1.0000
  C   C835      1.0  0.45547  0.94200  0.26074  1.0000
  C   C836      1.0  0.46524  0.95287  0.27937  1.0000
  C   C837      1.0  0.45854  0.95610  0.25610  1.0000
  C   C838      1.0  0.46352  0.96153  0.26548  1.0000
  C   C839      1.0  0.45368  0.91891  0.27932  1.0000
  H   H827      1.0  0.46274  0.93241  0.29472  1.0000
  C   C840      1.0  0.25908  0.98719  0.40835  1.0000
  C   C841      1.0  0.02139  0.68104  0.38019  1.0000
  C   C842      1.0  0.03049  0.79867  0.46562  1.0000
  H   H828      1.0  0.00975  0.68428  0.38551  1.0000
  H   H829      1.0  0.46385  0.91043  0.28174  1.0000
  H   H830      1.0  0.44446  0.91862  0.28929  1.0000
  H   H831      1.0  0.45020  0.91587  0.27062  1.0000
  H   H832      1.0  0.14266  0.87403  0.39778  1.0000
  H   H833      1.0  0.28429  0.95509  0.44721  1.0000
  H   H834      1.0  0.22090  0.96617  0.46554  1.0000
  H   H835      1.0  0.13017  0.96540  0.47940  1.0000
  H   H836      1.0  0.04344  0.65969  0.35601  1.0000
  H   H837      1.0  0.04402  0.83464  0.33797  1.0000
  S   S293      1.0  0.15060  0.92364  0.43326  1.0000
  S   S294      1.0  0.13907  0.89254  0.44621  1.0000
  C   C843      1.0  0.00509  0.77892  0.33368  1.0000
  C   C844      1.0  0.26503  0.89200  0.46521  1.0000
  H   H838      1.0  0.23398  0.87773  0.45434  1.0000
  S   S295      1.0  0.12139  0.92094  0.46163  1.0000
  H   H839      1.0  0.07740  0.87423  0.46377  1.0000
  H   H840      1.0  0.15810  0.93086  0.46180  1.0000
  C   C845      1.0  0.13030  0.87548  0.40035  1.0000
  H   H841      1.0  0.07633  0.77320  0.34252  1.0000
  N   N67       1.0  0.20034  0.89265  0.44496  1.0000
  H   H842      1.0  0.00388  0.83543  0.44871  1.0000
  C   C846      1.0  0.11112  0.84988  0.43184  1.0000
  H   H843      1.0  0.02318  0.70916  0.38451  1.0000
  C   C847      1.0  0.29213  0.95805  0.45201  1.0000
  C   C848      1.0  0.02088  0.83684  0.47922  1.0000
  H   H844      1.0  0.10361  0.84266  0.43362  1.0000
  H   H845      1.0  0.32386  0.95446  0.46122  1.0000
  H   H846      1.0  0.14973  0.97796  0.45347  1.0000
  C   C849      1.0  0.02730  0.69815  0.39130  1.0000
  C   C850      1.0  0.16665  0.92634  0.46826  1.0000
  C   C851      1.0  0.22199  0.90043  0.45379  1.0000
  Fe  Fe146     1.0  0.21695  0.93505  0.48778  1.0000
  H   H847      1.0  0.23500  0.96418  0.40238  1.0000
  N   N68       1.0  0.24488  0.96836  0.41777  1.0000
  C   C852      1.0  0.01381  0.85147  0.47410  1.0000
  C   C853      1.0  0.25396  0.97607  0.41976  1.0000
  S   S296      1.0  0.42195  0.95429  0.28823  1.0000
  C   C854      1.0  0.05924  0.77196  0.42781  1.0000
  S   S297      1.0  0.04660  0.84843  0.44390  1.0000
  C   C855      1.0  0.23980  0.95660  0.42981  1.0000
  C   C856      1.0  0.22137  0.97763  0.46365  1.0000
  C   C857      1.0  0.18164  0.90530  0.48213  1.0000
  C   C858      1.0  0.09048  0.88774  0.44640  1.0000
  H   H848      1.0  0.03670  0.69888  0.39561  1.0000
  C   C859      1.0  0.12347  0.86275  0.44141  1.0000
  S   S298      1.0  0.16181  0.89892  0.47025  1.0000
  H   H849      1.0  0.23791  0.95944  0.44071  1.0000
  H   H850      1.0  0.24835  0.94605  0.42954  1.0000
  H   H851      1.0  0.42313  0.93210  0.24803  1.0000
  H   H852      1.0  0.10972  0.84773  0.45504  1.0000
  N   N69       1.0  0.04049  0.76482  0.42066  1.0000
  H   H853      1.0  0.03052  0.74676  0.42392  1.0000
  H   H854      1.0  0.02955  0.82600  0.35081  1.0000
  N   N70       1.0  0.16257  0.95242  0.40049  1.0000
  C   C860      1.0  0.17665  0.94943  0.39192  1.0000
  C   C861      1.0  0.15136  0.94727  0.39865  1.0000
  C   C862      1.0  0.17961  0.94174  0.38065  1.0000
  C   C863      1.0  0.15401  0.93927  0.38769  1.0000
  C   C864      1.0  0.16819  0.93667  0.37852  1.0000
  C   C865      1.0  0.15970  0.96046  0.41224  1.0000
  H   H855      1.0  0.18572  0.95279  0.39395  1.0000
  H   H856      1.0  0.14034  0.94909  0.40587  1.0000
  H   H857      1.0  0.19086  0.93909  0.37405  1.0000
  H   H858      1.0  0.14527  0.93471  0.38662  1.0000
  H   H859      1.0  0.17053  0.93007  0.37029  1.0000
  H   H860      1.0  0.14786  0.96664  0.41450  1.0000
  H   H861      1.0  0.16219  0.95253  0.42254  1.0000
  H   H862      1.0  0.16676  0.96867  0.40915  1.0000
  H   H863      1.0  0.08371  0.78918  0.35432  1.0000
  H   H864      1.0  0.00926  0.79240  0.47172  1.0000
  H   H865      1.0  0.05729  0.68328  0.31361  1.0000
  C   C866      1.0  0.00973  0.72282  0.31244  1.0000
  H   H866      1.0  0.01523  0.81848  0.40981  1.0000
  N   N71       1.0  0.28684  0.97348  0.45366  1.0000
  C   C867      1.0  0.19838  0.90685  0.44641  1.0000
  H   H867      1.0  0.00220  0.73057  0.43580  1.0000
  H   H868      1.0  0.19771  0.98481  0.47179  1.0000
  H   H869      1.0  0.01569  0.69914  0.34190  1.0000
  H   H870      1.0  0.28895  0.96848  0.47610  1.0000
  H   H871      1.0  0.46911  0.95698  0.28674  1.0000
  H   H872      1.0  0.17134  0.94750  0.46622  1.0000
  C   C868      1.0  0.20918  0.91098  0.45077  1.0000
  C   C869      1.0  0.02541  0.67098  0.37091  1.0000
  H   H873      1.0  0.05282  0.78234  0.33299  1.0000
  H   H874      1.0  0.21461  0.87105  0.44641  1.0000
  C   C870      1.0  0.06941  0.78415  0.34340  1.0000
  Fe  Fe147     1.0  0.42482  0.97607  0.28987  1.0000
  C   C871      1.0  0.08101  0.87775  0.45195  1.0000
  H   H875      1.0  0.01143  0.74034  0.32145  1.0000
  Fe  Fe148     1.0  0.12648  0.93516  0.43887  1.0000
  H   H876      1.0  0.37083  0.99103  0.37219  1.0000
  C   C872      1.0  0.06437  0.80709  0.35138  1.0000
  N   N72       1.0  0.29509  0.91575  0.38361  1.0000
  C   C873      1.0  0.30482  0.92226  0.38632  1.0000
  C   C874      1.0  0.28958  0.90469  0.39413  1.0000
  C   C875      1.0  0.30891  0.91803  0.40003  1.0000
  C   C876      1.0  0.29342  0.90021  0.40796  1.0000
  C   C877      1.0  0.30308  0.90700  0.41093  1.0000
  C   C878      1.0  0.29101  0.92026  0.36914  1.0000
  H   H877      1.0  0.30910  0.93111  0.37803  1.0000
  H   H878      1.0  0.28201  0.89936  0.39199  1.0000
  H   H879      1.0  0.31618  0.92364  0.40232  1.0000
  H   H880      1.0  0.28882  0.89159  0.41633  1.0000
  H   H881      1.0  0.30592  0.90381  0.42171  1.0000
  H   H882      1.0  0.29896  0.91339  0.36150  1.0000
  H   H883      1.0  0.27948  0.91916  0.37012  1.0000
  H   H884      1.0  0.29096  0.93217  0.36425  1.0000
  C   C879      1.0  0.48471  0.99045  0.27517  1.0000
  N   N73       1.0  0.05115  0.81173  0.34670  1.0000
  C   C880      1.0  0.03507  0.70468  0.34456  1.0000
  C   C881      1.0  0.21295  0.88226  0.44775  1.0000
  H   H885      1.0  0.05179  0.79145  0.43711  1.0000
  C   C882      1.0  0.28591  0.97704  0.46676  1.0000
  Fe  Fe149     1.0  0.11567  0.90618  0.45029  1.0000
  S   S299      1.0  0.00514  0.86643  0.43785  1.0000
  H   H886      1.0  0.46601  0.97241  0.26207  1.0000
  N   N74       1.0  0.14662  0.97046  0.48733  1.0000
  H   H887      1.0  0.19401  0.88473  0.42955  1.0000
  S   S300      1.0  0.11876  0.95995  0.43175  1.0000
  C   C883      1.0  0.02761  0.69810  0.33822  1.0000
  C   C884      1.0  0.24129  0.97094  0.40434  1.0000
  H   H888      1.0  0.23039  0.90344  0.45731  1.0000
  C   C885      1.0  0.23514  0.98172  0.45895  1.0000
  C   C886      1.0  0.48381  0.98046  0.28881  1.0000
  H   H889      1.0  0.06342  0.75335  0.41784  1.0000
  Fe  Fe150     1.0  0.05187  0.82525  0.44035  1.0000
  H   H890      1.0  0.02811  0.76084  0.40744  1.0000
  C   C887      1.0  0.18924  0.91470  0.48455  1.0000
  C   C888      1.0  0.04708  0.80305  0.34003  1.0000
  H   H891      1.0  0.18836  0.91509  0.44428  1.0000
  C   C889      1.0  0.07655  0.87194  0.44231  1.0000
  C   C890      1.0  0.02990  0.77640  0.42552  1.0000
  H   H892      1.0  0.01839  0.77815  0.42477  1.0000
  S   S301      1.0  0.19411  0.94225  0.48226  1.0000
  H   H893      1.0  0.02888  0.71041  0.35332  1.0000
  H   H894      1.0  0.24367  0.98371  0.38193  1.0000
  H   H895      1.0  0.36713  0.97610  0.31458  1.0000
  C   C891      1.0  0.17416  0.93573  0.47077  1.0000
  C   C892      1.0  0.99984  0.74198  0.42986  1.0000
  Fe  Fe151     1.0  0.24865  0.91621  0.48598  1.0000
  H   H896      1.0  0.01824  0.69561  0.40103  1.0000
  H   H897      1.0  0.00439  0.70657  0.30437  1.0000
  C   C893      1.0  0.49238  0.93185  0.24615  1.0000
  H   H898      1.0  0.02031  0.85983  0.46876  1.0000
  S   S302      1.0  0.23683  0.93273  0.46906  1.0000
  C   C894      1.0  0.28331  0.98432  0.44179  1.0000
  Fe  Fe152     1.0  0.24361  0.94915  0.47682  1.0000
  H   H899      1.0  0.26907  0.86827  0.47239  1.0000
  C   C895      1.0  0.41738  0.95593  0.24201  1.0000
  S   S303      1.0  0.47776  0.91107  0.24632  1.0000
  H   H900      1.0  0.45714  0.96264  0.24529  1.0000
  C   C896      1.0  0.04530  0.78999  0.48436  1.0000
  H   H901      1.0  0.38315  0.97520  0.32147  1.0000
  C   C897      1.0  0.40261  0.98759  0.34524  1.0000
  C   C898      1.0  0.34769  0.98918  0.33776  1.0000
  N   N75       1.0  0.36247  0.98834  0.33124  1.0000
  C   C899      1.0  0.32484  0.99038  0.44465  1.0000
  C   C900      1.0  0.19078  0.99056  0.41528  1.0000
  C   C901      1.0  0.13729  0.96053  0.48774  1.0000
  H   H902      1.0  0.05540  0.78920  0.48788  1.0000
  H   H903      1.0  0.10569  0.99039  0.43091  1.0000
  C   C902      1.0  0.00002  0.71644  0.30899  1.0000
  H   H904      1.0  0.41110  0.97967  0.23953  1.0000
  C   C903      1.0  0.03391  0.78358  0.49418  1.0000
  C   C904      1.0  0.02276  0.72958  0.50508  1.0000
  C   C905      1.0  0.36459  0.96247  0.59183  1.0000
  N   N76       1.0  0.00706  0.73987  0.52573  1.0000
  H   H905      1.0  0.34921  0.94818  0.56657  1.0000
  C   C906      1.0  0.34331  0.98705  0.55250  1.0000
  C   C907      1.0  0.01887  0.74010  0.51384  1.0000
  S   S304      1.0  0.39933  0.95672  0.60396  1.0000
  H   H906      1.0  0.01710  0.71076  0.50168  1.0000
  C   C908      1.0  0.43618  0.96298  0.60926  1.0000
  C   C909      1.0  0.47933  0.96904  0.66463  1.0000
  S   S305      1.0  0.00666  0.77681  0.50236  1.0000
  H   H907      1.0  0.47652  0.97883  0.72499  1.0000
  H   H908      1.0  0.48633  0.96331  0.65605  1.0000
  C   C910      1.0  0.22850  0.97908  0.51365  1.0000
  S   S306      1.0  0.26823  0.97235  0.55151  1.0000
  Fe  Fe153     1.0  0.31075  0.97322  0.50807  1.0000
  H   H909      1.0  0.48367  0.90005  0.73752  1.0000
  C   C911      1.0  0.29690  0.91493  0.49950  1.0000
  C   C912      1.0  0.45974  0.97564  0.60665  1.0000
  S   S307      1.0  0.31041  0.96211  0.53184  1.0000
  C   C913      1.0  0.39893  0.94916  0.62276  1.0000
  S   S308      1.0  0.41286  0.96413  0.67227  1.0000
  S   S309      1.0  0.40073  0.94401  0.70495  1.0000
  C   C914      1.0  0.35361  0.95188  0.57388  1.0000
  S   S310      1.0  0.45588  0.96091  0.66013  1.0000
  H   H910      1.0  0.46524  0.90856  0.72291  1.0000
  C   C915      1.0  0.48575  0.97545  0.67210  1.0000
  H   H911      1.0  0.13000  0.95833  0.49889  1.0000
  Fe  Fe154     1.0  0.23598  0.93443  0.50910  1.0000
  Fe  Fe155     1.0  0.28874  0.97870  0.53605  1.0000
  S   S311      1.0  0.23453  0.93491  0.53261  1.0000
  C   C916      1.0  0.29735  0.92459  0.50778  1.0000
  C   C917      1.0  0.47592  0.93362  0.69213  1.0000
  H   H912      1.0  0.25322  0.90586  0.52810  1.0000
  H   H913      1.0  0.40951  0.94561  0.73201  1.0000
  H   H914      1.0  0.03183  0.73006  0.49542  1.0000
  S   S312      1.0  0.22805  0.91676  0.50419  1.0000
  H   H915      1.0  0.30577  0.93118  0.50397  1.0000
  C   C918      1.0  0.23058  0.98430  0.52499  1.0000
  C   C919      1.0  0.16909  0.97399  0.49125  1.0000
  Fe  Fe156     1.0  0.40653  0.96624  0.69590  1.0000
  Fe  Fe157     1.0  0.40935  0.94107  0.68154  1.0000
  S   S313      1.0  0.34150  0.97549  0.54201  1.0000
  H   H916      1.0  0.45930  0.96454  0.62930  1.0000
  H   H917      1.0  0.17988  0.96928  0.49428  1.0000
  C   C920      1.0  0.48810  0.93589  0.69586  1.0000
  C   C921      1.0  0.40055  0.93389  0.62814  1.0000
  C   C922      1.0  0.33967  0.97686  0.60092  1.0000
  H   H918      1.0  0.22151  0.97119  0.51620  1.0000
  C   C923      1.0  0.37438  0.95288  0.58299  1.0000
  H   H919      1.0  0.49452  0.94362  0.68833  1.0000
  H   H920      1.0  0.03519  0.77796  0.50529  1.0000
  H   H921      1.0  0.37201  0.97231  0.69697  1.0000
  C   C924      1.0  0.23564  0.98396  0.49910  1.0000
  S   S314      1.0  0.25727  0.93260  0.49202  1.0000
  C   C925      1.0  0.40033  0.92787  0.64319  1.0000
  H   H922      1.0  0.37183  0.94743  0.69444  1.0000
  H   H923      1.0  0.41739  0.98343  0.71295  1.0000
  S   S315      1.0  0.28831  0.98853  0.51230  1.0000
  H   H924      1.0  0.46482  0.96371  0.71627  1.0000
  S   S316      1.0  0.43311  0.93107  0.68369  1.0000
  C   C926      1.0  0.45323  0.97840  0.59455  1.0000
  S   S317      1.0  0.39859  0.92945  0.67152  1.0000
  H   H925      1.0  0.45815  0.92190  0.69922  1.0000
  Fe  Fe158     1.0  0.43583  0.95445  0.67657  1.0000
  H   H926      1.0  0.40188  0.92673  0.62073  1.0000
  C   C927      1.0  0.36557  0.95554  0.67333  1.0000
  H   H927      1.0  0.45426  0.98988  0.69516  1.0000
  N   N77       1.0  0.48397  0.91819  0.71879  1.0000
  C   C928      1.0  0.01458  0.71871  0.50864  1.0000
  S   S318      1.0  0.22300  0.95273  0.49460  1.0000
  C   C929      1.0  0.34412  0.96146  0.58289  1.0000
  H   H928      1.0  0.28717  0.93321  0.52755  1.0000
  S   S319      1.0  0.42982  0.95819  0.69960  1.0000
  C   C930      1.0  0.45425  0.96653  0.61992  1.0000
  C   C931      1.0  0.39741  0.95230  0.64732  1.0000
  C   C932      1.0  0.43664  0.95123  0.63520  1.0000
  C   C933      1.0  0.28587  0.90666  0.50451  1.0000
  H   H929      1.0  0.38621  0.94963  0.58316  1.0000
  H   H930      1.0  0.19788  0.91017  0.49090  1.0000
  C   C934      1.0  0.44314  0.97014  0.73005  1.0000
  H   H931      1.0  0.43787  0.96360  0.72635  1.0000
  H   H932      1.0  0.44536  0.94561  0.64181  1.0000
  H   H933      1.0  0.33614  0.97046  0.61225  1.0000
  H   H934      1.0  0.28551  0.89924  0.49795  1.0000
  H   H935      1.0  0.26774  0.91853  0.53583  1.0000
  H   H936      1.0  0.39561  0.97019  0.62845  1.0000
  H   H937      1.0  0.01143  0.75749  0.53233  1.0000
  H   H938      1.0  0.34530  0.98529  0.60147  1.0000
  C   C935      1.0  0.48797  0.91033  0.73300  1.0000
  H   H939      1.0  0.26770  0.88904  0.53010  1.0000
  H   H940      1.0  0.43600  0.97440  0.58659  1.0000
  H   H941      1.0  0.02516  0.74864  0.51085  1.0000
  N   N78       1.0  0.34971  0.96683  0.59152  1.0000
  C   C936      1.0  0.47673  0.98268  0.68336  1.0000
  H   H942      1.0  0.36591  0.94459  0.67201  1.0000
  H   H943      1.0  0.42684  0.95823  0.61020  1.0000
  H   H944      1.0  0.32959  0.98313  0.59638  1.0000
  Fe  Fe159     1.0  0.42485  0.93575  0.70644  1.0000
  C   C937      1.0  0.27596  0.91741  0.52563  1.0000
  C   C938      1.0  0.26390  0.89951  0.52239  1.0000
  N   N79       1.0  0.44270  0.96022  0.62104  1.0000
  C   C939      1.0  0.36275  0.98186  0.66382  1.0000
  H   H945      1.0  0.40144  0.91606  0.64739  1.0000
  C   C940      1.0  0.28690  0.92576  0.52100  1.0000
  C   C941      1.0  0.47185  0.91610  0.71530  1.0000
  S   S320      1.0  0.39182  0.98795  0.70026  1.0000
  C   C942      1.0  0.46393  0.96992  0.66842  1.0000
  H   H946      1.0  0.42744  0.95841  0.64168  1.0000
  H   H947      1.0  0.99985  0.74654  0.54639  1.0000
  H   H948      1.0  0.47282  0.93950  0.68168  1.0000
  C   C943      1.0  0.25939  0.96199  0.54554  1.0000
  C   C944      1.0  0.26312  0.96002  0.53094  1.0000
  C   C945      1.0  0.25536  0.95199  0.52661  1.0000
  C   C946      1.0  0.24411  0.94572  0.53698  1.0000
  C   C947      1.0  0.24051  0.94770  0.55149  1.0000
  C   C948      1.0  0.24799  0.95591  0.55571  1.0000
  H   H949      1.0  0.27190  0.96471  0.52301  1.0000
  H   H950      1.0  0.25816  0.95054  0.51534  1.0000
  H   H951      1.0  0.23186  0.94285  0.55955  1.0000
  H   H952      1.0  0.24505  0.95740  0.56698  1.0000
  C   C949      1.0  0.46133  0.98387  0.68682  1.0000
  C   C950      1.0  0.36884  0.94763  0.57390  1.0000
  N   N80       1.0  0.36589  0.98336  0.67632  1.0000
  Fe  Fe160     1.0  0.39312  0.98137  0.60067  1.0000
  H   H953      1.0  0.43216  0.94245  0.63353  1.0000
  C   C951      1.0  0.36248  0.96796  0.66216  1.0000
  C   C952      1.0  0.36895  0.95713  0.68594  1.0000
  C   C953      1.0  0.35752  0.98602  0.55473  1.0000
  H   H954      1.0  0.26134  0.89678  0.51297  1.0000
  C   C954      1.0  0.46773  0.92368  0.70190  1.0000
  C   C955      1.0  0.45494  0.97765  0.67924  1.0000
  C   C956      1.0  0.39893  0.93706  0.65275  1.0000
  Fe  Fe161     1.0  0.32098  0.98005  0.53250  1.0000
  H   H955      1.0  0.39592  0.95950  0.65470  1.0000
  C   C957      1.0  0.39718  0.95837  0.63240  1.0000
  H   H956      1.0  0.44296  0.97944  0.68136  1.0000
  N   N81       1.0  0.27541  0.90820  0.51728  1.0000
  H   H957      1.0  0.46887  0.98068  0.60580  1.0000
  C   C958      1.0  0.44134  0.97209  0.59585  1.0000
  H   H958      1.0  0.23403  0.98014  0.49015  1.0000
  H   H959      1.0  0.33236  0.96497  0.58251  1.0000
  H   H960      1.0  0.22511  0.98032  0.53628  1.0000
  H   H961      1.0  0.16375  0.95283  0.49532  1.0000
  C   C959      1.0  0.00263  0.71851  0.52082  1.0000
  H   H962      1.0  0.37635  0.94039  0.56679  1.0000
  S   S321      1.0  0.48442  0.99045  0.69310  1.0000
  C   C960      1.0  0.49199  0.92804  0.70934  1.0000
  C   C961      1.0  0.45826  0.97012  0.72450  1.0000
  S   S322      1.0  0.32346  0.98952  0.50811  1.0000
  H   H963      1.0  0.49760  0.97504  0.66896  1.0000
  S   S323      1.0  0.31510  0.96054  0.49035  1.0000
  H   H964      1.0  0.43309  0.98888  0.64763  1.0000
  H   H965      1.0  0.36713  0.97854  0.54965  1.0000
  H   H966      1.0  0.36901  0.96653  0.59882  1.0000
  H   H967      1.0  0.36036  0.96676  0.65209  1.0000
  C   C962      1.0  0.36912  0.97120  0.68724  1.0000
  H   H968      1.0  0.45727  0.98556  0.58424  1.0000
  C   C963      1.0  0.46483  0.97861  0.72940  1.0000
  C   C964      1.0  0.00249  0.75141  0.53437  1.0000
  S   S324      1.0  0.43407  0.92119  0.72582  1.0000
  C   C965      1.0  0.15996  0.96470  0.49169  1.0000
  C   C966      1.0  0.02096  0.78436  0.48962  1.0000
  H   H969      1.0  0.01789  0.81488  0.48962  1.0000
  C   C967      1.0  0.33301  0.67905  0.93743  1.0000
  S   S325      1.0  0.44520  0.93589  0.79949  1.0000
  C   C968      1.0  0.40948  0.82625  0.91291  1.0000
  Fe  Fe162     1.0  0.44737  0.95133  0.81206  1.0000
  S   S326      1.0  0.43933  0.94527  0.83669  1.0000
  Fe  Fe163     1.0  0.47060  0.87144  0.88342  1.0000
  S   S327      1.0  0.47705  0.85799  0.90459  1.0000
  S   S328      1.0  0.48116  0.89038  0.87016  1.0000
  Fe  Fe164     1.0  0.44960  0.85301  0.88429  1.0000
  S   S329      1.0  0.45359  0.83782  0.90580  1.0000
  S   S330      1.0  0.43453  0.85321  0.86995  1.0000
  Fe  Fe165     1.0  0.45270  0.85831  0.91295  1.0000
  S   S331      1.0  0.44098  0.86136  0.93592  1.0000
  Fe  Fe166     1.0  0.47762  0.83836  0.89614  1.0000
  C   C969      1.0  0.47064  0.80743  0.94456  1.0000
  S   S332      1.0  0.44603  0.87364  0.89248  1.0000
  S   S333      1.0  0.47387  0.85167  0.87391  1.0000
  C   C970      1.0  0.48937  0.87656  0.93449  1.0000
  H   H970      1.0  0.46991  0.77548  0.86867  1.0000
  H   H971      1.0  0.46334  0.81697  0.94869  1.0000
  H   H972      1.0  0.48014  0.77617  0.91375  1.0000
  N   N82       1.0  0.40392  0.83393  0.90063  1.0000
  C   C971      1.0  0.47198  0.84313  0.96869  1.0000
  H   H973      1.0  0.49221  0.69819  0.96195  1.0000
  C   C972      1.0  0.48183  0.88886  0.91136  1.0000
  C   C973      1.0  0.45953  0.87902  0.84281  1.0000
  C   C974      1.0  0.43211  0.71294  0.94119  1.0000
  N   N83       1.0  0.47553  0.78947  0.92972  1.0000
  Fe  Fe167     1.0  0.43654  0.95653  0.78402  1.0000
  H   H974      1.0  0.45686  0.86945  0.85113  1.0000
  C   C975      1.0  0.41478  0.84843  0.91539  1.0000
  H   H975      1.0  0.32153  0.69830  0.94664  1.0000
  C   C976      1.0  0.47750  0.89033  0.82337  1.0000
  H   H976      1.0  0.34710  0.66160  0.92674  1.0000
  H   H977      1.0  0.46607  0.77366  0.96853  1.0000
  C   C977      1.0  0.34076  0.70225  0.92939  1.0000
  C   C978      1.0  0.46985  0.73660  0.97288  1.0000
  C   C979      1.0  0.43803  0.92838  0.74990  1.0000
  S   S334      1.0  0.48601  0.91868  0.78212  1.0000
  H   H978      1.0  0.45165  0.88746  0.93921  1.0000
  H   H979      1.0  0.42151  0.72089  0.94071  1.0000
  H   H980      1.0  0.43530  0.76749  0.95242  1.0000
  C   C980      1.0  0.40345  0.84876  0.89571  1.0000
  S   S335      1.0  0.41730  0.96021  0.77349  1.0000
  H   H981      1.0  0.39928  0.85482  0.88582  1.0000
  C   C981      1.0  0.47409  0.87813  0.83429  1.0000
  H   H982      1.0  0.46898  0.91275  0.81272  1.0000
  H   H983      1.0  0.43420  0.88778  0.86169  1.0000
  H   H984      1.0  0.41928  0.85400  0.92102  1.0000
  H   H985      1.0  0.46524  0.79233  0.91182  1.0000
  C   C982      1.0  0.45717  0.85052  0.97322  1.0000
  Fe  Fe168     1.0  0.38464  0.67460  0.94079  1.0000
  S   S336      1.0  0.36179  0.67873  0.95518  1.0000
  S   S337      1.0  0.38991  0.69064  0.91941  1.0000
  H   H986      1.0  0.43505  0.69700  0.91315  1.0000
  H   H987      1.0  0.42222  0.75914  0.97780  1.0000
  C   C983      1.0  0.39788  0.82638  0.89304  1.0000
  S   S338      1.0  0.39672  0.67157  0.95871  1.0000
  H   H988      1.0  0.38095  0.76534  0.96143  1.0000
  H   H989      1.0  0.43664  0.72141  0.95779  1.0000
  H   H990      1.0  0.45483  0.68497  0.92565  1.0000
  Fe  Fe169     1.0  0.42708  0.77513  0.89329  1.0000
  S   S339      1.0  0.44710  0.77059  0.90302  1.0000
  S   S340      1.0  0.42702  0.78981  0.87083  1.0000
  Fe  Fe170     1.0  0.40916  0.75926  0.92133  1.0000
  S   S341      1.0  0.42743  0.75424  0.93357  1.0000
  S   S342      1.0  0.38907  0.75054  0.93496  1.0000
  Fe  Fe171     1.0  0.43014  0.77738  0.92255  1.0000
  S   S343      1.0  0.43169  0.79523  0.93255  1.0000
  Fe  Fe172     1.0  0.44226  0.74808  0.91278  1.0000
  S   S344      1.0  0.46004  0.72722  0.91304  1.0000
  S   S345      1.0  0.41027  0.78307  0.91241  1.0000
  S   S346      1.0  0.42394  0.75175  0.90098  1.0000
  C   C984      1.0  0.42369  0.79025  0.95121  1.0000
  H   H991      1.0  0.38576  0.82721  0.89773  1.0000
  H   H992      1.0  0.45573  0.66149  0.96578  1.0000
  C   C985      1.0  0.46724  0.84553  0.94448  1.0000
  H   H993      1.0  0.46092  0.70336  0.95881  1.0000
  N   N84       1.0  0.43733  0.70297  0.93215  1.0000
  Fe  Fe173     1.0  0.46001  0.97192  0.78426  1.0000
  H   H994      1.0  0.42687  0.90394  0.84903  1.0000
  H   H995      1.0  0.47116  0.84321  0.93357  1.0000
  C   C986      1.0  0.45932  0.69286  0.94239  1.0000
  N   N85       1.0  0.44877  0.89179  0.84071  1.0000
  H   H996      1.0  0.37294  0.68351  0.89934  1.0000
  H   H997      1.0  0.45130  0.91001  0.91133  1.0000
  H   H998      1.0  0.43621  0.86183  0.96669  1.0000
  C   C987      1.0  0.47694  0.84054  0.95433  1.0000
  C   C988      1.0  0.49403  0.70530  0.95071  1.0000
  H   H999      1.0  0.45600  0.80697  0.93138  1.0000
  C   C989      1.0  0.46637  0.90318  0.82109  1.0000
  Fe  Fe174     1.0  0.46789  0.93871  0.78641  1.0000
  C   C990      1.0  0.38886  0.70766  0.92345  1.0000
  C   C991      1.0  0.39337  0.71924  0.91222  1.0000
  C   C992      1.0  0.39332  0.73253  0.91566  1.0000
  C   C993      1.0  0.38864  0.73428  0.93032  1.0000
  C   C994      1.0  0.38380  0.72280  0.94146  1.0000
  C   C995      1.0  0.38395  0.70953  0.93804  1.0000
  H   H1000     1.0  0.39710  0.71789  0.90090  1.0000
  H   H1001     1.0  0.39669  0.74149  0.90694  1.0000
  H   H1002     1.0  0.38022  0.72397  0.95281  1.0000
  H   H1003     1.0  0.38030  0.70076  0.94679  1.0000
  C   C996      1.0  0.45423  0.70314  0.95145  1.0000
  H   H1004     1.0  0.38306  0.77075  0.97703  1.0000
  S   S347      1.0  0.47084  0.95269  0.80008  1.0000
  C   C997      1.0  0.48869  0.78267  0.93422  1.0000
  C   C998      1.0  0.49317  0.88161  0.91921  1.0000
  C   C999      1.0  0.49341  0.78844  0.94353  1.0000
  H   H1005     1.0  0.37152  0.74412  0.96492  1.0000
  C   C1000     1.0  0.48932  0.72271  0.91356  1.0000
  C   C1001     1.0  0.47470  0.73012  0.91863  1.0000
  C   C1002     1.0  0.47201  0.74074  0.92705  1.0000
  C   C1003     1.0  0.48403  0.74450  0.92973  1.0000
  H   H1006     1.0  0.47150  0.93386  0.83051  1.0000
  H   H1007     1.0  0.49144  0.71425  0.90732  1.0000
  H   H1008     1.0  0.46069  0.74621  0.93134  1.0000
  H   H1009     1.0  0.48198  0.75272  0.93621  1.0000
  H   H1010     1.0  0.40895  0.86786  0.89873  1.0000
  C   C1004     1.0  0.43366  0.89237  0.84988  1.0000
  C   C1005     1.0  0.42702  0.77541  0.95820  1.0000
  H   H1011     1.0  0.46241  0.77657  0.92674  1.0000
  H   H1012     1.0  0.48265  0.86808  0.83621  1.0000
  H   H1013     1.0  0.48798  0.77984  0.86102  1.0000
  H   H1014     1.0  0.36077  0.70259  0.91250  1.0000
  C   C1006     1.0  0.41511  0.83334  0.92038  1.0000
  H   H1015     1.0  0.48716  0.71667  0.95124  1.0000
  H   H1016     1.0  0.42348  0.71433  0.91673  1.0000
  C   C1007     1.0  0.44752  0.85573  0.96326  1.0000
  S   S348      1.0  0.48472  0.83744  0.98043  1.0000
  H   H1017     1.0  0.42913  0.65963  0.97481  1.0000
  H   H1018     1.0  0.45943  0.89808  0.89827  1.0000
  C   C1008     1.0  0.49763  0.92102  0.76448  1.0000
  C   C1009     1.0  0.41313  0.80059  0.95877  1.0000
  H   H1019     1.0  0.48319  0.91759  0.74114  1.0000
  H   H1020     1.0  0.40366  0.81448  0.89415  1.0000
  C   C1010     1.0  0.43480  0.97870  0.74044  1.0000
  C   C1011     1.0  0.45197  0.90373  0.82989  1.0000
  C   C1012     1.0  0.45261  0.85344  0.94878  1.0000
  H   H1021     1.0  0.36480  0.66795  0.90241  1.0000
  H   H1022     1.0  0.48574  0.94316  0.75669  1.0000
  C   C1013     1.0  0.43348  0.83535  0.86977  1.0000
  C   C1014     1.0  0.42796  0.83325  0.85862  1.0000
  C   C1015     1.0  0.42642  0.81915  0.85875  1.0000
  C   C1016     1.0  0.43001  0.80717  0.87024  1.0000
  C   C1017     1.0  0.43543  0.80933  0.88144  1.0000
  C   C1018     1.0  0.43738  0.82332  0.88108  1.0000
  H   H1023     1.0  0.42491  0.84252  0.84984  1.0000
  H   H1024     1.0  0.42217  0.81757  0.85009  1.0000
  H   H1025     1.0  0.43801  0.80029  0.89048  1.0000
  H   H1026     1.0  0.44150  0.82484  0.88981  1.0000
  H   H1027     1.0  0.49799  0.87075  0.94074  1.0000
  H   H1028     1.0  0.33938  0.71354  0.93039  1.0000
  H   H1029     1.0  0.42795  0.88568  0.84646  1.0000
  H   H1030     1.0  0.48764  0.80513  0.95642  1.0000
  C   C1019     1.0  0.41965  0.77071  0.97266  1.0000
  C   C1020     1.0  0.45575  0.67068  0.98382  1.0000
  H   H1031     1.0  0.37668  0.66802  0.91419  1.0000
  H   H1032     1.0  0.41992  0.82712  0.92985  1.0000
  H   H1033     1.0  0.41905  0.69719  0.92838  1.0000
  C   C1021     1.0  0.45619  0.98690  0.73994  1.0000
  C   C1022     1.0  0.45114  0.93027  0.84599  1.0000
  C   C1023     1.0  0.44489  0.92132  0.85899  1.0000
  C   C1024     1.0  0.45400  0.90889  0.86630  1.0000
  C   C1025     1.0  0.46946  0.90559  0.86087  1.0000
  C   C1026     1.0  0.47575  0.91471  0.84801  1.0000
  C   C1027     1.0  0.46659  0.92693  0.84046  1.0000
  H   H1034     1.0  0.43295  0.92394  0.86333  1.0000
  H   H1035     1.0  0.44902  0.90214  0.87629  1.0000
  C   C1028     1.0  0.41263  0.95167  0.75068  1.0000
  C   C1029     1.0  0.42163  0.94871  0.76090  1.0000
  C   C1030     1.0  0.43440  0.93712  0.76045  1.0000
  H   H1036     1.0  0.44578  0.89271  0.91439  1.0000
  H   H1037     1.0  0.41038  0.81209  0.95330  1.0000
  C   C1031     1.0  0.43429  0.66410  0.98087  1.0000
  C   C1032     1.0  0.49865  0.73812  0.92339  1.0000
  H   H1038     1.0  0.44140  0.93480  0.76832  1.0000
  H   H1039     1.0  0.45222  0.75560  0.96814  1.0000
  C   C1033     1.0  0.46344  0.75177  0.97002  1.0000
  C   C1034     1.0  0.46649  0.80165  0.93483  1.0000
  C   C1035     1.0  0.44054  0.71324  0.95091  1.0000
  C   C1036     1.0  0.47124  0.76195  0.97038  1.0000
  C   C1037     1.0  0.47062  0.78330  0.92002  1.0000
  S   S349      1.0  0.45898  0.95794  0.76960  1.0000
  H   H1040     1.0  0.44782  0.91933  0.74965  1.0000
  C   C1038     1.0  0.45066  0.69291  0.93277  1.0000
  C   C1039     1.0  0.47437  0.87892  0.94173  1.0000
  H   H1041     1.0  0.49603  0.96725  0.77716  1.0000
  H   H1042     1.0  0.48991  0.70118  0.94323  1.0000
  C   C1040     1.0  0.40892  0.85621  0.90296  1.0000
  S   S350      1.0  0.49381  0.76911  0.97733  1.0000
  C   C1041     1.0  0.48140  0.74575  0.87741  1.0000
  H   H1043     1.0  0.32558  0.67214  0.94475  1.0000
  N   N86       1.0  0.46712  0.89073  0.91852  1.0000
  H   H1044     1.0  0.48772  0.91228  0.84381  1.0000
  C   C1042     1.0  0.46332  0.88603  0.93352  1.0000
  H   H1045     1.0  0.40277  0.96065  0.75098  1.0000
  H   H1046     1.0  0.48210  0.72231  0.88414  1.0000
  C   C1043     1.0  0.44920  0.66512  0.97579  1.0000
  N   N87       1.0  0.48809  0.75664  0.86801  1.0000
  H   H1047     1.0  0.48259  0.77315  0.88056  1.0000
  N   N88       1.0  0.44144  0.98661  0.74554  1.0000
  C   C1044     1.0  0.48425  0.80081  0.94885  1.0000
  H   H1048     1.0  0.47146  0.74848  0.88580  1.0000
  C   C1045     1.0  0.45533  0.89828  0.91022  1.0000
  C   C1046     1.0  0.48421  0.73161  0.97566  1.0000
  H   H1049     1.0  0.39965  0.83124  0.88098  1.0000
  H   H1050     1.0  0.48835  0.83473  0.95078  1.0000
  C   C1047     1.0  0.35286  0.69598  0.91928  1.0000
  C   C1048     1.0  0.48183  0.77204  0.86961  1.0000
  C   C1049     1.0  0.40553  0.79581  0.97327  1.0000
  C   C1050     1.0  0.37174  0.74152  0.97657  1.0000
  H   H1051     1.0  0.44346  0.91388  0.82822  1.0000
  H   H1052     1.0  0.47129  0.87497  0.95360  1.0000
  Fe  Fe175     1.0  0.37398  0.67395  0.97339  1.0000
  C   C1051     1.0  0.42828  0.70283  0.92214  1.0000
  H   H1053     1.0  0.40981  0.81451  0.91687  1.0000
  S   S351      1.0  0.43666  0.97202  0.79755  1.0000
  H   H1054     1.0  0.46998  0.68497  0.94261  1.0000
  H   H1055     1.0  0.39749  0.75676  0.96884  1.0000
  C   C1052     1.0  0.33077  0.69371  0.93851  1.0000
  H   H1056     1.0  0.48487  0.89267  0.89945  1.0000
  C   C1053     1.0  0.38523  0.76116  0.97181  1.0000
  H   H1057     1.0  0.45325  0.85267  0.98423  1.0000
  N   N89       1.0  0.35491  0.68161  0.91823  1.0000
  H   H1058     1.0  0.42298  0.97886  0.74452  1.0000
  H   H1059     1.0  0.48891  0.71985  0.97840  1.0000
  S   S352      1.0  0.45897  0.72384  0.97575  1.0000
  C   C1054     1.0  0.49210  0.74174  0.97594  1.0000
  C   C1055     1.0  0.41648  0.94319  0.73991  1.0000
  C   C1056     1.0  0.34525  0.67312  0.92723  1.0000
  C   C1057     1.0  0.49508  0.93429  0.75408  1.0000
  H   H1060     1.0  0.48872  0.88990  0.81666  1.0000
  C   C1058     1.0  0.48538  0.75687  0.97383  1.0000
  S   S353      1.0  0.49396  0.81722  0.90220  1.0000
  H   H1061     1.0  0.39702  0.80364  0.97903  1.0000
  C   C1059     1.0  0.36550  0.72990  0.98599  1.0000
  C   C1060     1.0  0.48739  0.73090  0.87654  1.0000
  C   C1061     1.0  0.36793  0.67493  0.90802  1.0000
  H   H1062     1.0  0.49571  0.77277  0.93054  1.0000
  H   H1063     1.0  0.42410  0.98942  0.76461  1.0000
  H   H1064     1.0  0.39306  0.70042  0.98016  1.0000
  H   H1065     1.0  0.49859  0.82470  0.87005  1.0000
  S   S354      1.0  0.49487  0.67204  0.98601  1.0000
  H   H1066     1.0  0.44431  0.66278  0.92957  1.0000
  C   C1062     1.0  0.40878  0.78081  0.98015  1.0000
  H   H1067     1.0  0.36071  0.72338  0.98171  1.0000
  H   H1068     1.0  0.46739  0.67130  0.97987  1.0000
  N   N90       1.0  0.37810  0.74948  0.98193  1.0000
  C   C1063     1.0  0.42910  0.93147  0.73959  1.0000
  Fe  Fe176     1.0  0.52276  0.05706  0.17116  1.0000
  S   S355      1.0  0.54751  0.05009  0.16280  1.0000
  C   C1064     1.0  0.56306  0.99698  0.20630  1.0000
  S   S356      1.0  0.55454  0.06260  0.11934  1.0000
  H   H1069     1.0  0.60104  0.02707  0.20296  1.0000
  H   H1070     1.0  0.57537  0.03423  0.10619  1.0000
  C   C1065     1.0  0.52519  0.99925  0.12900  1.0000
  C   C1066     1.0  0.55664  0.00893  0.19624  1.0000
  H   H1071     1.0  0.56357  0.05452  0.06949  1.0000
  S   S357      1.0  0.53999  0.04190  0.06917  1.0000
  C   C1067     1.0  0.52384  0.20794  0.02883  1.0000
  Fe  Fe177     1.0  0.54116  0.05326  0.14113  1.0000
  C   C1068     1.0  0.55616  0.15136  0.00575  1.0000
  S   S358      1.0  0.55681  0.00671  0.17872  1.0000
  H   H1072     1.0  0.54657  0.03547  0.21658  1.0000
  S   S359      1.0  0.51070  0.06879  0.18958  1.0000
  C   C1069     1.0  0.53073  0.19531  0.02298  1.0000
  C   C1070     1.0  0.55781  0.01282  0.22374  1.0000
  C   C1071     1.0  0.59117  0.02203  0.20743  1.0000
  N   N91       1.0  0.51485  0.20375  0.00539  1.0000
  C   C1072     1.0  0.57733  0.02223  0.12821  1.0000
  H   H1073     1.0  0.52116  0.10499  0.01372  1.0000
  H   H1074     1.0  0.53976  0.18711  0.02741  1.0000
  C   C1073     1.0  0.51571  0.01269  0.13179  1.0000
  S   S360      1.0  0.56073  0.16490  0.01166  1.0000
  C   C1074     1.0  0.54954  0.05810  0.10518  1.0000
  C   C1075     1.0  0.54334  0.04831  0.08307  1.0000
  C   C1076     1.0  0.53367  0.04761  0.09696  1.0000
  C   C1077     1.0  0.53682  0.05241  0.10805  1.0000
  H   H1075     1.0  0.52402  0.04298  0.09933  1.0000
  H   H1076     1.0  0.52945  0.05161  0.11884  1.0000
  C   C1078     1.0  0.55601  0.05405  0.08020  1.0000
  N   N92       1.0  0.59550  0.00632  0.20674  1.0000
  H   H1077     1.0  0.54253  0.07418  0.05651  1.0000
  H   H1078     1.0  0.52481  0.99961  0.18335  1.0000
  C   C1079     1.0  0.53645  0.09637  0.04378  1.0000
  S   S361      1.0  0.53896  0.02992  0.14480  1.0000
  H   H1079     1.0  0.52427  0.24730  0.00551  1.0000
  H   H1080     1.0  0.51145  0.99726  0.02870  1.0000
  N   N93       1.0  0.51824  0.99908  0.20630  1.0000
  C   C1080     1.0  0.55896  0.05919  0.09115  1.0000
  C   C1081     1.0  0.52266  0.07624  0.01724  1.0000
  S   S362      1.0  0.51673  0.06255  0.14901  1.0000
  H   H1081     1.0  0.53188  0.99868  0.11802  1.0000
  Fe  Fe178     1.0  0.51507  0.03890  0.15447  1.0000
  S   S363      1.0  0.50987  0.02580  0.06239  1.0000
  Fe  Fe179     1.0  0.51599  0.04150  0.07190  1.0000
  H   H1082     1.0  0.53223  0.07326  0.00817  1.0000
  Fe  Fe180     1.0  0.54319  0.02744  0.16714  1.0000
  H   H1083     1.0  0.56883  0.06353  0.08893  1.0000
  C   C1082     1.0  0.56102  0.13639  0.01204  1.0000
  C   C1083     1.0  0.59596  0.00231  0.19400  1.0000
  C   C1084     1.0  0.57321  0.02466  0.11477  1.0000
  C   C1085     1.0  0.56362  0.99890  0.22006  1.0000
  H   H1084     1.0  0.51527  0.02254  0.12305  1.0000
  H   H1085     1.0  0.54004  0.10151  0.05053  1.0000
  C   C1086     1.0  0.57428  0.00996  0.13929  1.0000
  H   H1086     1.0  0.50491  0.00542  0.19001  1.0000
  H   H1087     1.0  0.51577  0.00117  0.04424  1.0000
  C   C1087     1.0  0.50805  0.21616  0.01106  1.0000
  H   H1088     1.0  0.58238  0.03010  0.13016  1.0000
  H   H1089     1.0  0.56178  0.11382  0.01194  1.0000
  C   C1088     1.0  0.53334  0.07459  0.03823  1.0000
  N   N94       1.0  0.52713  0.08320  0.02660  1.0000
  C   C1089     1.0  0.56310  0.00280  0.12391  1.0000
  C   C1090     1.0  0.56594  0.01498  0.11259  1.0000
  S   S364      1.0  0.51906  0.03404  0.17717  1.0000
  C   C1091     1.0  0.55046  0.02272  0.20010  1.0000
  C   C1092     1.0  0.55116  0.02469  0.21376  1.0000
  C   C1093     1.0  0.55781  0.12539  0.00720  1.0000
  H   H1090     1.0  0.56748  0.13330  0.02051  1.0000
  H   H1091     1.0  0.51327  0.08386  0.01233  1.0000
  N   N95       1.0  0.56734  0.00039  0.13700  1.0000
  H   H1092     1.0  0.54527  0.03198  0.19252  1.0000
  C   C1094     1.0  0.52611  0.19342  0.01115  1.0000
  H   H1093     1.0  0.54380  0.16681  0.99002  1.0000
  C   C1095     1.0  0.56793  0.24368  0.99147  1.0000
  C   C1096     1.0  0.51530  0.99749  0.19272  1.0000
  H   H1094     1.0  0.57707  0.00838  0.14989  1.0000
  H   H1095     1.0  0.58233  0.02815  0.20108  1.0000
  H   H1096     1.0  0.55727  0.99538  0.12229  1.0000
  H   H1097     1.0  0.58631  0.02350  0.21900  1.0000
  H   H1098     1.0  0.53465  0.06265  0.04084  1.0000
  H   H1099     1.0  0.51153  0.99644  0.07693  1.0000
  C   C1097     1.0  0.53042  0.10502  0.03168  1.0000
  C   C1098     1.0  0.53791  0.08106  0.04711  1.0000
  C   C1099     1.0  0.52487  0.00242  0.23142  1.0000
  H   H1100     1.0  0.50335  0.02031  0.20628  1.0000
  H   H1101     1.0  0.50704  0.22843  0.02715  1.0000
  H   H1102     1.0  0.53169  0.18368  0.00656  1.0000
  H   H1103     1.0  0.51865  0.06610  0.02375  1.0000
  H   H1104     1.0  0.56224  0.01711  0.10234  1.0000
  C   C1100     1.0  0.52576  0.09821  0.02317  1.0000
  C   C1101     1.0  0.51129  0.01160  0.21178  1.0000
  C   C1102     1.0  0.50730  0.00393  0.03737  1.0000
  C   C1103     1.0  0.50721  0.01346  0.14602  1.0000
  C   C1104     1.0  0.51459  0.01351  0.22433  1.0000
  H   H1105     1.0  0.50604  0.01580  0.03163  1.0000
  C   C1105     1.0  0.59936  0.99577  0.21870  1.0000
  H   H1106     1.0  0.52747  0.20964  0.03786  1.0000
  H   H1107     1.0  0.59893  0.99896  0.22881  1.0000
  H   H1108     1.0  0.50111  0.00145  0.16826  1.0000
  C   C1106     1.0  0.51239  0.21843  0.02287  1.0000
  H   H1109     1.0  0.59265  0.01064  0.18461  1.0000
  H   H1110     1.0  0.52945  0.11692  0.02878  1.0000
  H   H1111     1.0  0.56358  0.23431  0.99842  1.0000
  C   C1107     1.0  0.50788  0.00081  0.15736  1.0000
  H   H1112     1.0  0.55131  0.99148  0.15443  1.0000
  S   S365      1.0  0.50269  0.06160  0.05943  1.0000
  C   C1108     1.0  0.54779  0.15531  0.99481  1.0000
  H   H1113     1.0  0.50229  0.06914  0.10082  1.0000
  C   C1109     1.0  0.54930  0.12935  0.99640  1.0000
  C   C1110     1.0  0.52097  0.24705  0.99570  1.0000
  H   H1114     1.0  0.50943  0.02366  0.22836  1.0000
  Fe  Fe181     1.0  0.56759  0.18329  0.99320  1.0000
  S   S366      1.0  0.55996  0.20733  0.99393  1.0000
  S   S367      1.0  0.54533  0.11551  0.99045  1.0000
  H   H1115     1.0  0.51275  0.19014  0.99216  1.0000
  H   H1116     1.0  0.54649  0.25903  0.99396  1.0000
  C   C1111     1.0  0.54419  0.14431  0.99029  1.0000
  S   S368      1.0  0.50536  0.13830  0.99106  1.0000
  C   C1112     1.0  0.50634  0.25350  0.99392  1.0000
  C   C1113     1.0  0.51066  0.20202  0.99250  1.0000
  H   H1117     1.0  0.49947  0.09515  0.10229  1.0000
  C   C1114     1.0  0.69058  0.99988  0.41968  1.0000
  Fe  Fe182     1.0  0.59804  0.04818  0.48743  1.0000
  N   N96       1.0  0.77232  0.00274  0.47859  1.0000
  H   H1118     1.0  0.92433  0.27959  0.48784  1.0000
  Fe  Fe183     1.0  0.56371  0.99467  0.25721  1.0000
  Fe  Fe184     1.0  0.61847  0.02590  0.46955  1.0000
  H   H1119     1.0  0.78144  0.12563  0.48638  1.0000
  H   H1120     1.0  0.83415  0.05907  0.46271  1.0000
  Fe  Fe185     1.0  0.67335  0.07592  0.46322  1.0000
  S   S369      1.0  0.66393  0.10028  0.46061  1.0000
  S   S370      1.0  0.66926  0.06195  0.45045  1.0000
  H   H1121     1.0  0.66791  0.01707  0.39182  1.0000
  Fe  Fe186     1.0  0.68732  0.07393  0.48866  1.0000
  S   S371      1.0  0.55933  0.01574  0.24041  1.0000
  S   S372      1.0  0.64360  0.99402  0.34015  1.0000
  Fe  Fe187     1.0  0.68615  0.10078  0.46409  1.0000
  S   S373      1.0  0.70091  0.11603  0.44994  1.0000
  S   S374      1.0  0.55580  0.99281  0.28181  1.0000
  S   S375      1.0  0.69615  0.07672  0.46429  1.0000
  Fe  Fe188     1.0  0.77819  0.09623  0.45651  1.0000
  S   S376      1.0  0.77793  0.07772  0.44687  1.0000
  S   S377      1.0  0.75929  0.10279  0.47475  1.0000
  Fe  Fe189     1.0  0.80699  0.10216  0.43588  1.0000
  S   S378      1.0  0.80924  0.08427  0.42386  1.0000
  S   S379      1.0  0.82340  0.11705  0.42886  1.0000
  Fe  Fe190     1.0  0.78452  0.09262  0.42512  1.0000
  S   S380      1.0  0.77076  0.09605  0.40840  1.0000
  Fe  Fe191     1.0  0.80240  0.07082  0.44662  1.0000
  S   S381      1.0  0.81198  0.04686  0.45559  1.0000
  S   S382      1.0  0.78287  0.11185  0.43482  1.0000
  S   S383      1.0  0.80209  0.08799  0.45855  1.0000
  Fe  Fe192     1.0  0.87167  0.17734  0.44308  1.0000
  S   S384      1.0  0.87685  0.18887  0.45780  1.0000
  S   S385      1.0  0.87648  0.18362  0.41833  1.0000
  Fe  Fe193     1.0  0.85872  0.15468  0.46814  1.0000
  H   H1122     1.0  0.72274  0.99999  0.39341  1.0000
  S   S386      1.0  0.84678  0.13573  0.47531  1.0000
  Fe  Fe194     1.0  0.85450  0.18629  0.47192  1.0000
  H   H1123     1.0  0.92324  0.31711  0.40996  1.0000
  Fe  Fe195     1.0  0.88516  0.16580  0.46997  1.0000
  H   H1124     1.0  0.66790  0.00764  0.45306  1.0000
  S   S387      1.0  0.84832  0.17694  0.45599  1.0000
  S   S388      1.0  0.88184  0.15431  0.45408  1.0000
  C   C1115     1.0  0.61280  0.99245  0.31923  1.0000
  H   H1125     1.0  0.96951  0.15107  0.48493  1.0000
  H   H1126     1.0  0.96445  0.26554  0.48123  1.0000
  C   C1116     1.0  0.63453  0.01883  0.40807  1.0000
  H   H1127     1.0  0.65736  0.06005  0.34385  1.0000
  C   C1117     1.0  0.67051  0.01423  0.45913  1.0000
  H   H1128     1.0  0.86484  0.21202  0.48270  1.0000
  H   H1129     1.0  0.68587  0.00746  0.36342  1.0000
  C   C1118     1.0  0.94147  0.18205  0.41285  1.0000
  N   N97       1.0  0.92455  0.24865  0.35964  1.0000
  H   H1130     1.0  0.93820  0.15123  0.43275  1.0000
  Fe  Fe196     1.0  0.71995  0.05608  0.38204  1.0000
  S   S389      1.0  0.74064  0.05172  0.36446  1.0000
  S   S390      1.0  0.70367  0.07754  0.38465  1.0000
  Fe  Fe197     1.0  0.72522  0.02479  0.39953  1.0000
  S   S391      1.0  0.74630  0.01718  0.38374  1.0000
  S   S392      1.0  0.71396  0.01109  0.41979  1.0000
  Fe  Fe198     1.0  0.75139  0.03864  0.38350  1.0000
  S   S393      1.0  0.77394  0.03904  0.38606  1.0000
  Fe  Fe199     1.0  0.73367  0.03072  0.36615  1.0000
  S   S394      1.0  0.73406  0.02288  0.34606  1.0000
  S   S395      1.0  0.73133  0.04492  0.40095  1.0000
  S   S396      1.0  0.71217  0.03629  0.38194  1.0000
  Fe  Fe200     1.0  0.90361  0.26296  0.41812  1.0000
  S   S397      1.0  0.91165  0.26215  0.39422  1.0000
  S   S398      1.0  0.88074  0.27466  0.42776  1.0000
  Fe  Fe201     1.0  0.93390  0.24807  0.42558  1.0000
  S   S399      1.0  0.94467  0.24597  0.40214  1.0000
  S   S400      1.0  0.94565  0.24138  0.44452  1.0000
  Fe  Fe202     1.0  0.93152  0.26916  0.39591  1.0000
  S   S401      1.0  0.94043  0.28782  0.37932  1.0000
  Fe  Fe203     1.0  0.92392  0.23912  0.40283  1.0000
  S   S402      1.0  0.92669  0.22012  0.39235  1.0000
  S   S403      1.0  0.92244  0.27185  0.41921  1.0000
  S   S404      1.0  0.91415  0.23932  0.42679  1.0000
  C   C1119     1.0  0.95812  0.29633  0.40886  1.0000
  C   C1120     1.0  0.95303  0.28903  0.40114  1.0000
  C   C1121     1.0  0.94804  0.29672  0.38819  1.0000
  C   C1122     1.0  0.95033  0.15536  0.44654  1.0000
  H   H1131     1.0  0.95302  0.27740  0.40522  1.0000
  C   C1123     1.0  0.60427  0.00698  0.31797  1.0000
  H   H1132     1.0  0.84819  0.26366  0.47986  1.0000
  Fe  Fe204     1.0  0.62202  0.01074  0.34372  1.0000
  H   H1133     1.0  0.94844  0.17067  0.41266  1.0000
  C   C1124     1.0  0.71712  0.02034  0.34414  1.0000
  C   C1125     1.0  0.70645  0.01518  0.35629  1.0000
  C   C1126     1.0  0.69355  0.01232  0.35410  1.0000
  H   H1134     1.0  0.90598  0.24563  0.35346  1.0000
  S   S405      1.0  0.96751  0.15267  0.43378  1.0000
  H   H1135     1.0  0.96511  0.21283  0.43519  1.0000
  S   S406      1.0  0.61392  0.99899  0.36680  1.0000
  C   C1127     1.0  0.67759  0.03072  0.47470  1.0000
  H   H1136     1.0  0.95916  0.15979  0.46275  1.0000
  H   H1137     1.0  0.99517  0.29452  0.38752  1.0000
  C   C1128     1.0  0.99302  0.22551  0.46499  1.0000
  C   C1129     1.0  0.89085  0.28751  0.46528  1.0000
  C   C1130     1.0  0.89842  0.27407  0.46121  1.0000
  C   C1131     1.0  0.89506  0.27019  0.44979  1.0000
  C   C1132     1.0  0.88400  0.27965  0.44248  1.0000
  C   C1133     1.0  0.87631  0.29312  0.44656  1.0000
  C   C1134     1.0  0.87986  0.29714  0.45792  1.0000
  H   H1138     1.0  0.90691  0.26660  0.46689  1.0000
  H   H1139     1.0  0.90103  0.25976  0.44673  1.0000
  H   H1140     1.0  0.86781  0.30048  0.44082  1.0000
  H   H1141     1.0  0.87393  0.30752  0.46119  1.0000
  H   H1142     1.0  0.93005  0.18092  0.41917  1.0000
  C   C1135     1.0  0.92258  0.15984  0.46649  1.0000
  C   C1136     1.0  0.93546  0.16101  0.47001  1.0000
  C   C1137     1.0  0.92357  0.15658  0.45291  1.0000
  H   H1143     1.0  0.96503  0.17642  0.48713  1.0000
  H   H1144     1.0  0.91371  0.15559  0.45014  1.0000
  C   C1138     1.0  0.89013  0.19409  0.41112  1.0000
  C   C1139     1.0  0.89086  0.20454  0.41838  1.0000
  C   C1140     1.0  0.90184  0.21286  0.41248  1.0000
  C   C1141     1.0  0.91228  0.21053  0.39947  1.0000
  C   C1142     1.0  0.91149  0.20015  0.39216  1.0000
  C   C1143     1.0  0.90032  0.19207  0.39789  1.0000
  H   H1145     1.0  0.88275  0.20640  0.42835  1.0000
  H   H1146     1.0  0.90220  0.22098  0.41805  1.0000
  H   H1147     1.0  0.91952  0.19831  0.38209  1.0000
  H   H1148     1.0  0.89971  0.18403  0.39223  1.0000
  N   N98       1.0  0.96358  0.22801  0.48057  1.0000
  S   S407      1.0  0.86299  0.16398  0.48529  1.0000
  H   H1149     1.0  0.79143  0.13920  0.43906  1.0000
  C   C1144     1.0  0.93880  0.19953  0.42831  1.0000
  C   C1145     1.0  0.60908  0.02692  0.42086  1.0000
  S   S408      1.0  0.98646  0.17052  0.45425  1.0000
  H   H1150     1.0  0.98089  0.26818  0.44762  1.0000
  C   C1146     1.0  0.71174  0.99818  0.39900  1.0000
  H   H1151     1.0  0.79093  0.00752  0.46134  1.0000
  C   C1147     1.0  0.94930  0.15886  0.46001  1.0000
  C   C1148     1.0  0.82981  0.12207  0.44194  1.0000
  C   C1149     1.0  0.83888  0.13241  0.43703  1.0000
  C   C1150     1.0  0.84431  0.13657  0.44713  1.0000
  C   C1151     1.0  0.84075  0.13036  0.46222  1.0000
  C   C1152     1.0  0.83175  0.11995  0.46712  1.0000
  C   C1153     1.0  0.82621  0.11590  0.45704  1.0000
  H   H1152     1.0  0.84170  0.13727  0.42537  1.0000
  H   H1153     1.0  0.85123  0.14462  0.44324  1.0000
  H   H1154     1.0  0.95440  0.26996  0.35662  1.0000
  H   H1155     1.0  0.81920  0.10798  0.46097  1.0000
  C   C1154     1.0  0.77195  0.08016  0.40214  1.0000
  C   C1155     1.0  0.76034  0.07957  0.39617  1.0000
  C   C1156     1.0  0.76087  0.06692  0.39133  1.0000
  C   C1157     1.0  0.77330  0.05502  0.39191  1.0000
  C   C1158     1.0  0.78518  0.05583  0.39737  1.0000
  C   C1159     1.0  0.78434  0.06822  0.40285  1.0000
  H   H1156     1.0  0.75096  0.08893  0.39521  1.0000
  H   H1157     1.0  0.75183  0.06655  0.38679  1.0000
  H   H1158     1.0  0.79502  0.04685  0.39743  1.0000
  H   H1159     1.0  0.79346  0.06873  0.40719  1.0000
  C   C1160     1.0  0.67798  0.06685  0.43199  1.0000
  C   C1161     1.0  0.68003  0.08126  0.42576  1.0000
  C   C1162     1.0  0.68720  0.08489  0.41087  1.0000
  C   C1163     1.0  0.69281  0.07392  0.40251  1.0000
  C   C1164     1.0  0.69068  0.05958  0.40888  1.0000
  C   C1165     1.0  0.68304  0.05611  0.42348  1.0000
  H   H1160     1.0  0.67609  0.08963  0.43234  1.0000
  H   H1161     1.0  0.68888  0.09599  0.40601  1.0000
  H   H1162     1.0  0.69498  0.05104  0.40266  1.0000
  H   H1163     1.0  0.68146  0.04497  0.42824  1.0000
  C   C1166     1.0  0.71681  0.11280  0.45723  1.0000
  C   C1167     1.0  0.71863  0.10212  0.47018  1.0000
  H   H1164     1.0  0.71056  0.02331  0.45504  1.0000
  C   C1168     1.0  0.74278  0.10697  0.46824  1.0000
  C   C1169     1.0  0.74112  0.11747  0.45514  1.0000
  C   C1170     1.0  0.72803  0.12056  0.44978  1.0000
  C   C1171     1.0  0.93249  0.28463  0.47918  1.0000
  H   H1165     1.0  0.85340  0.27448  0.46138  1.0000
  H   H1166     1.0  0.74980  0.12339  0.44926  1.0000
  H   H1167     1.0  0.72667  0.12887  0.43981  1.0000
  H   H1168     1.0  0.94031  0.23143  0.48127  1.0000
  C   C1172     1.0  0.61414  0.02682  0.43326  1.0000
  C   C1173     1.0  0.62942  0.02295  0.43310  1.0000
  C   C1174     1.0  0.79236  0.13991  0.44983  1.0000
  H   H1169     1.0  0.60613  0.02967  0.44294  1.0000
  S   S409      1.0  0.61180  0.00638  0.48663  1.0000
  H   H1170     1.0  0.82892  0.11515  0.47879  1.0000
  H   H1171     1.0  0.73278  0.09116  0.48586  1.0000
  H   H1172     1.0  0.76622  0.04248  0.48418  1.0000
  H   H1173     1.0  0.69981  0.02299  0.31666  1.0000
  H   H1174     1.0  0.82048  0.16089  0.45552  1.0000
  C   C1175     1.0  0.78177  0.01158  0.46986  1.0000
  C   C1176     1.0  0.78966  0.99520  0.37185  1.0000
  H   H1175     1.0  0.52782  0.00395  0.24095  1.0000
  C   C1177     1.0  0.75729  0.02901  0.43485  1.0000
  H   H1176     1.0  0.98197  0.31737  0.47584  1.0000
  C   C1178     1.0  0.82396  0.03148  0.41786  1.0000
  C   C1179     1.0  0.81960  0.04101  0.42775  1.0000
  C   C1180     1.0  0.81708  0.03522  0.44297  1.0000
  C   C1181     1.0  0.81860  0.01991  0.44827  1.0000
  H   H1177     1.0  0.81840  0.05279  0.42355  1.0000
  C   C1182     1.0  0.77190  0.01300  0.35231  1.0000
  N   N99       1.0  0.80266  0.14951  0.46445  1.0000
  C   C1183     1.0  0.59324  0.01168  0.30949  1.0000
  H   H1178     1.0  0.77848  0.12445  0.46200  1.0000
  H   H1179     1.0  0.98888  0.31414  0.38135  1.0000
  C   C1184     1.0  0.97330  0.23317  0.48494  1.0000
  H   H1180     1.0  0.78736  0.03289  0.46501  1.0000
  C   C1185     1.0  0.79569  0.14134  0.47709  1.0000
  H   H1181     1.0  0.96079  0.21694  0.46545  1.0000
  S   S410      1.0  0.73712  0.01015  0.46737  1.0000
  C   C1186     1.0  0.98811  0.23206  0.47721  1.0000
  C   C1187     1.0  0.72824  0.02317  0.47847  1.0000
  H   H1182     1.0  0.68523  0.00293  0.43017  1.0000
  C   C1188     1.0  0.81131  0.15946  0.46545  1.0000
  H   H1183     1.0  0.76398  0.04427  0.44324  1.0000
  H   H1184     1.0  0.77973  0.00793  0.41124  1.0000
  N   N100      1.0  0.63252  0.06777  0.43795  1.0000
  C   C1189     1.0  0.61869  0.06464  0.44359  1.0000
  C   C1190     1.0  0.63534  0.08015  0.44001  1.0000
  C   C1191     1.0  0.60710  0.07431  0.45109  1.0000
  C   C1192     1.0  0.62405  0.09000  0.44756  1.0000
  C   C1193     1.0  0.60981  0.08710  0.45300  1.0000
  C   C1194     1.0  0.64460  0.05737  0.43039  1.0000
  H   H1185     1.0  0.61661  0.05457  0.44236  1.0000
  H   H1186     1.0  0.59616  0.07180  0.45569  1.0000
  H   H1187     1.0  0.62641  0.09964  0.44944  1.0000
  H   H1188     1.0  0.60101  0.09446  0.45917  1.0000
  H   H1189     1.0  0.65086  0.04928  0.43854  1.0000
  H   H1190     1.0  0.66029  0.02407  0.36783  1.0000
  N   N101      1.0  0.76169  0.01900  0.42592  1.0000
  N   N102      1.0  0.94794  0.19005  0.41955  1.0000
  H   H1191     1.0  0.73704  0.04114  0.46308  1.0000
  C   C1195     1.0  0.78684  0.02226  0.42009  1.0000
  H   H1192     1.0  0.98153  0.19547  0.41938  1.0000
  C   C1196     1.0  0.72973  0.03785  0.47350  1.0000
  H   H1193     1.0  0.98697  0.21477  0.45130  1.0000
  H   H1194     1.0  0.99254  0.30673  0.39964  1.0000
  S   S411      1.0  0.70020  0.99676  0.48308  1.0000
  C   C1197     1.0  0.86858  0.24475  0.45414  1.0000
  C   C1198     1.0  0.84188  0.23675  0.45791  1.0000
  C   C1199     1.0  0.86835  0.23347  0.44768  1.0000
  C   C1200     1.0  0.85491  0.22939  0.44968  1.0000
  H   H1195     1.0  0.79699  0.14178  0.48780  1.0000
  Fe  Fe205     1.0  0.98743  0.15453  0.44077  1.0000
  H   H1196     1.0  0.87904  0.24793  0.45243  1.0000
  H   H1197     1.0  0.83145  0.23341  0.45982  1.0000
  H   H1198     1.0  0.87853  0.22793  0.44118  1.0000
  H   H1199     1.0  0.85459  0.22045  0.44500  1.0000
  S   S412      1.0  0.56978  0.01113  0.48748  1.0000
  C   C1201     1.0  0.78525  0.13151  0.46266  1.0000
  C   C1202     1.0  0.91971  0.31125  0.42156  1.0000
  N   N103      1.0  0.85338  0.08837  0.43371  1.0000
  C   C1203     1.0  0.85225  0.08729  0.44843  1.0000
  C   C1204     1.0  0.84794  0.07900  0.42921  1.0000
  C   C1205     1.0  0.84526  0.07681  0.45909  1.0000
  C   C1206     1.0  0.84111  0.06823  0.43957  1.0000
  C   C1207     1.0  0.83970  0.06721  0.45459  1.0000
  C   C1208     1.0  0.86089  0.09924  0.42257  1.0000
  H   H1200     1.0  0.85646  0.09479  0.45203  1.0000
  H   H1201     1.0  0.84872  0.07993  0.41755  1.0000
  H   H1202     1.0  0.90944  0.30485  0.45038  1.0000
  S   S413      1.0  0.96298  0.32043  0.41470  1.0000
  Fe  Fe206     1.0  0.58856  0.02053  0.48787  1.0000
  H   H1203     1.0  0.87212  0.09361  0.41719  1.0000
  H   H1204     1.0  0.85413  0.10515  0.41406  1.0000
  H   H1205     1.0  0.86216  0.10788  0.42751  1.0000
  H   H1206     1.0  0.82376  0.99859  0.44250  1.0000
  C   C1209     1.0  0.99642  0.30552  0.38794  1.0000
  H   H1207     1.0  0.90936  0.26978  0.35729  1.0000
  H   H1208     1.0  0.95532  0.30743  0.47334  1.0000
  H   H1209     1.0  0.72219  0.05987  0.47800  1.0000
  H   H1210     1.0  0.93049  0.27393  0.46300  1.0000
  S   S414      1.0  0.89504  0.29175  0.47991  1.0000
  H   H1211     1.0  0.93761  0.21515  0.44126  1.0000
  H   H1212     1.0  0.69113  0.01694  0.44397  1.0000
  S   S415      1.0  0.64741  0.99510  0.37308  1.0000
  C   C1210     1.0  0.80099  0.14898  0.45094  1.0000
  C   C1211     1.0  0.96926  0.26982  0.48767  1.0000
  C   C1212     1.0  0.95318  0.29751  0.45678  1.0000
  H   H1213     1.0  0.94182  0.22903  0.36248  1.0000
  C   C1213     1.0  0.96844  0.22112  0.46888  1.0000
  H   H1214     1.0  0.97033  0.18093  0.40951  1.0000
  H   H1215     1.0  0.77931  0.03124  0.35492  1.0000
  C   C1214     1.0  0.94612  0.26397  0.35713  1.0000
  H   H1216     1.0  0.75335  0.00887  0.41371  1.0000
  C   C1215     1.0  0.66879  0.02778  0.38465  1.0000
  H   H1217     1.0  0.96109  0.24247  0.36038  1.0000
  H   H1218     1.0  0.98596  0.27722  0.46913  1.0000
  H   H1219     1.0  0.81679  0.15486  0.47507  1.0000
  C   C1216     1.0  0.71469  0.02288  0.32990  1.0000
  C   C1217     1.0  0.76282  0.99180  0.35165  1.0000
  H   H1220     1.0  0.65652  0.04125  0.34580  1.0000
  C   C1218     1.0  0.66087  0.01730  0.47222  1.0000
  S   S416      1.0  0.83723  0.20378  0.48267  1.0000
  H   H1221     1.0  0.68026  0.03720  0.48083  1.0000
  C   C1219     1.0  0.78016  0.01936  0.35785  1.0000
  C   C1220     1.0  0.94620  0.28802  0.45388  1.0000
  C   C1221     1.0  0.77626  0.01557  0.41861  1.0000
  H   H1222     1.0  0.83241  0.25337  0.47095  1.0000
  H   H1223     1.0  0.75154  0.00065  0.43315  1.0000
  H   H1224     1.0  0.67805  0.03437  0.39923  1.0000
  C   C1222     1.0  0.66460  0.03177  0.37100  1.0000
  N   N104      1.0  0.73038  0.09735  0.42137  1.0000
  C   C1223     1.0  0.73687  0.09041  0.43323  1.0000
  C   C1224     1.0  0.72242  0.09035  0.41672  1.0000
  C   C1225     1.0  0.73538  0.07613  0.44088  1.0000
  C   C1226     1.0  0.72096  0.07594  0.42391  1.0000
  C   C1227     1.0  0.72738  0.06887  0.43613  1.0000
  C   C1228     1.0  0.73123  0.11266  0.41405  1.0000
  H   H1225     1.0  0.74320  0.09595  0.43690  1.0000
  H   H1226     1.0  0.71717  0.09587  0.40738  1.0000
  H   H1227     1.0  0.74021  0.07094  0.45052  1.0000
  H   H1228     1.0  0.71474  0.07041  0.42010  1.0000
  H   H1229     1.0  0.72590  0.05790  0.44203  1.0000
  H   H1230     1.0  0.73298  0.11422  0.40188  1.0000
  H   H1231     1.0  0.72073  0.12033  0.41828  1.0000
  H   H1232     1.0  0.74081  0.11560  0.41615  1.0000
  C   C1229     1.0  0.78903  0.01038  0.36774  1.0000
  H   H1233     1.0  0.64019  0.05111  0.42506  1.0000
  C   C1230     1.0  0.95359  0.31904  0.39057  1.0000
  C   C1231     1.0  0.77977  0.02595  0.47181  1.0000
  H   H1234     1.0  0.91759  0.22876  0.36153  1.0000
  C   C1232     1.0  0.78692  0.13219  0.47638  1.0000
  H   H1235     1.0  0.71013  0.09597  0.47594  1.0000
  C   C1233     1.0  0.61921  0.02281  0.40829  1.0000
  H   H1236     1.0  0.82610  0.03597  0.40607  1.0000
  C   C1234     1.0  0.82544  0.01618  0.42315  1.0000
  H   H1237     1.0  0.81682  0.01537  0.46005  1.0000
  H   H1238     1.0  0.65245  0.06328  0.42162  1.0000
  H   H1239     1.0  0.90930  0.31808  0.46910  1.0000
  H   H1240     1.0  0.90551  0.24096  0.37314  1.0000
  C   C1235     1.0  0.70160  0.02069  0.32777  1.0000
  H   H1241     1.0  0.80663  0.15531  0.44088  1.0000
  C   C1236     1.0  0.98320  0.21988  0.46082  1.0000
  H   H1242     1.0  0.98527  0.25854  0.40542  1.0000
  C   C1237     1.0  0.76792  0.03132  0.48261  1.0000
  C   C1238     1.0  0.82253  0.01041  0.43838  1.0000
  C   C1239     1.0  0.93889  0.24104  0.36045  1.0000
  C   C1240     1.0  0.63965  0.01908  0.42041  1.0000
  C   C1241     1.0  0.66438  0.02559  0.48010  1.0000
  H   H1243     1.0  0.92846  0.28360  0.35502  1.0000
  H   H1244     1.0  0.56220  0.99471  0.32067  1.0000
  H   H1245     1.0  0.59720  0.02993  0.42112  1.0000
  C   C1242     1.0  0.68322  0.99344  0.41319  1.0000
  N   N105      1.0  0.77255  0.99810  0.35646  1.0000
  H   H1246     1.0  0.64641  0.08242  0.43593  1.0000
  C   C1243     1.0  0.67251  0.05432  0.36531  1.0000
  H   H1247     1.0  0.58855  0.99760  0.35426  1.0000
  H   H1248     1.0  0.96139  0.30252  0.44808  1.0000
  S   S417      1.0  0.63184  0.02545  0.35117  1.0000
  C   C1244     1.0  0.96620  0.25507  0.44695  1.0000
  Fe  Fe207     1.0  0.65298  0.00755  0.34957  1.0000
  C   C1245     1.0  0.94861  0.31167  0.38273  1.0000
  H   H1249     1.0  0.92677  0.20083  0.43071  1.0000
  H   H1250     1.0  0.74577  0.03158  0.44071  1.0000
  H   H1251     1.0  0.94481  0.31764  0.37266  1.0000
  H   H1252     1.0  0.96052  0.25456  0.45838  1.0000
  N   N106      1.0  0.93938  0.29394  0.48197  1.0000
  H   H1253     1.0  0.64232  0.01533  0.39851  1.0000
  S   S418      1.0  0.67491  0.01294  0.33584  1.0000
  C   C1246     1.0  0.94986  0.24857  0.35927  1.0000
  H   H1254     1.0  0.84407  0.07624  0.47076  1.0000
  S   S419      1.0  0.83076  0.00451  0.41055  1.0000
  H   H1255     1.0  0.54471  0.04552  0.48712  1.0000
  C   C1247     1.0  0.70481  0.00231  0.41251  1.0000
  H   H1256     1.0  0.80392  0.17048  0.46656  1.0000
  C   C1248     1.0  0.69094  0.01547  0.33980  1.0000
  H   H1257     1.0  0.93467  0.16363  0.48046  1.0000
  H   H1258     1.0  0.94892  0.28559  0.44297  1.0000
  H   H1259     1.0  0.70069  0.04039  0.44512  1.0000
  H   H1260     1.0  0.76468  0.02013  0.34498  1.0000
  C   C1249     1.0  0.92080  0.26376  0.35750  1.0000
  H   H1261     1.0  0.73930  0.01801  0.42691  1.0000
  H   H1262     1.0  0.96595  0.24407  0.41643  1.0000
  C   C1250     1.0  0.68360  0.01952  0.45405  1.0000
  H   H1263     1.0  0.65071  0.01320  0.47615  1.0000
  S   S420      1.0  0.59500  0.03921  0.46960  1.0000
  C   C1251     1.0  0.85619  0.26363  0.46901  1.0000
  C   C1252     1.0  0.72136  0.04842  0.48194  1.0000
  C   C1253     1.0  0.97770  0.26278  0.44087  1.0000
  H   H1264     1.0  0.94080  0.18805  0.40136  1.0000
  H   H1265     1.0  0.86742  0.26228  0.47111  1.0000
  C   C1254     1.0  0.91284  0.24063  0.36198  1.0000
  H   H1266     1.0  0.70839  0.01297  0.36729  1.0000
  N   N107      1.0  0.68698  0.02767  0.46179  1.0000
  H   H1267     1.0  0.96210  0.29030  0.41878  1.0000
  C   C1255     1.0  0.75093  0.01128  0.42489  1.0000
  C   C1256     1.0  0.59041  0.00175  0.30275  1.0000
  C   C1257     1.0  0.95812  0.31138  0.40379  1.0000
  H   H1268     1.0  0.79044  0.03821  0.42988  1.0000
  C   C1258     1.0  0.76754  0.03607  0.43645  1.0000
  H   H1269     1.0  0.67415  0.04641  0.33837  1.0000
  S   S421      1.0  0.61204  0.02229  0.39348  1.0000
  H   H1270     1.0  0.79828  0.01977  0.41391  1.0000
  H   H1271     1.0  0.99581  0.23605  0.48080  1.0000
  H   H1272     1.0  0.67448  0.06450  0.35763  1.0000
  H   H1273     1.0  0.63779  0.08078  0.48119  1.0000
  C   C1259     1.0  0.78242  0.03260  0.42904  1.0000
  C   C1260     1.0  0.93586  0.28145  0.46513  1.0000
  H   H1274     1.0  0.70247  0.03910  0.46356  1.0000
  C   C1261     1.0  0.96154  0.24881  0.43795  1.0000
  C   C1262     1.0  0.98006  0.25750  0.41704  1.0000
  C   C1263     1.0  0.67631  0.05092  0.37909  1.0000
  H   H1275     1.0  0.61997  0.06770  0.47913  1.0000
  C   C1264     1.0  0.70089  0.03290  0.45614  1.0000
  H   H1276     1.0  0.72290  0.02675  0.32044  1.0000
  C   C1265     1.0  0.93153  0.27165  0.35618  1.0000
  H   H1277     1.0  0.68108  0.05847  0.38199  1.0000
  C   C1266     1.0  0.94962  0.30035  0.47101  1.0000
  C   C1267     1.0  0.67457  0.03747  0.38875  1.0000
  S   S422      1.0  0.62213  0.03651  0.48608  1.0000
  C   C1268     1.0  0.96889  0.24954  0.42320  1.0000
  C   C1269     1.0  0.96950  0.19669  0.42194  1.0000
  C   C1270     1.0  0.96029  0.20636  0.43090  1.0000
  H   H1278     1.0  0.90831  0.30959  0.42291  1.0000
  S   S423      1.0  0.60638  0.01915  0.32771  1.0000
  S   S424      1.0  0.90546  0.16220  0.47932  1.0000
  C   C1271     1.0  0.98428  0.26432  0.42579  1.0000
  C   C1272     1.0  0.96309  0.18858  0.41632  1.0000
  C   C1273     1.0  0.93745  0.15417  0.44305  1.0000
  N   N108      1.0  0.66665  0.04483  0.36147  1.0000
  H   H1279     1.0  0.65150  0.01599  0.42023  1.0000
  C   C1274     1.0  0.66349  0.04834  0.34666  1.0000
  H   H1280     1.0  0.58667  0.02295  0.30838  1.0000
  C   C1275     1.0  0.94485  0.20771  0.43423  1.0000
  S   S425      1.0  0.63588  0.02301  0.44858  1.0000
  H   H1281     1.0  0.67227  0.99143  0.41877  1.0000
  H   H1282     1.0  0.58166  0.00537  0.29654  1.0000
  C   C1276     1.0  0.91407  0.32200  0.45753  1.0000
  C   C1277     1.0  0.98155  0.27627  0.48085  1.0000
  H   H1283     1.0  0.56913  0.00234  0.34005  1.0000
  N   N109      1.0  0.85581  0.25168  0.46249  1.0000
  Fe  Fe208     1.0  0.62562  0.01206  0.37410  1.0000
  H   H1284     1.0  0.75165  0.99302  0.35926  1.0000
  C   C1278     1.0  0.91406  0.31458  0.44690  1.0000
  C   C1279     1.0  0.73149  0.09936  0.47579  1.0000
  C   C1280     1.0  0.84253  0.24795  0.46426  1.0000
  H   H1285     1.0  0.61949  0.99523  0.43085  1.0000
  H   H1286     1.0  0.92751  0.30023  0.42327  1.0000
  S   S426      1.0  0.66565  0.07030  0.48761  1.0000
  H   H1287     1.0  0.83674  0.06083  0.43600  1.0000
  H   H1288     1.0  0.99592  0.31824  0.48477  1.0000
  H   H1289     1.0  0.79516  0.01525  0.37242  1.0000
  H   H1290     1.0  0.76126  0.99761  0.34031  1.0000
  N   N110      1.0  0.91983  0.31947  0.43229  1.0000
  S   S427      1.0  0.99685  0.27572  0.41734  1.0000
  Fe  Fe209     1.0  0.65753  0.09480  0.48534  1.0000
  C   C1281     1.0  0.94804  0.22935  0.48880  1.0000
  Fe  Fe210     1.0  0.72520  0.99156  0.47735  1.0000
  C   C1282     1.0  0.61614  0.07608  0.48567  1.0000
  C   C1283     1.0  0.85536  0.21828  0.48928  1.0000
  S   S428      1.0  0.67864  0.09803  0.48878  1.0000
  C   C1284     1.0  0.62631  0.08346  0.48690  1.0000
  C   C1285     1.0  0.57628  0.99134  0.34205  1.0000
  C   C1286     1.0  0.76057  0.00797  0.48910  1.0000
  C   C1287     1.0  0.98828  0.28115  0.48928  1.0000
  S   S429      1.0  0.51056  0.02498  0.59837  1.0000
  H   H1291     1.0  0.71803  0.00762  0.49630  1.0000
  S   S430      1.0  0.58929  0.03080  0.50571  1.0000
  H   H1292     1.0  0.90351  0.28635  0.53013  1.0000
  H   H1293     1.0  0.52609  0.08923  0.56704  1.0000
  C   C1288     1.0  0.65747  0.03728  0.52186  1.0000
  C   C1289     1.0  0.92858  0.25747  0.54816  1.0000
  C   C1290     1.0  0.93904  0.19807  0.54544  1.0000
  Fe  Fe211     1.0  0.54193  0.05817  0.66713  1.0000
  C   C1291     1.0  0.88618  0.19439  0.51063  1.0000
  C   C1292     1.0  0.49980  0.02641  0.63674  1.0000
  C   C1293     1.0  0.56512  0.05479  0.59212  1.0000
  H   H1294     1.0  0.58933  0.01892  0.67738  1.0000
  C   C1294     1.0  0.50332  0.02959  0.64853  1.0000
  H   H1295     1.0  0.96965  0.23822  0.49443  1.0000
  C   C1295     1.0  0.92304  0.20907  0.52285  1.0000
  C   C1296     1.0  0.59610  0.09132  0.50023  1.0000
  H   H1296     1.0  0.53734  0.09620  0.58380  1.0000
  C   C1297     1.0  0.52741  0.06500  0.60628  1.0000
  Fe  Fe212     1.0  0.51022  0.07289  0.66415  1.0000
  H   H1297     1.0  0.65696  0.02799  0.49031  1.0000
  C   C1298     1.0  0.52639  0.08247  0.57801  1.0000
  N   N111      1.0  0.55322  0.03436  0.60355  1.0000
  C   C1299     1.0  0.96550  0.17236  0.49869  1.0000
  S   S431      1.0  0.91511  0.31413  0.56041  1.0000
  C   C1300     1.0  0.98063  0.27962  0.54387  1.0000
  S   S432      1.0  0.95057  0.31082  0.52756  1.0000
  S   S433      1.0  0.88848  0.26429  0.55228  1.0000
  H   H1298     1.0  0.50404  0.11041  0.69817  1.0000
  S   S434      1.0  0.95263  0.19165  0.55615  1.0000
  S   S435      1.0  0.63441  0.10281  0.49796  1.0000
  H   H1299     1.0  0.92374  0.22689  0.56917  1.0000
  C   C1301     1.0  0.93467  0.21331  0.54020  1.0000
  H   H1300     1.0  0.57779  0.02158  0.65651  1.0000
  H   H1301     1.0  0.93819  0.22090  0.54423  1.0000
  H   H1302     1.0  0.85537  0.20755  0.54813  1.0000
  C   C1302     1.0  0.90762  0.30084  0.55715  1.0000
  C   C1303     1.0  0.90017  0.29204  0.56940  1.0000
  C   C1304     1.0  0.89421  0.28111  0.56759  1.0000
  C   C1305     1.0  0.89535  0.27900  0.55349  1.0000
  C   C1306     1.0  0.90257  0.28796  0.54106  1.0000
  C   C1307     1.0  0.90886  0.29883  0.54291  1.0000
  H   H1303     1.0  0.89911  0.29357  0.58039  1.0000
  H   H1304     1.0  0.88864  0.27426  0.57720  1.0000
  H   H1305     1.0  0.91452  0.30567  0.53338  1.0000
  S   S436      1.0  0.52137  0.02314  0.65185  1.0000
  C   C1308     1.0  0.50772  0.01964  0.70594  1.0000
  Fe  Fe213     1.0  0.51165  0.04080  0.57636  1.0000
  S   S437      1.0  0.51208  0.01307  0.53876  1.0000
  Fe  Fe214     1.0  0.99250  0.21394  0.52010  1.0000
  H   H1306     1.0  0.62285  0.05747  0.51734  1.0000
  H   H1307     1.0  0.94526  0.29887  0.49964  1.0000
  H   H1308     1.0  0.56204  0.01417  0.64623  1.0000
  C   C1309     1.0  0.66435  0.99394  0.51192  1.0000
  H   H1309     1.0  0.75271  0.00119  0.49560  1.0000
  H   H1310     1.0  0.84295  0.21813  0.53571  1.0000
  H   H1311     1.0  0.54072  0.01999  0.53614  1.0000
  H   H1312     1.0  0.55972  0.03538  0.71286  1.0000
  H   H1313     1.0  0.56322  0.01951  0.51594  1.0000
  H   H1314     1.0  0.54606  0.02782  0.62697  1.0000
  C   C1310     1.0  0.92686  0.19377  0.52843  1.0000
  C   C1311     1.0  0.51426  0.05420  0.53160  1.0000
  H   H1315     1.0  0.92521  0.24630  0.58490  1.0000
  H   H1316     1.0  0.50770  0.01841  0.63076  1.0000
  C   C1312     1.0  0.58680  0.99148  0.54207  1.0000
  C   C1313     1.0  0.83076  0.23471  0.50602  1.0000
  H   H1317     1.0  0.52828  0.05786  0.61694  1.0000
  C   C1314     1.0  0.93614  0.26876  0.54541  1.0000
  H   H1318     1.0  0.70361  0.02606  0.51118  1.0000
  H   H1319     1.0  0.94434  0.23873  0.49458  1.0000
  H   H1320     1.0  0.88392  0.20992  0.52381  1.0000
  N   N112      1.0  0.65419  0.06257  0.52337  1.0000
  C   C1315     1.0  0.50852  0.02934  0.71397  1.0000
  H   H1321     1.0  0.91339  0.23732  0.55508  1.0000
  C   C1316     1.0  0.85591  0.19608  0.52219  1.0000
  H   H1322     1.0  0.84401  0.19688  0.52640  1.0000
  H   H1323     1.0  0.94537  0.28087  0.55513  1.0000
  S   S438      1.0  0.54972  0.99561  0.59096  1.0000
  N   N113      1.0  0.86312  0.20438  0.52611  1.0000
  C   C1317     1.0  0.55524  0.04461  0.57755  1.0000
  C   C1318     1.0  0.55401  0.01197  0.50200  1.0000
  C   C1319     1.0  0.98267  0.26414  0.54779  1.0000
  C   C1320     1.0  0.54089  0.01662  0.52632  1.0000
  C   C1321     1.0  0.52843  0.01259  0.52492  1.0000
  H   H1324     1.0  0.63577  0.00246  0.54756  1.0000
  C   C1322     1.0  0.60099  0.08011  0.49218  1.0000
  H   H1325     1.0  0.54183  0.00440  0.49083  1.0000
  C   C1323     1.0  0.56400  0.00258  0.65264  1.0000
  Fe  Fe215     1.0  0.88800  0.26062  0.53036  1.0000
  H   H1326     1.0  0.55991  0.06712  0.51194  1.0000
  C   C1324     1.0  0.54622  0.01218  0.69413  1.0000
  C   C1325     1.0  0.86365  0.18683  0.51229  1.0000
  C   C1326     1.0  0.96766  0.17672  0.52145  1.0000
  S   S439      1.0  0.53020  0.02539  0.56448  1.0000
  C   C1327     1.0  0.52988  0.04978  0.50772  1.0000
  Fe  Fe216     1.0  0.89170  0.27190  0.49786  1.0000
  S   S440      1.0  0.61957  0.00837  0.52500  1.0000
  H   H1327     1.0  0.52170  0.04446  0.50666  1.0000
  S   S441      1.0  0.99170  0.20430  0.54414  1.0000
  C   C1328     1.0  0.75823  0.02231  0.49131  1.0000
  H   H1328     1.0  0.88494  0.17905  0.49860  1.0000
  Fe  Fe217     1.0  0.61314  0.01829  0.50309  1.0000
  H   H1329     1.0  0.66279  0.99406  0.54762  1.0000
  H   H1330     1.0  0.98711  0.28464  0.51077  1.0000
  C   C1329     1.0  0.64903  0.99892  0.51182  1.0000
  S   S442      1.0  0.99805  0.23610  0.55819  1.0000
  H   H1331     1.0  0.53713  0.02181  0.61648  1.0000
  C   C1330     1.0  0.84500  0.23687  0.50451  1.0000
  C   C1331     1.0  0.96998  0.27393  0.51116  1.0000
  H   H1332     1.0  0.53680  0.06572  0.53141  1.0000
  C   C1332     1.0  0.63873  0.00194  0.52470  1.0000
  C   C1333     1.0  0.50219  0.07946  0.69704  1.0000
  H   H1333     1.0  0.59483  0.99443  0.54623  1.0000
  C   C1334     1.0  0.85484  0.21383  0.53669  1.0000
  C   C1335     1.0  0.71098  0.02938  0.50074  1.0000
  C   C1336     1.0  0.87887  0.18604  0.50645  1.0000
  C   C1337     1.0  0.71182  0.04418  0.49546  1.0000
  H   H1334     1.0  0.51630  0.00959  0.70516  1.0000
  C   C1338     1.0  0.92654  0.21882  0.52907  1.0000
  H   H1335     1.0  0.90608  0.24006  0.57348  1.0000
  H   H1336     1.0  0.54515  0.02630  0.58942  1.0000
  C   C1339     1.0  0.87812  0.20348  0.52063  1.0000
  C   C1340     1.0  0.99081  0.28642  0.54603  1.0000
  H   H1337     1.0  0.55275  0.04484  0.56714  1.0000
  C   C1341     1.0  0.50290  0.07887  0.71153  1.0000
  H   H1338     1.0  0.97497  0.25888  0.54586  1.0000
  S   S443      1.0  0.55723  0.05152  0.68293  1.0000
  H   H1339     1.0  0.58945  0.99632  0.69751  1.0000
  H   H1340     1.0  0.92559  0.25526  0.53900  1.0000
  C   C1342     1.0  0.55428  0.03415  0.69300  1.0000
  C   C1343     1.0  0.93462  0.18827  0.54000  1.0000
  C   C1344     1.0  0.63410  0.05480  0.51927  1.0000
  S   S444      1.0  0.88261  0.23964  0.52962  1.0000
  C   C1345     1.0  0.55086  0.03421  0.59021  1.0000
  S   S445      1.0  0.88707  0.25200  0.49357  1.0000
  H   H1341     1.0  0.85778  0.18061  0.50888  1.0000
  H   H1342     1.0  0.85946  0.22377  0.53445  1.0000
  C   C1346     1.0  0.65899  0.99541  0.53762  1.0000
  C   C1347     1.0  0.55605  0.02882  0.70762  1.0000
  H   H1343     1.0  0.60263  0.10680  0.50841  1.0000
  Fe  Fe218     1.0  0.96446  0.23822  0.52548  1.0000
  S   S446      1.0  0.54798  0.04926  0.64648  1.0000
  H   H1344     1.0  0.58438  0.09456  0.50522  1.0000
  H   H1345     1.0  0.92374  0.23059  0.52476  1.0000
  H   H1346     1.0  0.93796  0.17646  0.54407  1.0000
  C   C1348     1.0  0.96670  0.18199  0.50666  1.0000
  H   H1347     1.0  0.55283  0.99984  0.65721  1.0000
  C   C1349     1.0  0.92828  0.25256  0.57377  1.0000
  C   C1350     1.0  0.91665  0.23783  0.56515  1.0000
  C   C1351     1.0  0.52881  0.00826  0.51208  1.0000
  H   H1348     1.0  0.93883  0.27524  0.53431  1.0000
  C   C1352     1.0  0.55245  0.01525  0.71562  1.0000
  H   H1349     1.0  0.55341  0.01128  0.72705  1.0000
  C   C1353     1.0  0.55365  0.01642  0.51480  1.0000
  C   C1354     1.0  0.54949  0.02572  0.68631  1.0000
  N   N114      1.0  0.92467  0.24960  0.56223  1.0000
  H   H1350     1.0  0.93862  0.26620  0.58055  1.0000
  C   C1355     1.0  0.56230  0.05504  0.57857  1.0000
  S   S447      1.0  0.98899  0.30569  0.54053  1.0000
  H   H1351     1.0  0.65700  0.07473  0.53738  1.0000
  H   H1352     1.0  0.54847  0.02953  0.67494  1.0000
  N   N115      1.0  0.52775  0.05538  0.51996  1.0000
  C   C1356     1.0  0.53838  0.06146  0.52161  1.0000
  C   C1357     1.0  0.64297  0.04049  0.51954  1.0000
  H   H1353     1.0  0.57017  0.06315  0.59316  1.0000
  S   S448      1.0  0.95083  0.25736  0.51206  1.0000
  C   C1358     1.0  0.54736  0.00701  0.70884  1.0000
  H   H1354     1.0  0.54282  0.00580  0.68867  1.0000
  H   H1355     1.0  0.67428  0.04600  0.52544  1.0000
  S   S449      1.0  0.51370  0.06445  0.57020  1.0000
  H   H1356     1.0  0.96725  0.19335  0.50136  1.0000
  H   H1357     1.0  0.92404  0.18622  0.52369  1.0000
  H   H1358     1.0  0.56529  0.06351  0.56897  1.0000
  H   H1359     1.0  0.66445  0.02615  0.52217  1.0000
  Fe  Fe219     1.0  0.52561  0.04364  0.65472  1.0000
  S   S450      1.0  0.51112  0.99959  0.58078  1.0000
  C   C1359     1.0  0.52068  0.06969  0.58260  1.0000
  C   C1360     1.0  0.53277  0.08641  0.58748  1.0000
  H   H1360     1.0  0.86845  0.23031  0.49480  1.0000
  C   C1361     1.0  0.56056  0.04425  0.60456  1.0000
  S   S451      1.0  0.90823  0.25880  0.51190  1.0000
  Fe  Fe220     1.0  0.51218  0.01754  0.56033  1.0000
  C   C1362     1.0  0.66293  0.04853  0.52379  1.0000
  H   H1361     1.0  0.82115  0.24101  0.51246  1.0000
  S   S452      1.0  0.58799  0.07163  0.48986  1.0000
  S   S453      1.0  0.98879  0.23740  0.52176  1.0000
  H   H1362     1.0  0.96580  0.27267  0.52294  1.0000
  S   S454      1.0  0.96114  0.23114  0.55012  1.0000
  H   H1363     1.0  0.51660  0.05124  0.60050  1.0000
  C   C1363     1.0  0.85738  0.22868  0.49607  1.0000
  C   C1364     1.0  0.55146  0.06226  0.51070  1.0000
  S   S455      1.0  0.91454  0.21620  0.50768  1.0000
  H   H1364     1.0  0.56235  0.04451  0.61512  1.0000
  H   H1365     1.0  0.63855  0.03193  0.51802  1.0000
  Fe  Fe221     1.0  0.90134  0.23908  0.50978  1.0000
  C   C1365     1.0  0.52107  0.06104  0.59681  1.0000
  S   S456      1.0  0.54204  0.08234  0.61306  1.0000
  S   S457      1.0  0.69967  0.05747  0.50498  1.0000
  C   C1366     1.0  0.93587  0.26377  0.57139  1.0000
  S   S458      1.0  0.53130  0.08131  0.65675  1.0000
  C   C1367     1.0  0.93976  0.27195  0.55711  1.0000
  S   S459      1.0  0.51321  0.06528  0.64350  1.0000
  H   H1366     1.0  0.55633  0.01292  0.61744  1.0000
  S   S460      1.0  0.87180  0.27492  0.51639  1.0000
  C   C1368     1.0  0.66934  0.99224  0.52483  1.0000
  Fe  Fe222     1.0  0.96706  0.31852  0.53464  1.0000
  C   C1369     1.0  0.53329  0.07769  0.60164  1.0000
  H   H1367     1.0  0.65529  0.08525  0.51897  1.0000
  H   H1368     1.0  0.67233  0.07225  0.52170  1.0000
  C   C1370     1.0  0.96724  0.16202  0.52816  1.0000
  C   C1371     1.0  0.63986  0.06571  0.52141  1.0000
  Fe  Fe223     1.0  0.86865  0.25371  0.51344  1.0000
  Fe  Fe224     1.0  0.53520  0.07158  0.63686  1.0000
  S   S461      1.0  0.96849  0.21556  0.52148  1.0000
  Fe  Fe225     1.0  0.96701  0.20811  0.54592  1.0000
  C   C1372     1.0  0.98210  0.28058  0.50429  1.0000
  C   C1373     1.0  0.65997  0.07424  0.52552  1.0000
  H   H1369     1.0  0.97141  0.28624  0.53889  1.0000
  Fe  Fe226     1.0  0.98601  0.22812  0.54605  1.0000
  C   C1374     1.0  0.54803  0.02369  0.61675  1.0000
  H   H1370     1.0  0.63288  0.07680  0.52125  1.0000
  H   H1371     1.0  0.93097  0.28862  0.50534  1.0000
  S   S462      1.0  0.52039  0.05058  0.67615  1.0000
  H   H1372     1.0  0.51243  0.07734  0.68888  1.0000
  Fe  Fe227     1.0  0.52765  0.00891  0.58594  1.0000
  H   H1373     1.0  0.51367  0.07614  0.71450  1.0000
  N   N116      1.0  0.57158  0.00070  0.66460  1.0000
  H   H1374     1.0  0.94682  0.21902  0.49720  1.0000
  S   S463      1.0  0.84645  0.24985  0.51358  1.0000
  H   H1375     1.0  0.81762  0.22294  0.50060  1.0000
  C   C1375     1.0  0.54160  0.00786  0.50070  1.0000
  C   C1376     1.0  0.96375  0.26831  0.50291  1.0000
  H   H1376     1.0  0.74874  0.02649  0.49951  1.0000
  N   N117      1.0  0.96544  0.15784  0.50527  1.0000
  H   H1377     1.0  0.89801  0.19392  0.50609  1.0000
  C   C1377     1.0  0.99475  0.25548  0.55412  1.0000
  H   H1378     1.0  0.96597  0.14120  0.52509  1.0000
  H   H1379     1.0  0.56385  0.05709  0.48969  1.0000
  C   C1378     1.0  0.82876  0.22444  0.49932  1.0000
  H   H1380     1.0  0.96791  0.15795  0.53969  1.0000
  H   H1381     1.0  0.51506  0.04252  0.53769  1.0000
  H   H1382     1.0  0.97023  0.13635  0.50064  1.0000
  H   H1383     1.0  0.92673  0.30809  0.49665  1.0000
  C   C1379     1.0  0.96610  0.15267  0.51986  1.0000
  H   H1384     1.0  0.96883  0.18394  0.52775  1.0000
  C   C1380     1.0  0.60640  0.09828  0.50199  1.0000
  H   H1385     1.0  0.64515  0.00005  0.50194  1.0000
  C   C1381     1.0  0.55368  0.05666  0.49815  1.0000
  H   H1386     1.0  0.50416  0.05780  0.52676  1.0000
  C   C1382     1.0  0.62153  0.09439  0.49529  1.0000
  H   H1387     1.0  0.51263  0.06116  0.53969  1.0000
  C   C1383     1.0  0.54286  0.05034  0.49663  1.0000
  H   H1388     1.0  0.51787  0.02696  0.71929  1.0000
  H   H1389     1.0  0.51921  0.00514  0.51093  1.0000
  C   C1384     1.0  0.84098  0.21612  0.49102  1.0000
  H   H1390     1.0  0.57072  0.99503  0.64510  1.0000
  C   C1385     1.0  0.64371  0.00013  0.53758  1.0000
  C   C1386     1.0  0.57819  0.01147  0.66496  1.0000
  H   H1391     1.0  0.95223  0.14814  0.49779  1.0000
  C   C1387     1.0  0.96417  0.14789  0.49678  1.0000
  C   C1388     1.0  0.58481  0.01000  0.67674  1.0000
  C   C1389     1.0  0.93534  0.29755  0.49661  1.0000
  H   H1392     1.0  0.98515  0.32227  0.56521  1.0000
  C   C1390     1.0  0.58483  0.99735  0.68806  1.0000
  H   H1393     1.0  0.52785  0.99604  0.61923  1.0000
  C   C1391     1.0  0.71909  0.01893  0.49221  1.0000
  Fe  Fe228     1.0  0.93328  0.32337  0.54327  1.0000
  H   H1394     1.0  0.99922  0.32371  0.57362  1.0000
  C   C1392     1.0  0.56804  0.24487  0.93117  1.0000
  H   H1395     1.0  0.51503  0.19359  0.88904  1.0000
  C   C1393     1.0  0.58851  0.14584  0.97767  1.0000
  S   S464      1.0  0.51476  0.11115  0.97293  1.0000
  Fe  Fe229     1.0  0.55846  0.23872  0.87778  1.0000
  S   S465      1.0  0.55606  0.22757  0.90156  1.0000
  S   S466      1.0  0.57819  0.24905  0.86836  1.0000
  Fe  Fe230     1.0  0.53024  0.23173  0.87497  1.0000
  S   S467      1.0  0.52510  0.22067  0.89887  1.0000
  C   C1394     1.0  0.52651  0.23801  0.97310  1.0000
  Fe  Fe231     1.0  0.53214  0.23928  0.90299  1.0000
  S   S468      1.0  0.52030  0.25389  0.91901  1.0000
  Fe  Fe232     1.0  0.54949  0.21006  0.89494  1.0000
  S   S469      1.0  0.55720  0.18550  0.90219  1.0000
  S   S470      1.0  0.53483  0.25156  0.87939  1.0000
  S   S471      1.0  0.55442  0.22001  0.87074  1.0000
  C   C1395     1.0  0.51829  0.28223  0.95596  1.0000
  S   S472      1.0  0.56238  0.18657  0.97116  1.0000
  H   H1396     1.0  0.61589  0.19806  0.91599  1.0000
  H   H1397     1.0  0.51727  0.17814  0.92334  1.0000
  S   S473      1.0  0.58034  0.21333  0.95968  1.0000
  C   C1396     1.0  0.57573  0.11915  0.96462  1.0000
  C   C1397     1.0  0.58318  0.24184  0.98504  1.0000
  N   N118      1.0  0.50802  0.28707  0.96764  1.0000
  Fe  Fe233     1.0  0.58612  0.18869  0.96243  1.0000
  S   S474      1.0  0.59951  0.17577  0.94520  1.0000
  H   H1398     1.0  0.51254  0.09954  0.87571  1.0000
  C   C1398     1.0  0.58256  0.12493  0.97223  1.0000
  Fe  Fe234     1.0  0.52619  0.12533  0.97897  1.0000
  H   H1399     1.0  0.50569  0.17138  0.89082  1.0000
  H   H1400     1.0  0.59754  0.20975  0.91910  1.0000
  C   C1399     1.0  0.59708  0.21365  0.88848  1.0000
  C   C1400     1.0  0.59347  0.25555  0.92624  1.0000
  H   H1401     1.0  0.51461  0.28944  0.85423  1.0000
  S   S475      1.0  0.51818  0.17282  0.84436  1.0000
  H   H1402     1.0  0.59499  0.22530  0.88862  1.0000
  H   H1403     1.0  0.58133  0.15627  0.98082  1.0000
  C   C1401     1.0  0.52898  0.19195  0.85275  1.0000
  C   C1402     1.0  0.52812  0.20528  0.85654  1.0000
  H   H1404     1.0  0.58711  0.21827  0.86960  1.0000
  N   N119      1.0  0.56919  0.25268  0.94059  1.0000
  H   H1405     1.0  0.53945  0.18376  0.85181  1.0000
  H   H1406     1.0  0.53791  0.20728  0.85849  1.0000
  C   C1403     1.0  0.56807  0.18190  0.91518  1.0000
  C   C1404     1.0  0.56599  0.19236  0.92354  1.0000
  C   C1405     1.0  0.57568  0.19039  0.93279  1.0000
  C   C1406     1.0  0.58743  0.17788  0.93376  1.0000
  C   C1407     1.0  0.58913  0.16699  0.92595  1.0000
  C   C1408     1.0  0.57932  0.16896  0.91671  1.0000
  H   H1407     1.0  0.55681  0.20194  0.92300  1.0000
  H   H1408     1.0  0.57415  0.19870  0.93900  1.0000
  H   H1409     1.0  0.59804  0.15713  0.92698  1.0000
  H   H1410     1.0  0.58076  0.16074  0.91038  1.0000
  C   C1409     1.0  0.56379  0.26987  0.97999  1.0000
  C   C1410     1.0  0.51449  0.18829  0.92735  1.0000
  Fe  Fe235     1.0  0.57751  0.32460  0.93741  1.0000
  H   H1411     1.0  0.50886  0.24541  0.96102  1.0000
  H   H1412     1.0  0.58354  0.27760  0.96741  1.0000
  C   C1411     1.0  0.56607  0.14399  0.95210  1.0000
  Fe  Fe236     1.0  0.58365  0.20852  0.98284  1.0000
  C   C1412     1.0  0.50379  0.28056  0.90681  1.0000
  H   H1413     1.0  0.50961  0.28584  0.91134  1.0000
  H   H1414     1.0  0.60623  0.27758  0.88034  1.0000
  H   H1415     1.0  0.55761  0.26334  0.89205  1.0000
  H   H1416     1.0  0.52192  0.27420  0.93605  1.0000
  S   S476      1.0  0.59179  0.18393  0.98454  1.0000
  C   C1413     1.0  0.58411  0.27982  0.89414  1.0000
  N   N120      1.0  0.60396  0.20295  0.89868  1.0000
  H   H1417     1.0  0.55808  0.24071  0.93300  1.0000
  C   C1414     1.0  0.59555  0.27460  0.88289  1.0000
  C   C1415     1.0  0.51326  0.29010  0.97923  1.0000
  C   C1416     1.0  0.51642  0.18920  0.85009  1.0000
  Fe  Fe237     1.0  0.50453  0.15387  0.96915  1.0000
  C   C1417     1.0  0.59252  0.20976  0.87770  1.0000
  C   C1418     1.0  0.59480  0.19486  0.87753  1.0000
  C   C1419     1.0  0.56819  0.26649  0.88947  1.0000
  C   C1420     1.0  0.57981  0.26128  0.87823  1.0000
  Fe  Fe238     1.0  0.57348  0.30278  0.92149  1.0000
  H   H1418     1.0  0.55594  0.26601  0.95591  1.0000
  H   H1419     1.0  0.58266  0.26403  0.94582  1.0000
  H   H1420     1.0  0.60308  0.26030  0.92414  1.0000
  Fe  Fe239     1.0  0.55713  0.21077  0.97079  1.0000
  C   C1421     1.0  0.58175  0.25783  0.93837  1.0000
  C   C1422     1.0  0.60776  0.20718  0.91048  1.0000
  H   H1421     1.0  0.56145  0.27981  0.90612  1.0000
  C   C1423     1.0  0.50520  0.27251  0.85203  1.0000
  C   C1424     1.0  0.57031  0.27589  0.89738  1.0000
  S   S477      1.0  0.51871  0.12617  0.92920  1.0000
  C   C1425     1.0  0.59230  0.24786  0.91640  1.0000
  S   S478      1.0  0.58853  0.28992  0.90449  1.0000
  H   H1422     1.0  0.55961  0.24625  0.96321  1.0000
  H   H1423     1.0  0.51786  0.13773  0.89866  1.0000
  C   C1426     1.0  0.57955  0.24242  0.91889  1.0000
  C   C1427     1.0  0.55713  0.25508  0.95345  1.0000
  H   H1424     1.0  0.61197  0.17980  0.90646  1.0000
  H   H1425     1.0  0.60237  0.26159  0.86625  1.0000
  S   S479      1.0  0.55010  0.30251  0.93446  1.0000
  C   C1428     1.0  0.52503  0.19184  0.93258  1.0000
  H   H1426     1.0  0.53010  0.28107  0.95518  1.0000
  C   C1429     1.0  0.50333  0.22720  0.94440  1.0000
  H   H1427     1.0  0.60100  0.24672  0.90655  1.0000
  C   C1430     1.0  0.51235  0.24573  0.97066  1.0000
  C   C1431     1.0  0.59339  0.26548  0.87494  1.0000
  Fe  Fe240     1.0  0.51288  0.12926  0.95257  1.0000
  H   H1428     1.0  0.59085  0.19171  0.86952  1.0000
  H   H1429     1.0  0.51206  0.10858  0.89884  1.0000
  H   H1430     1.0  0.57640  0.10733  0.96695  1.0000
  H   H1431     1.0  0.52135  0.28017  0.98374  1.0000
  H   H1432     1.0  0.51349  0.23071  0.94432  1.0000
  C   C1432     1.0  0.51476  0.21609  0.85736  1.0000
  C   C1433     1.0  0.60202  0.18404  0.88780  1.0000
  H   H1433     1.0  0.50606  0.09133  0.90700  1.0000
  C   C1434     1.0  0.50293  0.19989  0.85125  1.0000
  C   C1435     1.0  0.50314  0.19445  0.89047  1.0000
  H   H1434     1.0  0.50717  0.18698  0.81198  1.0000
  H   H1435     1.0  0.54624  0.25491  0.95153  1.0000
  C   C1436     1.0  0.57307  0.14937  0.95988  1.0000
  H   H1436     1.0  0.52939  0.20731  0.94237  1.0000
  Fe  Fe241     1.0  0.55919  0.30161  0.95396  1.0000
  H   H1437     1.0  0.61289  0.21695  0.90601  1.0000
  C   C1437     1.0  0.60660  0.18831  0.89834  1.0000
  S   S480      1.0  0.52652  0.14205  0.95761  1.0000
  C   C1438     1.0  0.50659  0.26510  0.90951  1.0000
  S   S481      1.0  0.58285  0.29979  0.94136  1.0000
  H   H1438     1.0  0.51722  0.20774  0.98221  1.0000
  H   H1439     1.0  0.60370  0.17241  0.88786  1.0000
  S   S482      1.0  0.55108  0.28668  0.97531  1.0000
  H   H1440     1.0  0.57832  0.23687  0.91107  1.0000
  N   N121      1.0  0.58104  0.13989  0.96990  1.0000
  C   C1439     1.0  0.50028  0.19763  0.92775  1.0000
  C   C1440     1.0  0.56735  0.12877  0.95459  1.0000
  H   H1441     1.0  0.52481  0.19948  0.81573  1.0000
  C   C1441     1.0  0.50367  0.13312  0.92022  1.0000
  H   H1442     1.0  0.51897  0.29947  0.97464  1.0000
  C   C1442     1.0  0.57913  0.26817  0.97401  1.0000
  C   C1443     1.0  0.50216  0.21337  0.85472  1.0000
  H   H1443     1.0  0.56165  0.12445  0.94893  1.0000
  H   H1444     1.0  0.55962  0.15159  0.94430  1.0000
  C   C1444     1.0  0.50545  0.28709  0.85131  1.0000
  C   C1445     1.0  0.50650  0.13789  0.90483  1.0000
  S   S483      1.0  0.53789  0.22619  0.96139  1.0000
  H   H1445     1.0  0.57202  0.16118  0.95793  1.0000
  H   H1446     1.0  0.50214  0.24642  0.90467  1.0000
  C   C1446     1.0  0.50054  0.10383  0.87826  1.0000
  H   H1447     1.0  0.51427  0.26351  0.85534  1.0000
  H   H1448     1.0  0.53601  0.18453  0.93249  1.0000
  S   S484      1.0  0.51359  0.23301  0.86169  1.0000
  C   C1447     1.0  0.58884  0.25417  0.97660  1.0000
  C   C1448     1.0  0.51374  0.27845  0.94510  1.0000
  N   N122      1.0  0.50732  0.21393  0.93825  1.0000
  C   C1449     1.0  0.50220  0.10348  0.90328  1.0000
  C   C1450     1.0  0.51333  0.20541  0.81548  1.0000
  H   H1449     1.0  0.51875  0.32283  0.95212  1.0000
  C   C1451     1.0  0.50337  0.19832  0.81349  1.0000
  H   H1450     1.0  0.59918  0.14823  0.97041  1.0000
  C   C1452     1.0  0.52121  0.20473  0.93813  1.0000
  H   H1451     1.0  0.51580  0.22488  0.82044  1.0000
  H   H1452     1.0  0.54228  0.23426  0.98670  1.0000
  C   C1453     1.0  0.53107  0.23933  0.98523  1.0000
  S   S485      1.0  0.59499  0.22407  0.98678  1.0000
  H   H1453     1.0  0.58875  0.11738  0.98026  1.0000
  H   H1454     1.0  0.53759  0.14743  0.98196  1.0000
  H   H1455     1.0  0.60067  0.25283  0.97178  1.0000
  C   C1454     1.0  0.50815  0.21977  0.81814  1.0000
  C   C1455     1.0  0.50232  0.25347  0.98104  1.0000
  H   H1456     1.0  0.59077  0.13805  0.98811  1.0000
  H   H1457     1.0  0.50403  0.29283  0.98864  1.0000
  C   C1456     1.0  0.49985  0.25833  0.90283  1.0000
  C   C1457     1.0  0.55828  0.25769  0.98907  1.0000
  Fe  Fe242     1.0  0.65924  0.52154  0.02593  1.0000
  C   C1458     1.0  0.62632  0.53809  0.02078  1.0000
  C   C1459     1.0  0.61120  0.48229  0.01287  1.0000
  Fe  Fe243     1.0  0.68051  0.49731  0.04220  1.0000
  S   S486      1.0  0.68849  0.48480  0.02409  1.0000
  S   S487      1.0  0.68850  0.48866  0.06336  1.0000
  C   C1460     1.0  0.82780  0.48984  0.10632  1.0000
  Fe  Fe244     1.0  0.66439  0.49027  0.02284  1.0000
  S   S488      1.0  0.65388  0.47342  0.02020  1.0000
  C   C1461     1.0  0.81686  0.47567  0.09602  1.0000
  S   S489      1.0  0.65625  0.50063  0.04253  1.0000
  N   N123      1.0  0.97056  0.43056  0.16348  1.0000
  S   S490      1.0  0.70146  0.41355  0.02254  1.0000
  C   C1462     1.0  0.93631  0.58406  0.21805  1.0000
  H   H1458     1.0  0.95607  0.56973  0.19415  1.0000
  S   S491      1.0  0.72420  0.38116  0.02908  1.0000
  Fe  Fe245     1.0  0.70233  0.39030  0.02173  1.0000
  S   S492      1.0  0.68334  0.37892  0.03176  1.0000
  Fe  Fe246     1.0  0.72464  0.40489  0.02686  1.0000
  S   S493      1.0  0.73295  0.41343  0.04212  1.0000
  H   H1459     1.0  0.67269  0.45078  0.03799  1.0000
  C   C1463     1.0  0.97157  0.44611  0.15965  1.0000
  C   C1464     1.0  0.91493  0.48056  0.13245  1.0000
  H   H1460     1.0  0.94001  0.59253  0.20887  1.0000
  H   H1461     1.0  0.62112  0.55888  0.00553  1.0000
  C   C1465     1.0  0.71726  0.52527  0.03949  1.0000
  C   C1466     1.0  0.68292  0.45089  0.04077  1.0000
  S   S494      1.0  0.95690  0.52329  0.08076  1.0000
  H   H1462     1.0  0.73183  0.34935  0.00562  1.0000
  H   H1463     1.0  0.71577  0.51794  0.01516  1.0000
  C   C1467     1.0  0.72689  0.51862  0.01522  1.0000
  Fe  Fe247     1.0  0.91647  0.55086  0.20095  1.0000
  S   S495      1.0  0.93717  0.55438  0.18421  1.0000
  C   C1468     1.0  0.96329  0.54721  0.10114  1.0000
  Fe  Fe248     1.0  0.90348  0.54323  0.17895  1.0000
  S   S496      1.0  0.92315  0.54631  0.16039  1.0000
  S   S497      1.0  0.88639  0.53242  0.17671  1.0000
  Fe  Fe249     1.0  0.93676  0.53430  0.17731  1.0000
  S   S498      1.0  0.95747  0.51804  0.16990  1.0000
  Fe  Fe250     1.0  0.92193  0.56625  0.16863  1.0000
  S   S499      1.0  0.92894  0.58587  0.15244  1.0000
  S   S500      1.0  0.91734  0.52947  0.19536  1.0000
  S   S501      1.0  0.90078  0.56454  0.18597  1.0000
  H   H1464     1.0  0.99421  0.42197  0.15981  1.0000
  N   N124      1.0  0.89599  0.49553  0.05529  1.0000
  Fe  Fe251     1.0  0.73390  0.38507  0.00487  1.0000
  S   S502      1.0  0.80922  0.47186  0.01502  1.0000
  Fe  Fe252     1.0  0.77309  0.48594  0.04196  1.0000
  S   S503      1.0  0.78807  0.46362  0.04792  1.0000
  S   S504      1.0  0.73577  0.40809  0.00301  1.0000
  Fe  Fe253     1.0  0.80671  0.47566  0.03770  1.0000
  S   S505      1.0  0.82590  0.46924  0.04949  1.0000
  Fe  Fe254     1.0  0.78920  0.46186  0.02486  1.0000
  S   S506      1.0  0.78891  0.44246  0.01628  1.0000
  H   H1465     1.0  0.86338  0.46027  0.22249  1.0000
  S   S507      1.0  0.77237  0.48308  0.01990  1.0000
  Fe  Fe255     1.0  0.88982  0.49340  0.09654  1.0000
  S   S508      1.0  0.88139  0.51650  0.08467  1.0000
  S   S509      1.0  0.91351  0.48130  0.08955  1.0000
  Fe  Fe256     1.0  0.86080  0.49312  0.11905  1.0000
  S   S510      1.0  0.85026  0.51647  0.10927  1.0000
  S   S511      1.0  0.84617  0.48029  0.13728  1.0000
  Fe  Fe257     1.0  0.86017  0.50934  0.08761  1.0000
  S   S512      1.0  0.84690  0.51628  0.06960  1.0000
  Fe  Fe258     1.0  0.87254  0.52112  0.10743  1.0000
  S   S513      1.0  0.87768  0.54077  0.11181  1.0000
  S   S514      1.0  0.86944  0.48569  0.09751  1.0000
  S   S515      1.0  0.88221  0.49833  0.11911  1.0000
  Fe  Fe259     1.0  0.91938  0.45805  0.18367  1.0000
  H   H1466     1.0  0.93705  0.49213  0.11417  1.0000
  S   S516      1.0  0.93402  0.46639  0.16230  1.0000
  Fe  Fe260     1.0  0.91897  0.43072  0.20790  1.0000
  S   S517      1.0  0.89648  0.44046  0.22053  1.0000
  S   S518      1.0  0.93135  0.40737  0.21551  1.0000
  Fe  Fe261     1.0  0.89026  0.44919  0.19841  1.0000
  S   S519      1.0  0.86742  0.44855  0.19718  1.0000
  H   H1467     1.0  0.62860  0.51653  0.03525  1.0000
  S   S520      1.0  0.91189  0.43732  0.18623  1.0000
  S   S521      1.0  0.92811  0.45070  0.20447  1.0000
  C   C1469     1.0  0.99042  0.51697  0.14692  1.0000
  H   H1468     1.0  0.80722  0.46428  0.08575  1.0000
  H   H1469     1.0  0.56643  0.55147  0.00544  1.0000
  C   C1470     1.0  0.96673  0.56462  0.19798  1.0000
  H   H1470     1.0  0.68670  0.35717  0.00055  1.0000
  C   C1471     1.0  0.95082  0.40422  0.20964  1.0000
  C   C1472     1.0  0.86813  0.49467  0.21578  1.0000
  C   C1473     1.0  0.97510  0.38712  0.20637  1.0000
  H   H1471     1.0  0.97584  0.60649  0.22108  1.0000
  C   C1474     1.0  0.97345  0.41350  0.20093  1.0000
  C   C1475     1.0  0.95788  0.41607  0.20454  1.0000
  Fe  Fe262     1.0  0.68900  0.50697  0.00919  1.0000
  H   H1472     1.0  0.96558  0.45232  0.15061  1.0000
  C   C1476     1.0  0.67245  0.37882  0.01971  1.0000
  H   H1473     1.0  0.95144  0.42726  0.20352  1.0000
  H   H1474     1.0  0.90006  0.47481  0.04952  1.0000
  C   C1477     1.0  0.85255  0.47186  0.15376  1.0000
  C   C1478     1.0  0.84329  0.46439  0.16555  1.0000
  C   C1479     1.0  0.84800  0.45732  0.17879  1.0000
  C   C1480     1.0  0.86204  0.45761  0.18034  1.0000
  C   C1481     1.0  0.87134  0.46520  0.16865  1.0000
  C   C1482     1.0  0.86658  0.47235  0.15533  1.0000
  H   H1475     1.0  0.83245  0.46398  0.16440  1.0000
  H   H1476     1.0  0.84078  0.45147  0.18781  1.0000
  H   H1477     1.0  0.88222  0.46545  0.16981  1.0000
  H   H1478     1.0  0.87380  0.47804  0.14627  1.0000
  C   C1483     1.0  0.83221  0.48253  0.05424  1.0000
  C   C1484     1.0  0.82694  0.49774  0.04934  1.0000
  C   C1485     1.0  0.83175  0.50798  0.05393  1.0000
  C   C1486     1.0  0.84168  0.50310  0.06356  1.0000
  C   C1487     1.0  0.84710  0.48789  0.06829  1.0000
  C   C1488     1.0  0.84245  0.47766  0.06357  1.0000
  H   H1479     1.0  0.81914  0.50161  0.04207  1.0000
  H   H1480     1.0  0.82758  0.51973  0.05014  1.0000
  H   H1481     1.0  0.85478  0.48397  0.07565  1.0000
  H   H1482     1.0  0.84659  0.46591  0.06736  1.0000
  C   C1489     1.0  0.95187  0.50286  0.16832  1.0000
  C   C1490     1.0  0.94047  0.49747  0.17916  1.0000
  C   C1491     1.0  0.93516  0.48603  0.17747  1.0000
  C   C1492     1.0  0.94119  0.48008  0.16482  1.0000
  C   C1493     1.0  0.95272  0.48536  0.15400  1.0000
  C   C1494     1.0  0.95808  0.49673  0.15579  1.0000
  C   C1495     1.0  0.99222  0.51104  0.13470  1.0000
  H   H1483     1.0  0.92620  0.48205  0.18582  1.0000
  H   H1484     1.0  0.95727  0.48090  0.14412  1.0000
  H   H1485     1.0  0.96654  0.50118  0.14720  1.0000
  C   C1496     1.0  0.88445  0.53470  0.15851  1.0000
  C   C1497     1.0  0.88850  0.54658  0.14742  1.0000
  C   C1498     1.0  0.88638  0.54841  0.13308  1.0000
  C   C1499     1.0  0.88041  0.53826  0.12976  1.0000
  C   C1500     1.0  0.87661  0.52626  0.14081  1.0000
  C   C1501     1.0  0.87868  0.52446  0.15512  1.0000
  H   H1486     1.0  0.89278  0.55463  0.15001  1.0000
  H   H1487     1.0  0.88909  0.55783  0.12461  1.0000
  H   H1488     1.0  0.87172  0.51857  0.13845  1.0000
  H   H1489     1.0  0.99330  0.60187  0.17618  1.0000
  C   C1502     1.0  0.94748  0.58422  0.15333  1.0000
  C   C1503     1.0  0.95727  0.57024  0.15521  1.0000
  C   C1504     1.0  0.97122  0.56855  0.15840  1.0000
  C   C1505     1.0  0.97548  0.58091  0.15943  1.0000
  C   C1506     1.0  0.96612  0.59500  0.15658  1.0000
  C   C1507     1.0  0.95211  0.59666  0.15354  1.0000
  H   H1490     1.0  0.95391  0.56063  0.15461  1.0000
  C   C1508     1.0  0.95676  0.42727  0.16786  1.0000
  H   H1491     1.0  0.96945  0.60462  0.15722  1.0000
  H   H1492     1.0  0.94461  0.60748  0.15204  1.0000
  C   C1509     1.0  0.85514  0.48516  0.20399  1.0000
  S   S522      1.0  0.75360  0.49542  0.05835  1.0000
  C   C1510     1.0  0.92866  0.57457  0.21589  1.0000
  C   C1511     1.0  0.92402  0.56343  0.22758  1.0000
  C   C1512     1.0  0.70925  0.45091  0.04769  1.0000
  C   C1513     1.0  0.70975  0.44748  0.03437  1.0000
  N   N125      1.0  0.96427  0.55378  0.21193  1.0000
  H   H1493     1.0  0.92640  0.57588  0.20513  1.0000
  C   C1514     1.0  0.94512  0.51137  0.08319  1.0000
  C   C1515     1.0  0.95087  0.49691  0.08089  1.0000
  C   C1516     1.0  0.94114  0.48765  0.08286  1.0000
  C   C1517     1.0  0.92569  0.49276  0.08735  1.0000
  C   C1518     1.0  0.92002  0.50709  0.09001  1.0000
  C   C1519     1.0  0.92969  0.51643  0.08775  1.0000
  H   H1494     1.0  0.96276  0.49291  0.07740  1.0000
  H   H1495     1.0  0.94559  0.47653  0.08089  1.0000
  H   H1496     1.0  0.90820  0.51103  0.09392  1.0000
  H   H1497     1.0  0.92517  0.52755  0.08970  1.0000
  C   C1520     1.0  0.93176  0.49758  0.12338  1.0000
  H   H1498     1.0  0.91396  0.51607  0.15687  1.0000
  H   H1499     1.0  0.56041  0.53480  0.01579  1.0000
  H   H1500     1.0  0.91826  0.51864  0.05174  1.0000
  C   C1521     1.0  0.69128  0.44718  0.99069  1.0000
  H   H1501     1.0  0.80454  0.39963  0.01204  1.0000
  C   C1522     1.0  0.74746  0.42304  0.03414  1.0000
  C   C1523     1.0  0.75063  0.43151  0.04218  1.0000
  C   C1524     1.0  0.76288  0.43829  0.03643  1.0000
  C   C1525     1.0  0.77216  0.43634  0.02275  1.0000
  C   C1526     1.0  0.76881  0.42816  0.01461  1.0000
  C   C1527     1.0  0.75654  0.42155  0.02028  1.0000
  H   H1502     1.0  0.74384  0.43255  0.05303  1.0000
  H   H1503     1.0  0.76547  0.44452  0.04285  1.0000
  H   H1504     1.0  0.77605  0.42648  0.00410  1.0000
  H   H1505     1.0  0.75481  0.41455  0.01427  1.0000
  S   S523      1.0  0.98868  0.50607  0.10018  1.0000
  C   C1528     1.0  0.73268  0.48836  0.04803  1.0000
  C   C1529     1.0  0.66424  0.36788  0.02367  1.0000
  H   H1506     1.0  0.90313  0.47368  0.06758  1.0000
  C   C1530     1.0  0.72349  0.35365  0.99885  1.0000
  H   H1507     1.0  0.93866  0.56911  0.13068  1.0000
  H   H1508     1.0  0.66421  0.36014  0.03421  1.0000
  C   C1531     1.0  0.99503  0.60002  0.18727  1.0000
  H   H1509     1.0  0.83603  0.47920  0.10879  1.0000
  C   C1532     1.0  0.66725  0.46373  0.00774  1.0000
  C   C1533     1.0  0.66792  0.44880  0.00886  1.0000
  H   H1510     1.0  0.93580  0.50208  0.18889  1.0000
  S   S524      1.0  0.64129  0.54232  0.02482  1.0000
  C   C1534     1.0  0.61210  0.52014  0.02252  1.0000
  C   C1535     1.0  0.65655  0.36648  0.01382  1.0000
  H   H1511     1.0  0.65955  0.44347  0.01682  1.0000
  H   H1512     1.0  0.71183  0.53724  0.03724  1.0000
  H   H1513     1.0  0.83430  0.49846  0.10055  1.0000
  C   C1536     1.0  0.81030  0.50197  0.08990  1.0000
  C   C1537     1.0  0.70703  0.48937  0.06180  1.0000
  C   C1538     1.0  0.71074  0.49229  0.07361  1.0000
  C   C1539     1.0  0.72518  0.49378  0.07248  1.0000
  C   C1540     1.0  0.73617  0.49186  0.05972  1.0000
  H   H1514     1.0  0.81155  0.51260  0.09059  1.0000
  C   C1541     1.0  0.71800  0.48732  0.04898  1.0000
  H   H1515     1.0  0.70230  0.49384  0.08353  1.0000
  H   H1516     1.0  0.72781  0.49651  0.08152  1.0000
  H   H1517     1.0  0.94414  0.42719  0.22977  1.0000
  H   H1518     1.0  0.71518  0.48497  0.03985  1.0000
  C   C1542     1.0  0.98292  0.60465  0.19830  1.0000
  H   H1519     1.0  0.60259  0.55148  0.99713  1.0000
  H   H1520     1.0  0.72124  0.52237  0.04998  1.0000
  S   S525      1.0  0.59353  0.52386  0.00399  1.0000
  C   C1543     1.0  0.85392  0.49819  0.19307  1.0000
  C   C1544     1.0  0.86704  0.50787  0.20509  1.0000
  C   C1545     1.0  0.85978  0.50966  0.19375  1.0000
  H   H1521     1.0  0.88449  0.47800  0.06489  1.0000
  H   H1522     1.0  0.98205  0.55168  0.10620  1.0000
  C   C1546     1.0  0.96106  0.56093  0.11949  1.0000
  H   H1523     1.0  0.96612  0.56575  0.12530  1.0000
  Fe  Fe263     1.0  0.79225  0.49328  0.01158  1.0000
  C   C1547     1.0  0.89593  0.47972  0.05947  1.0000
  C   C1548     1.0  0.95873  0.54202  0.21235  1.0000
  H   H1524     1.0  0.79509  0.51181  0.07502  1.0000
  N   N126      1.0  0.93905  0.55683  0.11511  1.0000
  C   C1549     1.0  0.90842  0.50004  0.05511  1.0000
  H   H1525     1.0  0.97109  0.57374  0.19904  1.0000
  C   C1550     1.0  0.96998  0.55305  0.10876  1.0000
  C   C1551     1.0  0.94771  0.54930  0.10442  1.0000
  S   S526      1.0  0.99901  0.52533  0.06682  1.0000
  H   H1526     1.0  0.67850  0.39748  0.00305  1.0000
  H   H1527     1.0  0.69677  0.44497  0.02047  1.0000
  H   H1528     1.0  0.91737  0.56177  0.12913  1.0000
  C   C1552     1.0  0.80776  0.47490  0.08717  1.0000
  H   H1529     1.0  0.91797  0.49827  0.21306  1.0000
  C   C1553     1.0  0.92273  0.55928  0.11800  1.0000
  C   C1554     1.0  0.88379  0.50565  0.05107  1.0000
  C   C1555     1.0  0.80098  0.50160  0.08107  1.0000
  S   S527      1.0  0.99214  0.51599  0.22201  1.0000
  H   H1530     1.0  0.96631  0.45126  0.16943  1.0000
  H   H1531     1.0  0.92289  0.47004  0.13589  1.0000
  C   C1556     1.0  0.94551  0.56278  0.12249  1.0000
  H   H1532     1.0  0.87584  0.51506  0.16350  1.0000
  H   H1533     1.0  0.65066  0.35765  0.01681  1.0000
  H   H1534     1.0  0.97665  0.51635  0.19996  1.0000
  H   H1535     1.0  0.98965  0.51831  0.12450  1.0000
  H   H1536     1.0  0.97160  0.56482  0.22415  1.0000
  C   C1557     1.0  0.63361  0.46416  0.99637  1.0000
  C   C1558     1.0  0.75548  0.52031  0.01497  1.0000
  C   C1559     1.0  0.73842  0.51607  0.00297  1.0000
  C   C1560     1.0  0.75277  0.51702  0.00284  1.0000
  C   C1561     1.0  0.62291  0.52419  0.02699  1.0000
  C   C1562     1.0  0.69816  0.35820  0.99603  1.0000
  H   H1537     1.0  0.72038  0.44476  0.02683  1.0000
  H   H1538     1.0  0.98612  0.52875  0.14642  1.0000
  C   C1563     1.0  0.67236  0.38887  0.00606  1.0000
  H   H1539     1.0  0.95096  0.52271  0.22574  1.0000
  Fe  Fe264     1.0  0.90502  0.46106  0.21518  1.0000
  C   C1564     1.0  0.74372  0.52266  0.02711  1.0000
  C   C1565     1.0  0.99408  0.50755  0.15992  1.0000
  N   N127      1.0  0.77323  0.38759  0.03118  1.0000
  C   C1566     1.0  0.77104  0.39236  0.04394  1.0000
  C   C1567     1.0  0.67804  0.47061  0.99743  1.0000
  H   H1540     1.0  0.97012  0.54128  0.09259  1.0000
  H   H1541     1.0  0.97871  0.42277  0.19730  1.0000
  H   H1542     1.0  0.97479  0.55914  0.18931  1.0000
  H   H1543     1.0  0.52962  0.56278  0.00522  1.0000
  H   H1544     1.0  0.76132  0.39084  0.05275  1.0000
  S   S528      1.0  0.79156  0.49816  0.03332  1.0000
  H   H1545     1.0  0.76184  0.51504  0.99343  1.0000
  H   H1546     1.0  0.82314  0.46547  0.10169  1.0000
  H   H1547     1.0  0.79298  0.48749  0.07247  1.0000
  H   H1548     1.0  0.99222  0.51212  0.16950  1.0000
  C   C1568     1.0  0.96733  0.55543  0.22440  1.0000
  C   C1569     1.0  0.98513  0.60281  0.21248  1.0000
  H   H1549     1.0  0.76713  0.36770  0.03227  1.0000
  H   H1550     1.0  0.78702  0.38598  0.00987  1.0000
  C   C1570     1.0  0.94435  0.48856  0.23361  1.0000
  C   C1571     1.0  0.62235  0.45821  0.00697  1.0000
  C   C1572     1.0  0.99933  0.59638  0.21549  1.0000
  H   H1551     1.0  0.70540  0.34715  0.01639  1.0000
  H   H1552     1.0  0.68100  0.42871  0.00190  1.0000
  H   H1553     1.0  0.98178  0.37591  0.20691  1.0000
  H   H1554     1.0  0.64209  0.45705  0.98974  1.0000
  C   C1573     1.0  0.79529  0.39740  0.02115  1.0000
  C   C1574     1.0  0.93073  0.51592  0.13664  1.0000
  H   H1555     1.0  0.87185  0.51666  0.20551  1.0000
  C   C1575     1.0  0.97942  0.50514  0.20619  1.0000
  H   H1556     1.0  0.76093  0.38314  0.01807  1.0000
  N   N128      1.0  0.68248  0.45485  0.05351  1.0000
  C   C1576     1.0  0.69544  0.45447  0.05725  1.0000
  C   C1577     1.0  0.98228  0.40461  0.16672  1.0000
  H   H1557     1.0  0.91932  0.54930  0.11755  1.0000
  H   H1558     1.0  0.99893  0.49094  0.12633  1.0000
  H   H1559     1.0  0.90453  0.49584  0.15406  1.0000
  C   C1578     1.0  0.66807  0.45914  0.06342  1.0000
  H   H1560     1.0  0.69514  0.45725  0.06754  1.0000
  N   N129      1.0  0.54940  0.54693  0.99825  1.0000
  C   C1579     1.0  0.90858  0.51511  0.05129  1.0000
  C   C1580     1.0  0.78530  0.38979  0.01996  1.0000
  H   H1561     1.0  0.94257  0.54497  0.09823  1.0000
  H   H1562     1.0  0.66532  0.44930  0.07186  1.0000
  H   H1563     1.0  0.66838  0.46770  0.06904  1.0000
  H   H1564     1.0  0.65898  0.46413  0.05715  1.0000
  H   H1565     1.0  0.80017  0.40917  0.03474  1.0000
  H   H1566     1.0  0.94672  0.43603  0.16857  1.0000
  H   H1567     1.0  0.89585  0.53728  0.04469  1.0000
  C   C1581     1.0  0.60815  0.54387  0.00552  1.0000
  C   C1582     1.0  0.95538  0.41255  0.17182  1.0000
  C   C1583     1.0  0.96825  0.40117  0.17125  1.0000
  H   H1568     1.0  0.85286  0.47147  0.23584  1.0000
  N   N130      1.0  0.63371  0.47879  0.99420  1.0000
  H   H1569     1.0  0.74112  0.48692  0.03812  1.0000
  H   H1570     1.0  0.99235  0.39584  0.16682  1.0000
  H   H1571     1.0  0.98330  0.44739  0.15582  1.0000
  C   C1584     1.0  0.98209  0.39906  0.20163  1.0000
  H   H1572     1.0  0.70874  0.51875  0.04135  1.0000
  S   S529      1.0  0.68287  0.51934  0.02745  1.0000
  H   H1573     1.0  0.64444  0.56864  0.00283  1.0000
  H   H1574     1.0  0.90367  0.47996  0.13952  1.0000
  C   C1585     1.0  0.65215  0.56784  0.99230  1.0000
  N   N131      1.0  0.91998  0.49310  0.13373  1.0000
  H   H1575     1.0  0.71947  0.45091  0.05057  1.0000
  H   H1576     1.0  0.95682  0.54038  0.20243  1.0000
  C   C1586     1.0  0.91885  0.51115  0.14725  1.0000
  N   N132      1.0  0.72964  0.52183  0.02710  1.0000
  N   N133      1.0  0.81816  0.48910  0.09713  1.0000
  H   H1577     1.0  0.96734  0.38969  0.17478  1.0000
  C   C1587     1.0  0.79978  0.48796  0.07966  1.0000
  C   C1588     1.0  0.93721  0.50916  0.12457  1.0000
  N   N134      1.0  0.86228  0.48350  0.21509  1.0000
  H   H1578     1.0  0.74598  0.52495  0.03662  1.0000
  H   H1579     1.0  0.91425  0.48157  0.12085  1.0000
  H   H1580     1.0  0.91825  0.56879  0.10962  1.0000
  H   H1581     1.0  0.93512  0.52457  0.13803  1.0000
  S   S530      1.0  0.91560  0.55055  0.22476  1.0000
  H   H1582     1.0  0.94656  0.51263  0.11628  1.0000
  C   C1589     1.0  0.91736  0.50841  0.23074  1.0000
  S   S531      1.0  0.89709  0.47068  0.19393  1.0000
  H   H1583     1.0  0.82097  0.49257  0.11701  1.0000
  C   C1590     1.0  0.91356  0.49967  0.14560  1.0000
  Fe  Fe265     1.0  0.98134  0.51256  0.07878  1.0000
  C   C1591     1.0  0.97512  0.49384  0.20292  1.0000
  C   C1592     1.0  0.98700  0.50191  0.21764  1.0000
  H   H1584     1.0  0.60217  0.46291  0.02334  1.0000
  C   C1593     1.0  0.99060  0.48732  0.22556  1.0000
  C   C1594     1.0  0.97917  0.47921  0.21049  1.0000
  S   S532      1.0  0.99461  0.49161  0.07145  1.0000
  H   H1585     1.0  0.87377  0.49339  0.22458  1.0000
  H   H1586     1.0  0.96901  0.49637  0.19425  1.0000
  H   H1587     1.0  0.64945  0.54637  0.99262  1.0000
  H   H1588     1.0  0.73621  0.51333  0.99368  1.0000
  S   S533      1.0  0.70851  0.50795  0.99006  1.0000
  C   C1595     1.0  0.69652  0.44743  0.03088  1.0000
  C   C1596     1.0  0.61861  0.54810  0.01033  1.0000
  C   C1597     1.0  0.86290  0.47004  0.22680  1.0000
  H   H1589     1.0  0.94243  0.48094  0.21524  1.0000
  S   S534      1.0  0.95090  0.59327  0.23346  1.0000
  H   H1590     1.0  0.97855  0.55768  0.16026  1.0000
  C   C1598     1.0  0.95945  0.38970  0.21061  1.0000
  C   C1599     1.0  0.78077  0.40005  0.04546  1.0000
  H   H1591     1.0  0.67748  0.48220  0.99643  1.0000
  S   S535      1.0  0.97427  0.46511  0.20595  1.0000
  Fe  Fe266     1.0  0.99488  0.44737  0.20180  1.0000
  H   H1592     1.0  0.75161  0.38276  0.03692  1.0000
  H   H1593     1.0  0.76668  0.52084  0.01503  1.0000
  H   H1594     1.0  0.95403  0.38046  0.21455  1.0000
  C   C1600     1.0  0.53556  0.55588  0.99726  1.0000
  H   H1595     1.0  0.60970  0.50930  0.02723  1.0000
  H   H1596     1.0  0.87357  0.52877  0.04442  1.0000
  H   H1597     1.0  0.77859  0.40446  0.05528  1.0000
  S   S536      1.0  0.75502  0.37049  0.99539  1.0000
  H   H1598     1.0  0.60240  0.48960  0.01907  1.0000
  C   C1601     1.0  0.68008  0.44045  0.00045  1.0000
  H   H1599     1.0  0.97190  0.60965  0.19588  1.0000
  C   C1602     1.0  0.60500  0.52984  0.01149  1.0000
  H   H1600     1.0  0.99028  0.46459  0.22750  1.0000
  H   H1601     1.0  0.87308  0.46748  0.23138  1.0000
  H   H1602     1.0  0.58958  0.32942  0.99312  1.0000
  C   C1603     1.0  0.95550  0.44165  0.23353  1.0000
  H   H1603     1.0  0.94441  0.41000  0.17577  1.0000
  C   C1604     1.0  0.79291  0.40266  0.03394  1.0000
  S   S537      1.0  0.66563  0.51135  0.00611  1.0000
  C   C1605     1.0  0.89603  0.52554  0.04733  1.0000
  C   C1606     1.0  0.93737  0.48861  0.22262  1.0000
  C   C1607     1.0  0.61109  0.46735  0.01527  1.0000
  C   C1608     1.0  0.55652  0.54647  0.01012  1.0000
  C   C1609     1.0  0.92373  0.49849  0.22126  1.0000
  C   C1610     1.0  0.88356  0.52079  0.04714  1.0000
  H   H1604     1.0  0.91819  0.49202  0.05828  1.0000
  H   H1605     1.0  0.62262  0.49950  0.00038  1.0000
  C   C1611     1.0  0.65657  0.37632  0.00012  1.0000
  H   H1606     1.0  0.85879  0.51993  0.18549  1.0000
  H   H1607     1.0  0.69478  0.53586  0.99918  1.0000
  C   C1612     1.0  0.98324  0.41946  0.16291  1.0000
  C   C1613     1.0  0.96451  0.54529  0.23780  1.0000
  H   H1608     1.0  0.87399  0.50208  0.05102  1.0000
  C   C1614     1.0  0.98707  0.47591  0.22169  1.0000
  C   C1615     1.0  0.76274  0.37988  0.02956  1.0000
  C   C1616     1.0  0.62265  0.48786  0.00221  1.0000
  Fe  Fe267     1.0  0.71284  0.41519  0.99870  1.0000
  S   S538      1.0  0.90134  0.47446  0.23214  1.0000
  C   C1617     1.0  0.95549  0.53187  0.22557  1.0000
  S   S539      1.0  0.99205  0.57910  0.16498  1.0000
  S   S540      1.0  0.71214  0.39257  0.99745  1.0000
  H   H1609     1.0  0.99585  0.47581  0.17950  1.0000
  H   H1610     1.0  0.59425  0.36002  0.99122  1.0000
  C   C1618     1.0  0.99748  0.49579  0.13567  1.0000
  H   H1611     1.0  0.85038  0.47636  0.20349  1.0000
  C   C1619     1.0  0.95258  0.42784  0.23501  1.0000
  C   C1620     1.0  0.95845  0.53350  0.23837  1.0000
  H   H1612     1.0  0.95483  0.48078  0.23493  1.0000
  H   H1613     1.0  0.62207  0.44670  0.00836  1.0000
  H   H1614     1.0  0.54879  0.55254  0.01857  1.0000
  C   C1621     1.0  0.93952  0.58240  0.23187  1.0000
  H   H1615     1.0  0.90678  0.51611  0.22950  1.0000
  H   H1616     1.0  0.94961  0.45148  0.22698  1.0000
  C   C1622     1.0  0.66429  0.38770  0.99631  1.0000
  H   H1617     1.0  0.84849  0.49934  0.18414  1.0000
  H   H1618     1.0  0.99650  0.48475  0.23441  1.0000
  C   C1623     1.0  0.70873  0.35240  0.00486  1.0000
  S   S541      1.0  0.79455  0.50996  0.99003  1.0000
  H   H1619     1.0  0.96606  0.39495  0.23665  1.0000
  S   S542      1.0  0.99889  0.53421  0.17844  1.0000
  C   C1624     1.0  0.92615  0.33934  0.43817  1.0000
  H   H1620     1.0  0.95715  0.56841  0.32643  1.0000
  Fe  Fe268     1.0  0.98917  0.58295  0.26299  1.0000
  C   C1625     1.0  0.93444  0.57157  0.24373  1.0000
  S   S543      1.0  0.95675  0.38175  0.43260  1.0000
  Fe  Fe269     1.0  0.96322  0.63627  0.45929  1.0000
  H   H1621     1.0  0.91478  0.51202  0.26319  1.0000
  S   S544      1.0  0.97463  0.38258  0.38976  1.0000
  H   H1622     1.0  0.92516  0.52537  0.25106  1.0000
  H   H1623     1.0  0.98518  0.39387  0.34306  1.0000
  N   N135      1.0  0.93881  0.61015  0.32352  1.0000
  C   C1626     1.0  0.95522  0.58815  0.33404  1.0000
  H   H1624     1.0  0.92801  0.60784  0.30784  1.0000
  H   H1625     1.0  0.98013  0.33350  0.48284  1.0000
  H   H1626     1.0  0.91968  0.39743  0.36025  1.0000
  H   H1627     1.0  0.99295  0.36171  0.43520  1.0000
  S   S545      1.0  0.97538  0.56829  0.26151  1.0000
  Fe  Fe270     1.0  0.96264  0.60404  0.27764  1.0000
  S   S546      1.0  0.94609  0.59157  0.27717  1.0000
  S   S547      1.0  0.95644  0.62520  0.28615  1.0000
  Fe  Fe271     1.0  0.96335  0.57140  0.28437  1.0000
  S   S548      1.0  0.95837  0.55241  0.30290  1.0000
  H   H1628     1.0  0.92281  0.55376  0.25074  1.0000
  C   C1627     1.0  0.91926  0.43603  0.31687  1.0000
  S   S549      1.0  0.97876  0.58395  0.28660  1.0000
  H   H1629     1.0  0.94616  0.40204  0.24165  1.0000
  Fe  Fe272     1.0  0.95101  0.45305  0.28511  1.0000
  S   S550      1.0  0.96314  0.47035  0.27039  1.0000
  S   S551      1.0  0.94198  0.43793  0.27759  1.0000
  Fe  Fe273     1.0  0.95398  0.45870  0.31322  1.0000
  S   S552      1.0  0.96621  0.47678  0.30143  1.0000
  S   S553      1.0  0.94901  0.45144  0.33799  1.0000
  Fe  Fe274     1.0  0.94960  0.48425  0.28687  1.0000
  S   S554      1.0  0.94051  0.50804  0.27708  1.0000
  H   H1630     1.0  0.93668  0.57033  0.25447  1.0000
  H   H1631     1.0  0.92072  0.44285  0.30578  1.0000
  S   S555      1.0  0.93593  0.46774  0.30020  1.0000
  S   S556      1.0  0.96824  0.44290  0.29893  1.0000
  C   C1628     1.0  0.98604  0.42705  0.34367  1.0000
  C   C1629     1.0  0.91742  0.51840  0.25167  1.0000
  S   S557      1.0  0.97419  0.60402  0.25400  1.0000
  H   H1632     1.0  0.98819  0.60686  0.32288  1.0000
  S   S558      1.0  0.95102  0.38315  0.36175  1.0000
  H   H1633     1.0  0.91138  0.48327  0.25332  1.0000
  H   H1634     1.0  0.98946  0.61692  0.27105  1.0000
  C   C1630     1.0  0.98825  0.32482  0.47726  1.0000
  C   C1631     1.0  0.95004  0.43236  0.34452  1.0000
  C   C1632     1.0  0.94932  0.42615  0.35960  1.0000
  C   C1633     1.0  0.95013  0.41090  0.36495  1.0000
  C   C1634     1.0  0.95209  0.40812  0.34022  1.0000
  H   H1635     1.0  0.95506  0.65024  0.29762  1.0000
  C   C1635     1.0  0.95146  0.42329  0.33487  1.0000
  H   H1636     1.0  0.94811  0.43314  0.36715  1.0000
  H   H1637     1.0  0.94935  0.40619  0.37664  1.0000
  H   H1638     1.0  0.95151  0.42800  0.32335  1.0000
  C   C1636     1.0  0.92938  0.44802  0.26620  1.0000
  C   C1637     1.0  0.92462  0.46342  0.26439  1.0000
  H   H1639     1.0  0.95294  0.40121  0.33271  1.0000
  H   H1640     1.0  0.96675  0.65311  0.31651  1.0000
  H   H1641     1.0  0.92034  0.34032  0.46122  1.0000
  C   C1638     1.0  0.92450  0.44065  0.25839  1.0000
  H   H1642     1.0  0.92815  0.46918  0.27056  1.0000
  C   C1639     1.0  0.99023  0.39993  0.34801  1.0000
  H   H1643     1.0  0.91977  0.40034  0.33472  1.0000
  H   H1644     1.0  0.92786  0.42870  0.26004  1.0000
  H   H1645     1.0  0.95179  0.33174  0.45838  1.0000
  H   H1646     1.0  0.96301  0.58277  0.34129  1.0000
  C   C1640     1.0  0.92052  0.42087  0.31889  1.0000
  S   S559      1.0  0.96705  0.62579  0.44005  1.0000
  H   H1647     1.0  0.95103  0.60942  0.33937  1.0000
  N   N136      1.0  0.91586  0.41837  0.34521  1.0000
  Fe  Fe275     1.0  0.96675  0.34319  0.40382  1.0000
  C   C1641     1.0  0.95171  0.54057  0.29664  1.0000
  C   C1642     1.0  0.94761  0.54515  0.28295  1.0000
  C   C1643     1.0  0.94341  0.53529  0.27738  1.0000
  C   C1644     1.0  0.94369  0.52072  0.28529  1.0000
  C   C1645     1.0  0.94729  0.51627  0.29922  1.0000
  C   C1646     1.0  0.95121  0.52625  0.30495  1.0000
  H   H1648     1.0  0.94759  0.55632  0.27667  1.0000
  H   H1649     1.0  0.94008  0.53896  0.26688  1.0000
  H   H1650     1.0  0.94703  0.50519  0.30562  1.0000
  H   H1651     1.0  0.95420  0.52274  0.31564  1.0000
  C   C1647     1.0  0.99883  0.64681  0.28705  1.0000
  C   C1648     1.0  0.96891  0.64240  0.31379  1.0000
  C   C1649     1.0  0.96234  0.64075  0.30308  1.0000
  C   C1650     1.0  0.96514  0.62692  0.29941  1.0000
  C   C1651     1.0  0.97449  0.61474  0.30659  1.0000
  Fe  Fe276     1.0  0.97883  0.46172  0.28592  1.0000
  Fe  Fe277     1.0  0.94005  0.65000  0.48337  1.0000
  H   H1652     1.0  0.97660  0.60402  0.30404  1.0000
  C   C1652     1.0  0.99049  0.34492  0.45526  1.0000
  C   C1653     1.0  0.95339  0.36797  0.44854  1.0000
  H   H1653     1.0  0.93782  0.63172  0.32636  1.0000
  H   H1654     1.0  0.99263  0.48986  0.26550  1.0000
  H   H1655     1.0  0.95103  0.38168  0.46377  1.0000
  S   S560      1.0  0.98723  0.63175  0.33404  1.0000
  S   S561      1.0  0.95262  0.62674  0.48238  1.0000
  H   H1656     1.0  0.91824  0.41298  0.36758  1.0000
  S   S562      1.0  0.98226  0.64065  0.46556  1.0000
  H   H1657     1.0  0.90156  0.40963  0.36477  1.0000
  H   H1658     1.0  0.98919  0.64257  0.27132  1.0000
  C   C1654     1.0  0.91455  0.43326  0.34332  1.0000
  H   H1659     1.0  0.93930  0.58096  0.31002  1.0000
  C   C1655     1.0  0.95114  0.37076  0.46265  1.0000
  C   C1656     1.0  0.98096  0.61635  0.31737  1.0000
  H   H1660     1.0  0.92305  0.41594  0.30934  1.0000
  H   H1661     1.0  0.91561  0.45402  0.32772  1.0000
  S   S563      1.0  0.98138  0.35093  0.41332  1.0000
  C   C1657     1.0  0.98478  0.50087  0.26371  1.0000
  C   C1658     1.0  0.97830  0.63019  0.32093  1.0000
  C   C1659     1.0  0.97268  0.63686  0.41003  1.0000
  C   C1660     1.0  0.93553  0.60234  0.31535  1.0000
  H   H1662     1.0  0.90693  0.52610  0.24895  1.0000
  C   C1661     1.0  0.94925  0.35936  0.47530  1.0000
  H   H1663     1.0  0.95520  0.35163  0.43636  1.0000
  S   S564      1.0  0.94823  0.36355  0.40452  1.0000
  C   C1662     1.0  0.91866  0.41215  0.33324  1.0000
  C   C1663     1.0  0.97301  0.63842  0.42399  1.0000
  C   C1664     1.0  0.95138  0.40191  0.35526  1.0000
  C   C1665     1.0  0.91131  0.46416  0.24590  1.0000
  C   C1666     1.0  0.94946  0.34526  0.47378  1.0000
  S   S565      1.0  0.97804  0.35085  0.38038  1.0000
  H   H1664     1.0  0.97630  0.40644  0.25658  1.0000
  C   C1667     1.0  0.91365  0.40917  0.36018  1.0000
  C   C1668     1.0  0.97678  0.64751  0.39735  1.0000
  H   H1665     1.0  0.96896  0.62761  0.40907  1.0000
  C   C1669     1.0  0.97780  0.65040  0.42519  1.0000
  C   C1670     1.0  0.95154  0.34259  0.45970  1.0000
  C   C1671     1.0  0.95352  0.35388  0.44715  1.0000
  Fe  Fe278     1.0  0.96373  0.37190  0.41245  1.0000
  C   C1672     1.0  0.91629  0.44229  0.32914  1.0000
  H   H1666     1.0  0.98789  0.53636  0.28605  1.0000
  C   C1673     1.0  0.91526  0.47142  0.25453  1.0000
  H   H1667     1.0  0.97817  0.65167  0.43586  1.0000
  H   H1668     1.0  0.91254  0.43818  0.35277  1.0000
  Fe  Fe279     1.0  0.96087  0.37217  0.38181  1.0000
  C   C1674     1.0  0.94837  0.60322  0.33292  1.0000
  Fe  Fe280     1.0  0.95930  0.58948  0.25430  1.0000
  H   H1669     1.0  0.96666  0.54678  0.24772  1.0000
  H   H1670     1.0  0.99271  0.45321  0.25745  1.0000
  H   H1671     1.0  0.97619  0.64649  0.38661  1.0000
  C   C1675     1.0  0.92593  0.33164  0.42784  1.0000
  C   C1676     1.0  0.91584  0.44873  0.24793  1.0000
  C   C1677     1.0  0.97033  0.41631  0.25017  1.0000
  C   C1678     1.0  0.95196  0.58011  0.32572  1.0000
  C   C1679     1.0  0.94197  0.58720  0.31641  1.0000
  H   H1672     1.0  0.95361  0.33068  0.38656  1.0000
  N   N137      1.0  0.99657  0.33127  0.46284  1.0000
  C   C1680     1.0  0.93144  0.62586  0.32268  1.0000
  H   H1673     1.0  0.95617  0.52556  0.24863  1.0000
  N   N138      1.0  0.95989  0.41542  0.24334  1.0000
  H   H1674     1.0  0.91999  0.62698  0.32968  1.0000
  H   H1675     1.0  0.98020  0.42665  0.35510  1.0000
  C   C1681     1.0  0.93759  0.49848  0.24304  1.0000
  C   C1682     1.0  0.98733  0.44083  0.33443  1.0000
  H   H1676     1.0  0.98282  0.40111  0.35895  1.0000
  H   H1677     1.0  0.94300  0.49824  0.25165  1.0000
  H   H1678     1.0  0.99572  0.45219  0.31237  1.0000
  H   H1679     1.0  0.93098  0.34899  0.43461  1.0000
  C   C1683     1.0  0.97917  0.59176  0.46663  1.0000
  H   H1680     1.0  0.93077  0.63156  0.31107  1.0000
  H   H1681     1.0  0.97421  0.50031  0.27211  1.0000
  H   H1682     1.0  0.93084  0.33537  0.41629  1.0000
  H   H1683     1.0  0.97655  0.51691  0.28455  1.0000
  H   H1684     1.0  0.95665  0.39420  0.25587  1.0000
  C   C1684     1.0  0.95706  0.40093  0.24445  1.0000
  H   H1685     1.0  0.91265  0.44300  0.24150  1.0000
  N   N139      1.0  0.99162  0.51236  0.26460  1.0000
  Fe  Fe281     1.0  0.99091  0.36065  0.38994  1.0000
  C   C1685     1.0  0.99471  0.44156  0.31968  1.0000
  H   H1686     1.0  0.98205  0.50318  0.25269  1.0000
  N   N140      1.0  0.92430  0.50829  0.24148  1.0000
  H   H1687     1.0  0.98151  0.43070  0.25469  1.0000
  H   H1688     1.0  0.97217  0.59529  0.45852  1.0000
  C   C1686     1.0  0.97340  0.42999  0.24908  1.0000
  C   C1687     1.0  0.98826  0.60071  0.46686  1.0000
  H   H1689     1.0  0.98845  0.61108  0.45884  1.0000
  N   N141      1.0  0.99168  0.41435  0.33828  1.0000
  C   C1688     1.0  0.97910  0.57833  0.47686  1.0000
  H   H1690     1.0  0.97978  0.35122  0.46004  1.0000
  H   H1691     1.0  0.98234  0.45091  0.33863  1.0000
  C   C1689     1.0  0.92019  0.33446  0.45311  1.0000
  C   C1690     1.0  0.99702  0.59624  0.47750  1.0000
  C   C1691     1.0  0.98604  0.51960  0.27605  1.0000
  H   H1692     1.0  0.97200  0.57132  0.47682  1.0000
  C   C1692     1.0  0.99894  0.41496  0.32382  1.0000
  Fe  Fe282     1.0  0.98600  0.65423  0.33808  1.0000
  H   H1693     1.0  0.94760  0.36150  0.48617  1.0000
  C   C1693     1.0  0.99673  0.63781  0.27890  1.0000
  C   C1694     1.0  0.99796  0.35093  0.44119  1.0000
  C   C1695     1.0  0.99253  0.53053  0.27702  1.0000
  Fe  Fe283     1.0  0.97043  0.63297  0.48887  1.0000
  C   C1696     1.0  0.96590  0.44271  0.24070  1.0000
  C   C1697     1.0  0.92664  0.56217  0.24158  1.0000
  N   N142      1.0  0.99687  0.58307  0.48751  1.0000
  C   C1698     1.0  0.98821  0.57405  0.48719  1.0000
  S   S566      1.0  0.94753  0.33050  0.48905  1.0000
  H   H1694     1.0  0.96816  0.45337  0.23974  1.0000
  H   H1695     1.0  0.92054  0.62221  0.51493  1.0000
  N   N143      1.0  0.97296  0.37711  0.68835  1.0000
  Fe  Fe284     1.0  0.94808  0.34963  0.53427  1.0000
  H   H1696     1.0  0.92665  0.58677  0.56300  1.0000
  S   S567      1.0  0.93481  0.41614  0.64250  1.0000
  H   H1697     1.0  0.97526  0.49909  0.61178  1.0000
  C   C1699     1.0  0.98991  0.37084  0.54050  1.0000
  Fe  Fe285     1.0  0.88689  0.52671  0.70111  1.0000
  S   S568      1.0  0.89916  0.50552  0.69366  1.0000
  S   S569      1.0  0.87631  0.52700  0.72499  1.0000
  Fe  Fe286     1.0  0.89268  0.54551  0.67041  1.0000
  S   S570      1.0  0.90543  0.52602  0.66027  1.0000
  S   S571      1.0  0.88819  0.56907  0.65789  1.0000
  Fe  Fe287     1.0  0.88733  0.51494  0.67483  1.0000
  S   S572      1.0  0.87881  0.50217  0.66381  1.0000
  Fe  Fe288     1.0  0.91617  0.51828  0.67979  1.0000
  Fe  Fe289     1.0  0.99171  0.43956  0.71864  1.0000
  S   S573      1.0  0.87353  0.53510  0.68341  1.0000
  S   S574      1.0  0.90498  0.53887  0.68874  1.0000
  H   H1698     1.0  0.90747  0.50620  0.63855  1.0000
  Fe  Fe290     1.0  0.92535  0.42390  0.71681  1.0000
  S   S575      1.0  0.91274  0.44478  0.70465  1.0000
  C   C1700     1.0  0.97910  0.37956  0.69966  1.0000
  H   H1699     1.0  0.99049  0.59665  0.53196  1.0000
  Fe  Fe291     1.0  0.89245  0.43595  0.71686  1.0000
  S   S576      1.0  0.87591  0.43882  0.70319  1.0000
  Fe  Fe292     1.0  0.90948  0.45364  0.72463  1.0000
  H   H1700     1.0  0.99108  0.37377  0.69889  1.0000
  C   C1701     1.0  0.98886  0.56393  0.63493  1.0000
  H   H1701     1.0  0.87883  0.48072  0.72518  1.0000
  C   C1702     1.0  0.92943  0.41553  0.68559  1.0000
  C   C1703     1.0  0.92672  0.41624  0.67182  1.0000
  S   S577      1.0  0.90536  0.41406  0.72736  1.0000
  C   C1704     1.0  0.95792  0.37822  0.69067  1.0000
  H   H1702     1.0  0.93435  0.55063  0.68634  1.0000
  N   N144      1.0  0.93662  0.59917  0.54268  1.0000
  C   C1705     1.0  0.87550  0.48536  0.67538  1.0000
  C   C1706     1.0  0.87665  0.48207  0.69013  1.0000
  C   C1707     1.0  0.87637  0.46784  0.69873  1.0000
  C   C1708     1.0  0.87439  0.45698  0.69280  1.0000
  C   C1709     1.0  0.87229  0.46050  0.67830  1.0000
  C   C1710     1.0  0.87295  0.47469  0.66954  1.0000
  H   H1703     1.0  0.87799  0.49040  0.69488  1.0000
  H   H1704     1.0  0.87774  0.46521  0.70996  1.0000
  H   H1705     1.0  0.87077  0.45209  0.67369  1.0000
  H   H1706     1.0  0.87193  0.47722  0.65815  1.0000
  C   C1711     1.0  0.94403  0.41347  0.68723  1.0000
  H   H1707     1.0  0.98536  0.50359  0.69279  1.0000
  H   H1708     1.0  0.98765  0.38247  0.53509  1.0000
  H   H1709     1.0  0.92883  0.47908  0.68606  1.0000
  S   S578      1.0  0.94058  0.50701  0.67586  1.0000
  C   C1712     1.0  0.91675  0.51219  0.73555  1.0000
  H   H1710     1.0  0.98773  0.33734  0.53728  1.0000
  H   H1711     1.0  0.92960  0.58514  0.63848  1.0000
  C   C1713     1.0  0.91992  0.35673  0.58483  1.0000
  S   S579      1.0  0.91478  0.47542  0.72179  1.0000
  N   N145      1.0  0.99417  0.34127  0.55515  1.0000
  C   C1714     1.0  0.91161  0.36712  0.55775  1.0000
  H   H1712     1.0  0.91667  0.38765  0.55744  1.0000
  C   C1715     1.0  0.97342  0.50782  0.69423  1.0000
  C   C1716     1.0  0.92776  0.61803  0.52284  1.0000
  C   C1717     1.0  0.98000  0.56891  0.62434  1.0000
  C   C1718     1.0  0.92744  0.60441  0.53279  1.0000
  C   C1719     1.0  0.97905  0.50260  0.61963  1.0000
  C   C1720     1.0  0.92860  0.47218  0.67890  1.0000
  H   H1713     1.0  0.90625  0.48362  0.67613  1.0000
  H   H1714     1.0  0.91536  0.41794  0.67062  1.0000
  C   C1721     1.0  0.90699  0.58858  0.61709  1.0000
  C   C1722     1.0  0.89751  0.58597  0.63102  1.0000
  C   C1723     1.0  0.90043  0.57230  0.64079  1.0000
  C   C1724     1.0  0.91308  0.56141  0.63680  1.0000
  C   C1725     1.0  0.91574  0.47477  0.67342  1.0000
  H   H1715     1.0  0.90457  0.59909  0.60947  1.0000
  H   H1716     1.0  0.88779  0.59446  0.63415  1.0000
  H   H1717     1.0  0.91571  0.55108  0.64448  1.0000
  S   S580      1.0  0.94723  0.41248  0.70456  1.0000
  C   C1726     1.0  0.90529  0.51705  0.72773  1.0000
  H   H1718     1.0  0.95334  0.60316  0.55103  1.0000
  H   H1719     1.0  0.90795  0.51731  0.71605  1.0000
  H   H1720     1.0  0.95059  0.39660  0.54796  1.0000
  N   N146      1.0  0.89928  0.52586  0.62392  1.0000
  C   C1727     1.0  0.90811  0.53318  0.61212  1.0000
  C   C1728     1.0  0.88709  0.53363  0.63220  1.0000
  C   C1729     1.0  0.90464  0.54867  0.60819  1.0000
  C   C1730     1.0  0.88344  0.54912  0.62874  1.0000
  C   C1731     1.0  0.89220  0.55665  0.61656  1.0000
  C   C1732     1.0  0.97732  0.60113  0.51561  1.0000
  H   H1721     1.0  0.99772  0.45611  0.63518  1.0000
  H   H1722     1.0  0.88023  0.52786  0.64172  1.0000
  H   H1723     1.0  0.91175  0.55449  0.59896  1.0000
  H   H1724     1.0  0.87407  0.55524  0.63565  1.0000
  H   H1725     1.0  0.88959  0.56867  0.61385  1.0000
  C   C1733     1.0  0.98340  0.48084  0.73290  1.0000
  Fe  Fe293     1.0  0.96550  0.54925  0.56261  1.0000
  H   H1726     1.0  0.90933  0.58834  0.66073  1.0000
  N   N147      1.0  0.91534  0.34766  0.57906  1.0000
  H   H1727     1.0  0.96862  0.50781  0.65439  1.0000
  C   C1734     1.0  0.91938  0.57752  0.61293  1.0000
  H   H1728     1.0  0.91184  0.50460  0.61951  1.0000
  C   C1735     1.0  0.95167  0.37734  0.67945  1.0000
  H   H1729     1.0  0.98344  0.36370  0.52428  1.0000
  H   H1730     1.0  0.96531  0.35118  0.58491  1.0000
  H   H1731     1.0  0.96379  0.45149  0.67558  1.0000
  H   H1732     1.0  0.92014  0.41645  0.69494  1.0000
  S   S581      1.0  0.94765  0.37188  0.53840  1.0000
  S   S582      1.0  0.97993  0.44731  0.58224  1.0000
  H   H1733     1.0  0.98283  0.47721  0.56991  1.0000
  C   C1736     1.0  0.93860  0.41482  0.65965  1.0000
  H   H1734     1.0  0.97115  0.49684  0.67854  1.0000
  C   C1737     1.0  0.93751  0.62629  0.52312  1.0000
  H   H1735     1.0  0.99019  0.41175  0.65006  1.0000
  H   H1736     1.0  0.94730  0.50766  0.63623  1.0000
  H   H1737     1.0  0.92814  0.50904  0.72972  1.0000
  H   H1738     1.0  0.96744  0.54653  0.65604  1.0000
  H   H1739     1.0  0.95464  0.53423  0.66250  1.0000
  C   C1738     1.0  0.99655  0.55075  0.61041  1.0000
  C   C1739     1.0  0.90316  0.50964  0.62822  1.0000
  H   H1740     1.0  0.91795  0.52708  0.60570  1.0000
  C   C1740     1.0  0.96194  0.36115  0.57694  1.0000
  C   C1741     1.0  0.94999  0.50988  0.68776  1.0000
  H   H1741     1.0  0.95419  0.50294  0.73419  1.0000
  H   H1742     1.0  0.91492  0.33071  0.59886  1.0000
  C   C1742     1.0  0.94674  0.62093  0.53332  1.0000
  H   H1743     1.0  0.89311  0.50508  0.63032  1.0000
  C   C1743     1.0  0.92251  0.56400  0.62285  1.0000
  H   H1744     1.0  0.92574  0.32480  0.58200  1.0000
  H   H1745     1.0  0.95933  0.49029  0.72186  1.0000
  H   H1746     1.0  0.90491  0.46726  0.66086  1.0000
  C   C1744     1.0  0.99878  0.40418  0.65552  1.0000
  C   C1745     1.0  0.95369  0.38667  0.55608  1.0000
  H   H1747     1.0  0.96098  0.42488  0.72627  1.0000
  C   C1746     1.0  0.95325  0.41260  0.66129  1.0000
  C   C1747     1.0  0.95596  0.41202  0.67507  1.0000
  C   C1748     1.0  0.92015  0.37134  0.57731  1.0000
  C   C1749     1.0  0.91501  0.46559  0.66480  1.0000
  C   C1750     1.0  0.95309  0.37289  0.55421  1.0000
  S   S583      1.0  0.94327  0.54680  0.57737  1.0000
  H   H1748     1.0  0.94404  0.47727  0.61623  1.0000
  C   C1751     1.0  0.95668  0.49114  0.73359  1.0000
  C   C1752     1.0  0.91594  0.37654  0.56369  1.0000
  H   H1749     1.0  0.98356  0.37281  0.65295  1.0000
  S   S584      1.0  0.98267  0.61791  0.50638  1.0000
  C   C1753     1.0  0.93170  0.47001  0.72742  1.0000
  H   H1750     1.0  0.95642  0.46856  0.68172  1.0000
  H   H1751     1.0  0.93063  0.52295  0.69965  1.0000
  H   H1752     1.0  0.95961  0.39824  0.56930  1.0000
  C   C1754     1.0  0.95873  0.38764  0.56819  1.0000
  H   H1753     1.0  0.91983  0.59804  0.53252  1.0000
  H   H1754     1.0  0.96725  0.41038  0.67632  1.0000
  H   H1755     1.0  0.96250  0.41123  0.65199  1.0000
  N   N148      1.0  0.94056  0.46089  0.67559  1.0000
  H   H1756     1.0  0.94479  0.52938  0.71416  1.0000
  C   C1755     1.0  0.92720  0.45407  0.66155  1.0000
  C   C1756     1.0  0.94254  0.51876  0.69807  1.0000
  H   H1757     1.0  0.97291  0.37550  0.71094  1.0000
  C   C1757     1.0  0.95703  0.36017  0.56483  1.0000
  S   S585      1.0  0.93050  0.58061  0.59514  1.0000
  Fe  Fe294     1.0  0.95552  0.41248  0.62495  1.0000
  Fe  Fe295     1.0  0.99395  0.53164  0.69539  1.0000
  H   H1758     1.0  0.93206  0.55546  0.61976  1.0000
  S   S586      1.0  0.94707  0.50729  0.60377  1.0000
  C   C1758     1.0  0.91139  0.35262  0.56562  1.0000
  C   C1759     1.0  0.93074  0.57783  0.64911  1.0000
  C   C1760     1.0  0.94606  0.60732  0.54318  1.0000
  H   H1759     1.0  0.96366  0.60195  0.50084  1.0000
  C   C1761     1.0  0.95261  0.47728  0.60620  1.0000
  C   C1762     1.0  0.95658  0.49786  0.63827  1.0000
  Fe  Fe296     1.0  0.94805  0.56059  0.59001  1.0000
  C   C1763     1.0  0.94496  0.46980  0.71673  1.0000
  H   H1760     1.0  0.94460  0.47533  0.70540  1.0000
  S   S587      1.0  0.95523  0.41683  0.60088  1.0000
  H   H1761     1.0  0.95656  0.34954  0.56363  1.0000
  H   H1762     1.0  0.95678  0.45367  0.60800  1.0000
  C   C1764     1.0  0.95371  0.45799  0.68191  1.0000
  C   C1765     1.0  0.93585  0.58504  0.55322  1.0000
  C   C1766     1.0  0.94319  0.56601  0.65024  1.0000
  Fe  Fe297     1.0  0.98889  0.40130  0.62059  1.0000
  S   S588      1.0  0.96641  0.33944  0.51720  1.0000
  C   C1767     1.0  0.95626  0.49065  0.59774  1.0000
  H   H1763     1.0  0.92359  0.35269  0.59522  1.0000
  H   H1764     1.0  0.90818  0.34529  0.56085  1.0000
  H   H1765     1.0  0.97005  0.50078  0.57805  1.0000
  H   H1766     1.0  0.95735  0.57784  0.51340  1.0000
  C   C1768     1.0  0.93995  0.45184  0.66710  1.0000
  H   H1767     1.0  0.92665  0.44674  0.65498  1.0000
  H   H1768     1.0  0.95147  0.45167  0.69352  1.0000
  Fe  Fe298     1.0  0.95631  0.52743  0.59115  1.0000
  H   H1769     1.0  0.95164  0.56428  0.64037  1.0000
  C   C1769     1.0  0.96313  0.37481  0.57853  1.0000
  S   S589      1.0  0.95922  0.54112  0.60522  1.0000
  S   S590      1.0  0.99530  0.46432  0.66394  1.0000
  C   C1770     1.0  0.95986  0.46389  0.60158  1.0000
  S   S591      1.0  0.99342  0.55584  0.69100  1.0000
  H   H1770     1.0  0.94926  0.44271  0.66472  1.0000
  H   H1771     1.0  0.96878  0.40585  0.72476  1.0000
  H   H1772     1.0  0.97019  0.57785  0.62559  1.0000
  C   C1771     1.0  0.98309  0.59267  0.52799  1.0000
  H   H1773     1.0  0.95056  0.38056  0.70095  1.0000
  S   S592      1.0  0.92965  0.34496  0.52690  1.0000
  C   C1772     1.0  0.95057  0.52235  0.70632  1.0000
  H   H1774     1.0  0.95611  0.37519  0.65686  1.0000
  S   S593      1.0  0.92401  0.43355  0.73584  1.0000
  C   C1773     1.0  0.96728  0.49054  0.58474  1.0000
  C   C1774     1.0  0.98364  0.56207  0.61226  1.0000
  H   H1775     1.0  0.94641  0.48687  0.73899  1.0000
  N   N149      1.0  0.97081  0.50251  0.63373  1.0000
  C   C1775     1.0  0.93350  0.55834  0.67587  1.0000
  S   S594      1.0  0.96931  0.56449  0.57437  1.0000
  H   H1776     1.0  0.98450  0.57222  0.54434  1.0000
  C   C1776     1.0  0.97074  0.46383  0.58845  1.0000
  H   H1777     1.0  0.98569  0.48524  0.72107  1.0000
  H   H1778     1.0  0.94646  0.57999  0.55713  1.0000
  S   S595      1.0  0.98353  0.57118  0.65096  1.0000
  H   H1779     1.0  0.99399  0.37419  0.67320  1.0000
  C   C1777     1.0  0.96793  0.59577  0.51049  1.0000
  C   C1778     1.0  0.96448  0.58199  0.51755  1.0000
  Fe  Fe299     1.0  0.94828  0.33279  0.51150  1.0000
  S   S596      1.0  0.97160  0.37485  0.59269  1.0000
  S   S597      1.0  0.97022  0.38980  0.62558  1.0000
  C   C1779     1.0  0.96607  0.51707  0.70417  1.0000
  Fe  Fe300     1.0  0.97170  0.39482  0.60105  1.0000
  C   C1780     1.0  0.97447  0.47718  0.58011  1.0000
  C   C1781     1.0  0.96539  0.50408  0.68615  1.0000
  S   S598      1.0  0.96616  0.55611  0.53817  1.0000
  H   H1780     1.0  0.90887  0.37091  0.54691  1.0000
  C   C1782     1.0  0.95889  0.45439  0.73519  1.0000
  Fe  Fe301     1.0  0.97521  0.42622  0.59787  1.0000
  S   S599      1.0  0.97407  0.42369  0.62195  1.0000
  S   S600      1.0  0.94997  0.32909  0.55200  1.0000
  C   C1783     1.0  0.97031  0.57351  0.52986  1.0000
  H   H1781     1.0  0.97832  0.39162  0.69812  1.0000
  H   H1782     1.0  0.95443  0.49250  0.65021  1.0000
  H   H1783     1.0  0.86639  0.49753  0.73040  1.0000
  C   C1784     1.0  0.96091  0.37535  0.66581  1.0000
  C   C1785     1.0  0.96583  0.41367  0.73227  1.0000
  Fe  Fe302     1.0  0.98014  0.54369  0.58825  1.0000
  S   S601      1.0  0.97833  0.52844  0.57518  1.0000
  C   C1786     1.0  0.95857  0.46177  0.72055  1.0000
  C   C1787     1.0  0.97958  0.57889  0.53511  1.0000
  S   S602      1.0  0.88798  0.44675  0.73604  1.0000
  H   H1784     1.0  0.95462  0.62712  0.53337  1.0000
  C   C1788     1.0  0.95737  0.54394  0.66439  1.0000
  H   H1785     1.0  0.93418  0.57684  0.54798  1.0000
  H   H1786     1.0  0.96032  0.54099  0.67540  1.0000
  C   C1789     1.0  0.97626  0.37408  0.66360  1.0000
  S   S603      1.0  0.99182  0.40457  0.59605  1.0000
  S   S604      1.0  0.97649  0.52234  0.71341  1.0000
  H   H1787     1.0  0.93966  0.37892  0.68107  1.0000
  H   H1788     1.0  0.97656  0.56565  0.60430  1.0000
  H   H1789     1.0  0.99186  0.41393  0.67483  1.0000
  C   C1790     1.0  0.99245  0.50736  0.61507  1.0000
  H   H1790     1.0  0.93791  0.63681  0.51540  1.0000
  C   C1791     1.0  0.98873  0.51229  0.63923  1.0000
  N   N150      1.0  0.94455  0.55660  0.66355  1.0000
  C   C1792     1.0  0.92075  0.56988  0.67508  1.0000
  H   H1791     1.0  0.95658  0.48974  0.63199  1.0000
  C   C1793     1.0  0.97535  0.50752  0.64339  1.0000
  H   H1792     1.0  0.88615  0.49569  0.72558  1.0000
  C   C1794     1.0  0.91940  0.57966  0.66160  1.0000
  H   H1793     1.0  0.96875  0.46123  0.71215  1.0000
  H   H1794     1.0  0.91178  0.57098  0.68475  1.0000
  C   C1795     1.0  0.89047  0.52119  0.73503  1.0000
  C   C1796     1.0  0.98755  0.36030  0.53444  1.0000
  H   H1795     1.0  0.99151  0.45885  0.61090  1.0000
  H   H1796     1.0  0.92409  0.37844  0.58173  1.0000
  S   S605      1.0  0.98680  0.43389  0.69956  1.0000
  C   C1797     1.0  0.87724  0.48951  0.73123  1.0000
  S   S606      1.0  0.99476  0.53178  0.67190  1.0000
  C   C1798     1.0  0.98211  0.37496  0.67508  1.0000
  H   H1797     1.0  0.97636  0.41398  0.73490  1.0000
  C   C1799     1.0  0.99661  0.35152  0.56115  1.0000
  S   S607      1.0  0.95714  0.65584  0.49138  1.0000
  C   C1800     1.0  0.91545  0.33228  0.58688  1.0000
  H   H1798     1.0  0.99626  0.48251  0.68214  1.0000
  H   H1799     1.0  0.99585  0.37463  0.55903  1.0000
  H   H1800     1.0  0.99247  0.51604  0.64697  1.0000
  C   C1801     1.0  0.99737  0.51205  0.62501  1.0000
  Fe  Fe303     1.0  0.99654  0.55524  0.66724  1.0000
  H   H1801     1.0  0.90564  0.32886  0.58583  1.0000
  H   H1802     1.0  0.99711  0.59316  0.65631  1.0000
  H   H1803     1.0  0.98803  0.56364  0.49518  1.0000
  H   H1804     1.0  0.94642  0.39702  0.73593  1.0000
  C   C1802     1.0  0.99454  0.36644  0.55390  1.0000
  C   C1803     1.0  0.98980  0.34546  0.54193  1.0000
  C   C1804     1.0  0.99588  0.32571  0.56293  1.0000
  S   S608      1.0  0.91625  0.65318  0.49577  1.0000
  H   H1805     1.0  0.99886  0.50771  0.60382  1.0000
  Fe  Fe304     1.0  0.92268  0.49337  0.78385  1.0000
  S   S609      1.0  0.90077  0.49224  0.79974  1.0000
  C   C1805     1.0  0.66904  0.43619  0.95171  1.0000
  Fe  Fe305     1.0  0.94110  0.47408  0.80572  1.0000
  S   S610      1.0  0.92115  0.47086  0.82402  1.0000
  S   S611      1.0  0.96533  0.46366  0.80567  1.0000
  Fe  Fe306     1.0  0.91120  0.46818  0.80663  1.0000
  S   S612      1.0  0.89672  0.45173  0.81402  1.0000
  Fe  Fe307     1.0  0.91195  0.49506  0.81615  1.0000
  S   S613      1.0  0.89832  0.51056  0.83111  1.0000
  S   S614      1.0  0.93205  0.46889  0.78904  1.0000
  S   S615      1.0  0.93295  0.49864  0.79948  1.0000
  Fe  Fe308     1.0  0.80345  0.49520  0.91424  1.0000
  S   S616      1.0  0.82295  0.50541  0.91037  1.0000
  S   S617      1.0  0.79109  0.48559  0.93675  1.0000
  Fe  Fe309     1.0  0.80374  0.50116  0.88161  1.0000
  S   S618      1.0  0.82297  0.51217  0.87495  1.0000
  S   S619      1.0  0.79417  0.50057  0.86303  1.0000
  Fe  Fe310     1.0  0.83284  0.49349  0.89169  1.0000
  S   S620      1.0  0.85644  0.48009  0.88727  1.0000
  Fe  Fe311     1.0  0.81131  0.52313  0.89402  1.0000
  S   S621      1.0  0.81105  0.54704  0.89173  1.0000
  S   S622      1.0  0.81438  0.48153  0.89698  1.0000
  S   S623      1.0  0.79103  0.51378  0.89927  1.0000
  N   N151      1.0  0.56840  0.38809  0.92489  1.0000
  Fe  Fe312     1.0  0.61680  0.52089  0.95166  1.0000
  S   S624      1.0  0.59266  0.52448  0.96331  1.0000
  S   S625      1.0  0.62940  0.50021  0.94324  1.0000
  Fe  Fe313     1.0  0.62057  0.54947  0.95601  1.0000
  S   S626      1.0  0.59704  0.55539  0.96842  1.0000
  S   S627      1.0  0.63495  0.56484  0.95448  1.0000
  C   C1806     1.0  0.70231  0.36580  0.98148  1.0000
  H   H1806     1.0  0.65803  0.53587  0.97073  1.0000
  Fe  Fe314     1.0  0.59105  0.54812  0.95106  1.0000
  S   S628      1.0  0.57153  0.56137  0.94067  1.0000
  S   S629      1.0  0.62484  0.52612  0.96901  1.0000
  S   S630      1.0  0.61451  0.54393  0.93756  1.0000
  Fe  Fe315     1.0  0.73207  0.58231  0.90122  1.0000
  S   S631      1.0  0.73758  0.56529  0.92120  1.0000
  S   S632      1.0  0.75012  0.59411  0.88801  1.0000
  Fe  Fe316     1.0  0.70277  0.57442  0.90427  1.0000
  S   S633      1.0  0.70582  0.55657  0.92437  1.0000
  S   S634      1.0  0.68286  0.57543  0.89573  1.0000
  Fe  Fe317     1.0  0.71358  0.57288  0.93148  1.0000
  S   S635      1.0  0.70736  0.57370  0.95544  1.0000
  Fe  Fe318     1.0  0.72950  0.55067  0.91224  1.0000
  S   S636      1.0  0.74283  0.52809  0.90973  1.0000
  S   S637      1.0  0.70849  0.59155  0.91235  1.0000
  S   S638      1.0  0.72582  0.56698  0.89140  1.0000
  Fe  Fe319     1.0  0.54720  0.32706  0.93129  1.0000
  C   C1807     1.0  0.73118  0.47883  0.96398  1.0000
  S   S639      1.0  0.89702  0.41443  0.76925  1.0000
  N   N152      1.0  0.95502  0.40929  0.74578  1.0000
  Fe  Fe320     1.0  0.63448  0.41410  0.94509  1.0000
  S   S640      1.0  0.63160  0.39069  0.95295  1.0000
  S   S641      1.0  0.64880  0.42355  0.92387  1.0000
  Fe  Fe321     1.0  0.61536  0.42383  0.97276  1.0000
  H   H1807     1.0  0.55711  0.62046  0.94977  1.0000
  H   H1808     1.0  0.94597  0.44977  0.75743  1.0000
  Fe  Fe322     1.0  0.63497  0.39269  0.97444  1.0000
  C   C1808     1.0  0.96994  0.48936  0.80905  1.0000
  Fe  Fe323     1.0  0.60748  0.40091  0.96129  1.0000
  S   S642      1.0  0.58742  0.39269  0.96122  1.0000
  S   S643      1.0  0.63999  0.41514  0.96590  1.0000
  S   S644      1.0  0.61002  0.42435  0.95133  1.0000
  H   H1809     1.0  0.72074  0.48658  0.96715  1.0000
  C   C1809     1.0  0.61626  0.33631  0.96993  1.0000
  H   H1810     1.0  0.70178  0.42323  0.96082  1.0000
  H   H1811     1.0  0.82130  0.47817  0.98167  1.0000
  S   S645      1.0  0.56989  0.32752  0.91652  1.0000
  S   S646      1.0  0.52691  0.34375  0.92490  1.0000
  H   H1812     1.0  0.95858  0.49121  0.81544  1.0000
  H   H1813     1.0  0.80269  0.46328  0.98914  1.0000
  H   H1814     1.0  0.98799  0.43504  0.81733  1.0000
  S   S647      1.0  0.59598  0.33528  0.93703  1.0000
  H   H1815     1.0  0.68004  0.56423  0.95533  1.0000
  C   C1810     1.0  0.66038  0.44899  0.94452  1.0000
  Fe  Fe324     1.0  0.74388  0.44808  0.90459  1.0000
  S   S648      1.0  0.74782  0.45727  0.92183  1.0000
  S   S649      1.0  0.75149  0.45613  0.88022  1.0000
  Fe  Fe325     1.0  0.72586  0.42730  0.92715  1.0000
  S   S650      1.0  0.72806  0.43528  0.94608  1.0000
  S   S651      1.0  0.71499  0.40800  0.93262  1.0000
  Fe  Fe326     1.0  0.72353  0.45787  0.93169  1.0000
  S   S652      1.0  0.70785  0.47766  0.93986  1.0000
  Fe  Fe327     1.0  0.75200  0.43376  0.93419  1.0000
  S   S653      1.0  0.77160  0.42356  0.94508  1.0000
  S   S654      1.0  0.71925  0.45014  0.91365  1.0000
  S   S655      1.0  0.75013  0.42436  0.91614  1.0000
  C   C1811     1.0  0.76146  0.38289  0.97954  1.0000
  N   N153      1.0  0.66478  0.55414  0.97324  1.0000
  C   C1812     1.0  0.76853  0.40709  0.95740  1.0000
  C   C1813     1.0  0.75542  0.40261  0.95885  1.0000
  C   C1814     1.0  0.75170  0.39079  0.97014  1.0000
  H   H1816     1.0  0.74275  0.43271  0.97108  1.0000
  C   C1815     1.0  0.99067  0.47436  0.79484  1.0000
  C   C1816     1.0  0.77853  0.39899  0.96657  1.0000
  H   H1817     1.0  0.74791  0.40849  0.95154  1.0000
  H   H1818     1.0  0.69380  0.37086  0.97497  1.0000
  H   H1819     1.0  0.55909  0.62294  0.91741  1.0000
  H   H1820     1.0  0.78872  0.40242  0.96540  1.0000
  Fe  Fe328     1.0  0.60055  0.53150  0.97961  1.0000
  C   C1817     1.0  0.72738  0.36091  0.98411  1.0000
  H   H1821     1.0  0.99228  0.46653  0.83904  1.0000
  H   H1822     1.0  0.93709  0.52619  0.77095  1.0000
  H   H1823     1.0  0.76061  0.43286  0.97384  1.0000
  H   H1824     1.0  0.76842  0.52158  0.88032  1.0000
  N   N154      1.0  0.56776  0.60634  0.93445  1.0000
  C   C1818     1.0  0.78488  0.54069  0.86315  1.0000
  C   C1819     1.0  0.76315  0.52949  0.87138  1.0000
  C   C1820     1.0  0.63023  0.35248  0.97251  1.0000
  C   C1821     1.0  0.97104  0.52460  0.77704  1.0000
  S   S656      1.0  0.52440  0.63914  0.96839  1.0000
  C   C1822     1.0  0.76933  0.52779  0.93369  1.0000
  H   H1825     1.0  0.77132  0.51801  0.92924  1.0000
  C   C1823     1.0  0.77904  0.53746  0.92809  1.0000
  C   C1824     1.0  0.58987  0.37676  0.95443  1.0000
  C   C1825     1.0  0.60369  0.37052  0.94637  1.0000
  C   C1826     1.0  0.60527  0.35795  0.94089  1.0000
  C   C1827     1.0  0.59309  0.35149  0.94348  1.0000
  C   C1828     1.0  0.57919  0.35784  0.95136  1.0000
  C   C1829     1.0  0.57759  0.37047  0.95681  1.0000
  H   H1826     1.0  0.61315  0.37541  0.94430  1.0000
  H   H1827     1.0  0.61604  0.35312  0.93470  1.0000
  H   H1828     1.0  0.56973  0.35294  0.95335  1.0000
  H   H1829     1.0  0.56683  0.37535  0.96296  1.0000
  C   C1830     1.0  0.66751  0.41872  0.92538  1.0000
  C   C1831     1.0  0.67687  0.42850  0.91780  1.0000
  C   C1832     1.0  0.69144  0.42537  0.92008  1.0000
  C   C1833     1.0  0.69684  0.41220  0.92951  1.0000
  C   C1834     1.0  0.68763  0.40222  0.93672  1.0000
  C   C1835     1.0  0.67290  0.40558  0.93484  1.0000
  H   H1830     1.0  0.67264  0.43872  0.91057  1.0000
  H   H1831     1.0  0.69845  0.43313  0.91452  1.0000
  H   H1832     1.0  0.69174  0.39201  0.94401  1.0000
  H   H1833     1.0  0.66568  0.39802  0.94072  1.0000
  H   H1834     1.0  0.84080  0.48931  0.93545  1.0000
  C   C1836     1.0  0.70870  0.55546  0.96555  1.0000
  C   C1837     1.0  0.94261  0.41153  0.77068  1.0000
  H   H1835     1.0  0.74103  0.38812  0.97181  1.0000
  Fe  Fe329     1.0  0.90279  0.42567  0.74551  1.0000
  C   C1838     1.0  0.71667  0.52906  0.96631  1.0000
  C   C1839     1.0  0.71650  0.54367  0.95859  1.0000
  H   H1836     1.0  0.59828  0.58999  0.95759  1.0000
  C   C1840     1.0  0.89856  0.51490  0.75830  1.0000
  H   H1837     1.0  0.72265  0.51996  0.96089  1.0000
  H   H1838     1.0  0.72247  0.54579  0.94724  1.0000
  C   C1841     1.0  0.73199  0.51492  0.91756  1.0000
  C   C1842     1.0  0.72053  0.51640  0.93012  1.0000
  C   C1843     1.0  0.71252  0.50525  0.93674  1.0000
  C   C1844     1.0  0.71593  0.49276  0.93063  1.0000
  C   C1845     1.0  0.72654  0.49193  0.91745  1.0000
  C   C1846     1.0  0.73483  0.50280  0.91111  1.0000
  H   H1839     1.0  0.71833  0.52576  0.93514  1.0000
  H   H1840     1.0  0.70419  0.50600  0.94688  1.0000
  H   H1841     1.0  0.72848  0.48284  0.91212  1.0000
  H   H1842     1.0  0.74347  0.50177  0.90121  1.0000
  C   C1847     1.0  0.62198  0.48490  0.95393  1.0000
  C   C1848     1.0  0.62544  0.47197  0.94852  1.0000
  C   C1849     1.0  0.62071  0.45924  0.95749  1.0000
  C   C1850     1.0  0.61216  0.45956  0.97179  1.0000
  C   C1851     1.0  0.60801  0.47275  0.97689  1.0000
  C   C1852     1.0  0.61310  0.48532  0.96809  1.0000
  H   H1843     1.0  0.63171  0.47179  0.93734  1.0000
  H   H1844     1.0  0.62363  0.44921  0.95334  1.0000
  C   C1853     1.0  0.93472  0.39730  0.75836  1.0000
  H   H1845     1.0  0.61035  0.49522  0.97240  1.0000
  C   C1854     1.0  0.64656  0.56965  0.93721  1.0000
  C   C1855     1.0  0.64637  0.56460  0.92496  1.0000
  C   C1856     1.0  0.65684  0.56743  0.91170  1.0000
  C   C1857     1.0  0.66781  0.57483  0.91091  1.0000
  C   C1858     1.0  0.66770  0.58025  0.92301  1.0000
  C   C1859     1.0  0.65682  0.57801  0.93598  1.0000
  H   H1846     1.0  0.63837  0.55833  0.92572  1.0000
  H   H1847     1.0  0.65692  0.56323  0.90232  1.0000
  H   H1848     1.0  0.67602  0.58616  0.92237  1.0000
  H   H1849     1.0  0.65650  0.58258  0.94516  1.0000
  H   H1850     1.0  0.68827  0.41325  0.96189  1.0000
  C   C1860     1.0  0.87844  0.47123  0.77642  1.0000
  C   C1861     1.0  0.58973  0.59467  0.95107  1.0000
  H   H1851     1.0  0.87859  0.46673  0.78803  1.0000
  H   H1852     1.0  0.65513  0.47631  0.97946  1.0000
  C   C1862     1.0  0.53388  0.59084  0.96766  1.0000
  C   C1863     1.0  0.99495  0.44117  0.81930  1.0000
  C   C1864     1.0  0.55847  0.57436  0.96472  1.0000
  C   C1865     1.0  0.55734  0.57304  0.95098  1.0000
  C   C1866     1.0  0.54457  0.58098  0.94543  1.0000
  C   C1867     1.0  0.53286  0.58991  0.95374  1.0000
  H   H1853     1.0  0.92176  0.46298  0.75038  1.0000
  H   H1854     1.0  0.56808  0.56822  0.96922  1.0000
  H   H1855     1.0  0.54358  0.57998  0.93482  1.0000
  H   H1856     1.0  0.52280  0.59563  0.94963  1.0000
  C   C1868     1.0  0.79090  0.49344  0.95127  1.0000
  C   C1869     1.0  0.78447  0.48723  0.96572  1.0000
  C   C1870     1.0  0.78538  0.49240  0.97766  1.0000
  C   C1871     1.0  0.79240  0.50404  0.97517  1.0000
  C   C1872     1.0  0.79819  0.51074  0.96065  1.0000
  C   C1873     1.0  0.79760  0.50533  0.94873  1.0000
  H   H1857     1.0  0.77917  0.47810  0.96774  1.0000
  C   C1874     1.0  0.99374  0.49671  0.79957  1.0000
  H   H1858     1.0  0.80358  0.51980  0.95866  1.0000
  H   H1859     1.0  0.80249  0.51026  0.93761  1.0000
  C   C1875     1.0  0.79419  0.56002  0.89002  1.0000
  C   C1876     1.0  0.79402  0.57517  0.88628  1.0000
  C   C1877     1.0  0.78051  0.58571  0.88539  1.0000
  C   C1878     1.0  0.76715  0.58110  0.88849  1.0000
  C   C1879     1.0  0.76739  0.56596  0.89211  1.0000
  C   C1880     1.0  0.78086  0.55547  0.89281  1.0000
  H   H1860     1.0  0.80432  0.57876  0.88411  1.0000
  H   H1861     1.0  0.78039  0.59742  0.88257  1.0000
  H   H1862     1.0  0.75725  0.56226  0.89399  1.0000
  H   H1863     1.0  0.78081  0.54390  0.89548  1.0000
  C   C1881     1.0  0.78241  0.48813  0.86807  1.0000
  C   C1882     1.0  0.77524  0.48705  0.85765  1.0000
  C   C1883     1.0  0.76582  0.47715  0.86145  1.0000
  C   C1884     1.0  0.76353  0.46830  0.87569  1.0000
  C   C1885     1.0  0.77086  0.46926  0.88605  1.0000
  C   C1886     1.0  0.78018  0.47927  0.88230  1.0000
  H   H1864     1.0  0.77700  0.49384  0.84661  1.0000
  H   H1865     1.0  0.76028  0.47640  0.85336  1.0000
  H   H1866     1.0  0.76969  0.46207  0.89683  1.0000
  H   H1867     1.0  0.78573  0.47999  0.89039  1.0000
  C   C1887     1.0  0.88735  0.50230  0.84746  1.0000
  C   C1888     1.0  0.89182  0.48734  0.85399  1.0000
  C   C1889     1.0  0.88250  0.48073  0.86655  1.0000
  C   C1890     1.0  0.86858  0.48899  0.87250  1.0000
  C   C1891     1.0  0.86433  0.50407  0.86628  1.0000
  C   C1892     1.0  0.87374  0.51073  0.85384  1.0000
  H   H1868     1.0  0.90251  0.48088  0.84947  1.0000
  H   H1869     1.0  0.88599  0.46914  0.87152  1.0000
  H   H1870     1.0  0.85389  0.51067  0.87111  1.0000
  H   H1871     1.0  0.87035  0.52237  0.84899  1.0000
  C   C1893     1.0  0.89792  0.44104  0.80146  1.0000
  C   C1894     1.0  0.90579  0.44410  0.78680  1.0000
  C   C1895     1.0  0.90537  0.43615  0.77671  1.0000
  C   C1896     1.0  0.89752  0.42482  0.78143  1.0000
  C   C1897     1.0  0.89012  0.42148  0.79618  1.0000
  C   C1898     1.0  0.89016  0.42969  0.80612  1.0000
  H   H1872     1.0  0.91183  0.45284  0.78313  1.0000
  H   H1873     1.0  0.91115  0.43876  0.76534  1.0000
  H   H1874     1.0  0.88409  0.41271  0.79987  1.0000
  H   H1875     1.0  0.88408  0.42728  0.81745  1.0000
  H   H1876     1.0  0.65688  0.47275  0.93742  1.0000
  H   H1877     1.0  0.78868  0.53497  0.91934  1.0000
  C   C1899     1.0  0.88706  0.52013  0.75036  1.0000
  H   H1878     1.0  0.79730  0.55508  0.92112  1.0000
  H   H1879     1.0  0.57218  0.40987  0.91754  1.0000
  H   H1880     1.0  0.78092  0.56971  0.91882  1.0000
  C   C1900     1.0  0.55640  0.61283  0.92546  1.0000
  C   C1901     1.0  0.66361  0.46268  0.94283  1.0000
  C   C1902     1.0  0.99239  0.46749  0.75507  1.0000
  H   H1881     1.0  0.55728  0.53340  0.96732  1.0000
  C   C1903     1.0  0.59092  0.58944  0.93854  1.0000
  H   H1882     1.0  0.95463  0.47915  0.76215  1.0000
  H   H1883     1.0  0.61781  0.36825  0.98607  1.0000
  C   C1904     1.0  0.99532  0.47306  0.73984  1.0000
  C   C1905     1.0  0.88938  0.47863  0.76734  1.0000
  H   H1884     1.0  0.58068  0.59110  0.92073  1.0000
  H   H1885     1.0  0.97522  0.46527  0.77493  1.0000
  C   C1906     1.0  0.95351  0.41474  0.75797  1.0000
  C   C1907     1.0  0.83442  0.48266  0.94462  1.0000
  H   H1886     1.0  0.97715  0.45108  0.83545  1.0000
  H   H1887     1.0  0.85915  0.46334  0.77733  1.0000
  C   C1908     1.0  0.91343  0.51103  0.75083  1.0000
  C   C1909     1.0  0.57177  0.36606  0.91603  1.0000
  C   C1910     1.0  0.86732  0.47549  0.75549  1.0000
  H   H1888     1.0  0.89594  0.51415  0.77011  1.0000
  C   C1911     1.0  0.60419  0.35448  0.98441  1.0000
  C   C1912     1.0  0.75751  0.45868  0.95584  1.0000
  H   H1889     1.0  0.76780  0.45090  0.95243  1.0000
  C   C1913     1.0  0.55096  0.53950  0.97588  1.0000
  H   H1890     1.0  0.78796  0.56497  0.93559  1.0000
  H   H1891     1.0  0.76414  0.47693  0.93882  1.0000
  C   C1914     1.0  0.97352  0.52131  0.75285  1.0000
  S   S657      1.0  0.70779  0.43637  0.98240  1.0000
  H   H1892     1.0  0.97436  0.50878  0.81255  1.0000
  H   H1893     1.0  0.94870  0.52756  0.79063  1.0000
  H   H1894     1.0  0.73282  0.37265  0.95585  1.0000
  N   N155      1.0  0.86635  0.47044  0.84634  1.0000
  C   C1915     1.0  0.87156  0.48107  0.83498  1.0000
  C   C1916     1.0  0.85183  0.47316  0.85396  1.0000
  C   C1917     1.0  0.86234  0.49509  0.83142  1.0000
  C   C1918     1.0  0.84218  0.48694  0.85047  1.0000
  C   C1919     1.0  0.84755  0.49803  0.83925  1.0000
  C   C1920     1.0  0.87622  0.45585  0.85002  1.0000
  H   H1895     1.0  0.88306  0.47887  0.82893  1.0000
  H   H1896     1.0  0.84770  0.46477  0.86301  1.0000
  H   H1897     1.0  0.86678  0.50369  0.82288  1.0000
  H   H1898     1.0  0.83067  0.48906  0.85657  1.0000
  H   H1899     1.0  0.84030  0.50890  0.83673  1.0000
  H   H1900     1.0  0.87387  0.45131  0.86213  1.0000
  H   H1901     1.0  0.87473  0.44814  0.84408  1.0000
  H   H1902     1.0  0.88817  0.45654  0.84669  1.0000
  N   N156      1.0  0.81760  0.46599  0.96801  1.0000
  C   C1921     1.0  0.82015  0.46375  0.95400  1.0000
  C   C1922     1.0  0.82344  0.47626  0.97060  1.0000
  C   C1923     1.0  0.82855  0.47208  0.94210  1.0000
  C   C1924     1.0  0.83185  0.48480  0.95896  1.0000
  S   S658      1.0  0.61068  0.40131  0.98345  1.0000
  H   H1903     1.0  0.74400  0.43782  0.98734  1.0000
  H   H1904     1.0  0.81535  0.45579  0.95186  1.0000
  N   N157      1.0  0.71680  0.36703  0.97569  1.0000
  H   H1905     1.0  0.83022  0.47055  0.93094  1.0000
  C   C1925     1.0  0.54681  0.58328  0.97301  1.0000
  C   C1926     1.0  0.70870  0.52623  0.98088  1.0000
  Fe  Fe330     1.0  0.51125  0.62370  0.96739  1.0000
  C   C1927     1.0  0.94573  0.40075  0.74581  1.0000
  H   H1906     1.0  0.64057  0.49124  0.97276  1.0000
  N   N158      1.0  0.73346  0.42509  0.88290  1.0000
  C   C1928     1.0  0.72918  0.41380  0.89401  1.0000
  C   C1929     1.0  0.74821  0.42414  0.87613  1.0000
  C   C1930     1.0  0.73984  0.40143  0.89904  1.0000
  C   C1931     1.0  0.75918  0.41197  0.88092  1.0000
  C   C1932     1.0  0.75494  0.40058  0.89250  1.0000
  C   C1933     1.0  0.72217  0.43801  0.87777  1.0000
  H   H1907     1.0  0.71748  0.41438  0.89924  1.0000
  H   H1908     1.0  0.75161  0.43301  0.86719  1.0000
  H   H1909     1.0  0.73637  0.39277  0.90820  1.0000
  H   H1910     1.0  0.77090  0.41157  0.87585  1.0000
  H   H1911     1.0  0.76336  0.39121  0.89652  1.0000
  H   H1912     1.0  0.71911  0.43650  0.86804  1.0000
  H   H1913     1.0  0.71194  0.43978  0.88660  1.0000
  H   H1914     1.0  0.72650  0.44828  0.87462  1.0000
  N   N159      1.0  0.69248  0.52634  0.90832  1.0000
  C   C1934     1.0  0.68169  0.53412  0.91775  1.0000
  C   C1935     1.0  0.69248  0.51204  0.90865  1.0000
  C   C1936     1.0  0.67025  0.52776  0.92758  1.0000
  C   C1937     1.0  0.68133  0.50526  0.91848  1.0000
  C   C1938     1.0  0.67005  0.51325  0.92788  1.0000
  C   C1939     1.0  0.70384  0.53364  0.89769  1.0000
  H   H1915     1.0  0.68184  0.54537  0.91756  1.0000
  H   H1916     1.0  0.70121  0.50572  0.90142  1.0000
  H   H1917     1.0  0.68151  0.49386  0.91882  1.0000
  H   H1918     1.0  0.66113  0.50825  0.93533  1.0000
  H   H1919     1.0  0.71217  0.52610  0.89090  1.0000
  H   H1920     1.0  0.69842  0.54347  0.89018  1.0000
  H   H1921     1.0  0.71006  0.53745  0.90358  1.0000
  C   C1940     1.0  0.75442  0.54351  0.95057  1.0000
  C   C1941     1.0  0.75699  0.53083  0.94504  1.0000
  C   C1942     1.0  0.62966  0.34096  0.96663  1.0000
  H   H1922     1.0  0.74937  0.52344  0.94938  1.0000
  N   N160      1.0  0.68093  0.43688  0.95661  1.0000
  C   C1943     1.0  0.68425  0.45025  0.95491  1.0000
  H   H1923     1.0  0.92695  0.39102  0.75823  1.0000
  C   C1944     1.0  0.67556  0.46334  0.94814  1.0000
  H   H1924     1.0  0.60029  0.58060  0.93536  1.0000
  C   C1945     1.0  0.77505  0.38674  0.97759  1.0000
  C   C1946     1.0  0.68968  0.42333  0.96434  1.0000
  H   H1925     1.0  0.69371  0.45088  0.95871  1.0000
  H   H1926     1.0  0.58934  0.37687  0.91365  1.0000
  H   H1927     1.0  0.67817  0.47390  0.94696  1.0000
  H   H1928     1.0  0.80341  0.55144  0.85651  1.0000
  H   H1929     1.0  0.66151  0.53412  0.93479  1.0000
  H   H1930     1.0  0.64918  0.49269  0.98682  1.0000
  C   C1947     1.0  0.76417  0.55310  0.94449  1.0000
  C   C1948     1.0  0.76686  0.56894  0.85805  1.0000
  H   H1931     1.0  0.76497  0.52369  0.86229  1.0000
  C   C1949     1.0  0.57747  0.60586  0.95517  1.0000
  N   N161      1.0  0.77638  0.54992  0.93350  1.0000
  H   H1932     1.0  0.57637  0.60999  0.96492  1.0000
  H   H1933     1.0  0.71441  0.37470  0.95326  1.0000
  C   C1950     1.0  0.76072  0.55641  0.86315  1.0000
  C   C1951     1.0  0.78611  0.56043  0.92696  1.0000
  H   H1934     1.0  0.96059  0.42181  0.75784  1.0000
  N   N162      1.0  0.60373  0.34314  0.97864  1.0000
  C   C1952     1.0  0.57980  0.59547  0.93028  1.0000
  H   H1935     1.0  0.63950  0.33570  0.95951  1.0000
  C   C1953     1.0  0.78231  0.56716  0.85558  1.0000
  C   C1954     1.0  0.66938  0.57798  0.97113  1.0000
  S   S659      1.0  0.51332  0.63036  0.94281  1.0000
  C   C1955     1.0  0.95558  0.52600  0.77990  1.0000
  C   C1956     1.0  0.97767  0.46968  0.76313  1.0000
  H   H1936     1.0  0.68618  0.42264  0.97644  1.0000
  C   C1957     1.0  0.50963  0.33972  0.93503  1.0000
  C   C1958     1.0  0.93325  0.40267  0.77088  1.0000
  C   C1959     1.0  0.88903  0.48433  0.75241  1.0000
  C   C1960     1.0  0.74237  0.48357  0.95233  1.0000
  C   C1961     1.0  0.67207  0.56520  0.96568  1.0000
  C   C1962     1.0  0.75555  0.47343  0.94812  1.0000
  H   H1937     1.0  0.56944  0.40288  0.93735  1.0000
  Fe  Fe331     1.0  0.50233  0.65538  0.97153  1.0000
  N   N163      1.0  0.76970  0.54253  0.86589  1.0000
  S   S660      1.0  0.55447  0.32624  0.95183  1.0000
  H   H1938     1.0  0.71809  0.38784  0.96130  1.0000
  H   H1939     1.0  0.76181  0.56319  0.94848  1.0000
  H   H1940     1.0  0.66637  0.42566  0.95308  1.0000
  H   H1941     1.0  0.75100  0.53245  0.87623  1.0000
  C   C1963     1.0  0.98873  0.45025  0.82960  1.0000
  H   H1942     1.0  0.57912  0.35721  0.91076  1.0000
  H   H1943     1.0  0.74870  0.55792  0.86522  1.0000
  H   H1944     1.0  0.78716  0.57680  0.85218  1.0000
  H   H1945     1.0  0.54518  0.61600  0.93253  1.0000
  C   C1964     1.0  0.54739  0.37740  0.92861  1.0000
  H   H1946     1.0  0.55562  0.60482  0.91945  1.0000
  H   H1947     1.0  0.65127  0.44817  0.94026  1.0000
  C   C1965     1.0  0.56657  0.61168  0.94661  1.0000
  H   H1948     1.0  0.69836  0.46771  0.98087  1.0000
  H   H1949     1.0  0.66439  0.39529  0.98569  1.0000
  H   H1950     1.0  0.55196  0.35768  0.92020  1.0000
  H   H1951     1.0  0.53559  0.37751  0.93288  1.0000
  S   S661      1.0  0.64844  0.37288  0.98742  1.0000
  H   H1952     1.0  0.79201  0.52970  0.86520  1.0000
  H   H1953     1.0  0.75965  0.57997  0.85660  1.0000
  H   H1954     1.0  0.94117  0.41618  0.78019  1.0000
  S   S662      1.0  0.92819  0.50484  0.76016  1.0000
  C   C1966     1.0  0.97890  0.49924  0.80750  1.0000
  C   C1967     1.0  0.94908  0.52518  0.76889  1.0000
  C   C1968     1.0  0.96605  0.47746  0.75584  1.0000
  H   H1955     1.0  0.78078  0.48723  0.98877  1.0000
  H   H1956     1.0  0.92449  0.40038  0.78054  1.0000
  H   H1957     1.0  0.61586  0.32744  0.96520  1.0000
  H   H1958     1.0  0.54628  0.39701  0.93580  1.0000
  C   C1969     1.0  0.55350  0.38835  0.93021  1.0000
  C   C1970     1.0  0.97587  0.47685  0.80281  1.0000
  H   H1959     1.0  0.89814  0.47992  0.77175  1.0000
  C   C1971     1.0  0.66806  0.54067  0.96754  1.0000
  H   H1960     1.0  0.99531  0.46473  0.78997  1.0000
  N   N164      1.0  0.74658  0.45416  0.96740  1.0000
  C   C1972     1.0  0.79142  0.55295  0.85804  1.0000
  C   C1973     1.0  0.57446  0.39989  0.92638  1.0000
  H   H1961     1.0  0.72462  0.46023  0.98018  1.0000
  C   C1974     1.0  0.86746  0.46943  0.77044  1.0000
  H   H1962     1.0  0.67114  0.54319  0.95527  1.0000
  C   C1975     1.0  0.74860  0.43863  0.97531  1.0000
  H   H1963     1.0  0.58673  0.39631  0.92574  1.0000
  C   C1976     1.0  0.72072  0.37595  0.96081  1.0000
  N   N165      1.0  0.97978  0.52234  0.76363  1.0000
  H   H1964     1.0  0.74077  0.49502  0.94640  1.0000
  C   C1977     1.0  0.73344  0.46394  0.97132  1.0000
  H   H1965     1.0  0.80064  0.45351  0.97684  1.0000
  C   C1978     1.0  0.57749  0.37722  0.91774  1.0000
  C   C1979     1.0  0.55660  0.36622  0.92147  1.0000
  H   H1966     1.0  0.78249  0.38077  0.98501  1.0000
  H   H1967     1.0  0.67742  0.53241  0.97199  1.0000
  C   C1980     1.0  0.80904  0.45695  0.98041  1.0000
  H   H1968     1.0  0.85875  0.47412  0.75086  1.0000
  C   C1981     1.0  0.53689  0.54862  0.97475  1.0000
  C   C1982     1.0  0.50873  0.32876  0.94803  1.0000
  H   H1969     1.0  0.74474  0.54613  0.95925  1.0000
  H   H1970     1.0  0.67527  0.58668  0.96506  1.0000
  S   S663      1.0  0.54664  0.65102  0.92942  1.0000
  H   H1971     1.0  0.97605  0.52526  0.78563  1.0000
  H   H1972     1.0  0.83612  0.49319  0.96103  1.0000
  H   H1973     1.0  0.87556  0.52327  0.75605  1.0000
  C   C1983     1.0  0.94573  0.45540  0.74609  1.0000
  N   N166      1.0  0.87792  0.48299  0.74674  1.0000
  Fe  Fe332     1.0  0.52481  0.64707  0.94422  1.0000
  C   C1984     1.0  0.70122  0.55259  0.98035  1.0000
  H   H1974     1.0  0.60105  0.47317  0.98778  1.0000
  H   H1975     1.0  0.73885  0.36196  0.97960  1.0000
  H   H1976     1.0  0.69520  0.56168  0.98578  1.0000
  C   C1985     1.0  0.64523  0.48508  0.98268  1.0000
  C   C1986     1.0  0.65937  0.57927  0.98455  1.0000
  H   H1977     1.0  0.81667  0.44694  0.98542  1.0000
  C   C1987     1.0  0.99605  0.52005  0.76116  1.0000
  C   C1988     1.0  0.58998  0.33771  0.98252  1.0000
  H   H1978     1.0  0.95308  0.52225  0.74663  1.0000
  H   H1979     1.0  0.53227  0.54971  0.96527  1.0000
  H   H1980     1.0  0.54763  0.58401  0.98377  1.0000
  S   S664      1.0  0.60721  0.44344  0.98366  1.0000
  H   H1981     1.0  0.58933  0.33247  0.97380  1.0000
  C   C1989     1.0  0.99717  0.45900  0.83152  1.0000
  H   H1982     1.0  0.99911  0.52647  0.76745  1.0000
  N   N167      1.0  0.96901  0.48273  0.74090  1.0000
  H   H1983     1.0  0.98045  0.51930  0.74229  1.0000
  S   S665      1.0  0.51858  0.60019  0.97906  1.0000
  H   H1984     1.0  0.64053  0.35620  0.97012  1.0000
  C   C1990     1.0  0.61744  0.35928  0.98147  1.0000
  H   H1985     1.0  0.89771  0.48984  0.74539  1.0000
  H   H1986     1.0  0.57995  0.34698  0.98360  1.0000
  C   C1991     1.0  0.52906  0.55679  0.98555  1.0000
  C   C1992     1.0  0.70097  0.53797  0.98792  1.0000
  C   C1993     1.0  0.65505  0.55525  0.98648  1.0000
  C   C1994     1.0  0.95807  0.52288  0.75525  1.0000
  C   C1995     1.0  0.93207  0.46303  0.74215  1.0000
  C   C1996     1.0  0.55705  0.53873  0.98781  1.0000
  S   S666      1.0  0.97561  0.44332  0.73969  1.0000
  H   H1987     1.0  0.51835  0.56436  0.98449  1.0000
  H   H1988     1.0  0.65729  0.58905  0.98898  1.0000
  H   H1989     1.0  0.56806  0.53174  0.98859  1.0000
  C   C1997     1.0  0.68989  0.46240  0.98865  1.0000
  C   C1998     1.0  0.53698  0.80341  0.01099  1.0000
  C   C1999     1.0  0.53149  0.76494  0.02682  1.0000
  S   S667      1.0  0.54684  0.96464  0.17788  1.0000
  Fe  Fe333     1.0  0.54656  0.92501  0.17622  1.0000
  S   S668      1.0  0.52634  0.94363  0.17485  1.0000
  S   S669      1.0  0.54683  0.90185  0.17548  1.0000
  H   H1990     1.0  0.54273  0.76100  0.04458  1.0000
  Fe  Fe334     1.0  0.54290  0.95654  0.15982  1.0000
  S   S670      1.0  0.53994  0.97071  0.13767  1.0000
  S   S671      1.0  0.56278  0.93753  0.15994  1.0000
  C   C2000     1.0  0.50437  0.87987  0.17055  1.0000
  C   C2001     1.0  0.53353  0.76780  0.03952  1.0000
  N   N168      1.0  0.50109  0.89609  0.16687  1.0000
  H   H1991     1.0  0.53501  0.92489  0.09430  1.0000
  C   C2002     1.0  0.53171  0.98960  0.22588  1.0000
  Fe  Fe335     1.0  0.53998  0.74917  0.99774  1.0000
  H   H1992     1.0  0.50496  0.82583  0.06272  1.0000
  N   N169      1.0  0.54969  0.91809  0.10936  1.0000
  C   C2003     1.0  0.51955  0.77373  0.02035  1.0000
  C   C2004     1.0  0.57661  0.95413  0.22354  1.0000
  C   C2005     1.0  0.60367  0.97655  0.20536  1.0000
  H   H1993     1.0  0.53333  0.95701  0.11835  1.0000
  C   C2006     1.0  0.53293  0.94200  0.10556  1.0000
  S   S672      1.0  0.51973  0.90302  0.08664  1.0000
  H   H1994     1.0  0.52273  0.91392  0.13291  1.0000
  N   N170      1.0  0.54376  0.79649  0.99940  1.0000
  C   C2007     1.0  0.57572  0.95403  0.20919  1.0000
  C   C2008     1.0  0.58756  0.94565  0.20046  1.0000
  C   C2009     1.0  0.50890  0.93105  0.21739  1.0000
  H   H1995     1.0  0.52551  0.78183  0.05539  1.0000
  C   C2010     1.0  0.50860  0.94241  0.22396  1.0000
  H   H1996     1.0  0.54095  0.79958  0.02123  1.0000
  S   S673      1.0  0.55135  0.92972  0.19589  1.0000
  C   C2011     1.0  0.53900  0.92792  0.10235  1.0000
  C   C2012     1.0  0.51894  0.81990  0.99712  1.0000
  Fe  Fe336     1.0  0.50609  0.92616  0.08656  1.0000
  H   H1997     1.0  0.55303  0.93925  0.13072  1.0000
  H   H1998     1.0  0.60918  0.93067  0.19947  1.0000
  H   H1999     1.0  0.56757  0.96068  0.23023  1.0000
  S   S674      1.0  0.58737  0.94586  0.18223  1.0000
  C   C2013     1.0  0.60065  0.93682  0.22062  1.0000
  H   H2000     1.0  0.55865  0.89492  0.11585  1.0000
  C   C2014     1.0  0.53397  0.90929  0.15099  1.0000
  C   C2015     1.0  0.55595  0.90336  0.10589  1.0000
  C   C2016     1.0  0.54164  0.89819  0.16089  1.0000
  H   H2001     1.0  0.61025  0.92997  0.22504  1.0000
  H   H2002     1.0  0.56897  0.98972  0.22759  1.0000
  H   H2003     1.0  0.50219  0.71881  0.03800  1.0000
  H   H2004     1.0  0.53140  0.92072  0.15195  1.0000
  C   C2017     1.0  0.60004  0.93717  0.20617  1.0000
  H   H2005     1.0  0.57009  0.98522  0.15753  1.0000
  H   H2006     1.0  0.50912  0.82888  0.99627  1.0000
  C   C2018     1.0  0.52904  0.90545  0.14026  1.0000
  Fe  Fe337     1.0  0.56534  0.94441  0.17940  1.0000
  C   C2019     1.0  0.52378  0.77956  0.04564  1.0000
  H   H2007     1.0  0.56336  0.91431  0.12487  1.0000
  H   H2008     1.0  0.49999  0.97768  0.04732  1.0000
  C   C2020     1.0  0.54910  0.93614  0.12266  1.0000
  H   H2009     1.0  0.56619  0.90351  0.09702  1.0000
  Fe  Fe338     1.0  0.53251  0.94957  0.19312  1.0000
  H   H2010     1.0  0.52434  0.94969  0.10013  1.0000
  C   C2021     1.0  0.55493  0.92211  0.11924  1.0000
  H   H2011     1.0  0.54274  0.86817  0.14815  1.0000
  H   H2012     1.0  0.56605  0.96060  0.20477  1.0000
  S   S675      1.0  0.52251  0.73781  0.99771  1.0000
  H   H2013     1.0  0.55066  0.87481  0.16734  1.0000
  C   C2022     1.0  0.54475  0.88343  0.15973  1.0000
  S   S676      1.0  0.52655  0.88470  0.12628  1.0000
  S   S677      1.0  0.51807  0.95638  0.21393  1.0000
  H   H2014     1.0  0.56494  0.97807  0.14475  1.0000
  C   C2023     1.0  0.54022  0.87967  0.14889  1.0000
  H   H2015     1.0  0.52452  0.97320  0.06824  1.0000
  S   S678      1.0  0.54435  0.75077  0.01885  1.0000
  H   H2016     1.0  0.51784  0.77151  0.01060  1.0000
  C   C2024     1.0  0.50441  0.90367  0.17522  1.0000
  C   C2025     1.0  0.53799  0.94610  0.11579  1.0000
  H   H2017     1.0  0.55650  0.77540  0.99521  1.0000
  C   C2026     1.0  0.53219  0.89057  0.13925  1.0000
  H   H2018     1.0  0.54774  0.89968  0.10224  1.0000
  S   S679      1.0  0.51617  0.94559  0.07370  1.0000
  Fe  Fe339     1.0  0.51135  0.89905  0.11115  1.0000
  H   H2019     1.0  0.51607  0.70973  0.99325  1.0000
  S   S680      1.0  0.50077  0.80392  0.04625  1.0000
  H   H2020     1.0  0.51842  0.97780  0.16359  1.0000
  C   C2027     1.0  0.50677  0.96197  0.07993  1.0000
  H   H2021     1.0  0.59976  0.98414  0.18326  1.0000
  H   H2022     1.0  0.51886  0.82035  0.01942  1.0000
  C   C2028     1.0  0.51195  0.78850  0.03909  1.0000
  H   H2023     1.0  0.60662  0.96493  0.20489  1.0000
  C   C2029     1.0  0.51351  0.97409  0.07539  1.0000
  C   C2030     1.0  0.52446  0.81518  0.01004  1.0000
  C   C2031     1.0  0.52650  0.98679  0.14057  1.0000
  H   H2024     1.0  0.50640  0.81977  0.08186  1.0000
  H   H2025     1.0  0.56780  0.98630  0.20337  1.0000
  H   H2026     1.0  0.53997  0.98106  0.23108  1.0000
  H   H2027     1.0  0.50570  0.86248  0.05157  1.0000
  C   C2032     1.0  0.50978  0.78548  0.02650  1.0000
  C   C2033     1.0  0.58906  0.94537  0.22929  1.0000
  H   H2028     1.0  0.51011  0.89778  0.18419  1.0000
  H   H2029     1.0  0.57931  0.91694  0.23675  1.0000
  C   C2034     1.0  0.59995  0.98737  0.19315  1.0000
  H   H2030     1.0  0.51168  0.83674  0.07071  1.0000
  H   H2031     1.0  0.54290  0.93789  0.22779  1.0000
  C   C2035     1.0  0.50610  0.98731  0.08019  1.0000
  H   H2032     1.0  0.51392  0.87526  0.17621  1.0000
  H   H2033     1.0  0.50080  0.79235  0.02130  1.0000
  H   H2034     1.0  0.50354  0.92510  0.17876  1.0000
  C   C2036     1.0  0.60337  0.98072  0.21824  1.0000
  H   H2035     1.0  0.51525  0.93062  0.20629  1.0000
  S   S681      1.0  0.50235  0.88095  0.07137  1.0000
  C   C2037     1.0  0.50360  0.82961  0.07305  1.0000
  H   H2036     1.0  0.50753  0.87534  0.16037  1.0000
  H   H2037     1.0  0.55733  0.77872  0.01221  1.0000
  C   C2038     1.0  0.56326  0.98818  0.14901  1.0000
  C   C2039     1.0  0.55690  0.78418  0.00049  1.0000
  C   C2040     1.0  0.52851  0.98826  0.21304  1.0000
  H   H2038     1.0  0.53446  0.97864  0.20834  1.0000
  C   C2041     1.0  0.51764  0.98748  0.15468  1.0000
  H   H2039     1.0  0.56729  0.78822  0.99506  1.0000
  H   H2040     1.0  0.56909  0.92441  0.22238  1.0000
  C   C2042     1.0  0.56797  0.91944  0.23439  1.0000
  H   H2041     1.0  0.60596  0.97230  0.22789  1.0000
  H   H2042     1.0  0.51392  0.98612  0.19387  1.0000
  H   H2043     1.0  0.50985  0.74498  0.03150  1.0000
  C   C2043     1.0  0.50074  0.91915  0.17217  1.0000
  C   C2044     1.0  0.50037  0.92055  0.22491  1.0000
  H   H2044     1.0  0.50027  0.91206  0.21958  1.0000
  C   C2045     1.0  0.54470  0.93829  0.23832  1.0000
  C   C2046     1.0  0.50052  0.94271  0.23845  1.0000
  H   H2045     1.0  0.56424  0.90894  0.23678  1.0000
  S   S682      1.0  0.49957  0.92261  0.11122  1.0000
  C   C2047     1.0  0.50669  0.69297  0.99042  1.0000
  Fe  Fe340     1.0  0.92296  0.85193  0.41782  1.0000
  H   H2046     1.0  0.88212  0.87221  0.38191  1.0000
  S   S683      1.0  0.93250  0.84996  0.39434  1.0000
  S   S684      1.0  0.93244  0.86549  0.42687  1.0000
  S   S685      1.0  0.89906  0.86215  0.42635  1.0000
  S   S686      1.0  0.93684  0.72568  0.45672  1.0000
  S   S687      1.0  0.81881  0.97268  0.40347  1.0000
  H   H2047     1.0  0.94604  0.81649  0.40158  1.0000
  H   H2048     1.0  0.84108  0.94091  0.46137  1.0000
  C   C2048     1.0  0.77423  0.98793  0.47602  1.0000
  C   C2049     1.0  0.98213  0.66084  0.41257  1.0000
  C   C2050     1.0  0.70410  0.95426  0.33278  1.0000
  C   C2051     1.0  0.85986  0.92248  0.46442  1.0000
  Fe  Fe341     1.0  0.88767  0.74929  0.48403  1.0000
  S   S688      1.0  0.63601  0.95910  0.36914  1.0000
  H   H2049     1.0  0.89729  0.82563  0.43120  1.0000
  C   C2052     1.0  0.99028  0.85742  0.44359  1.0000
  C   C2053     1.0  0.97513  0.70854  0.39468  1.0000
  H   H2050     1.0  0.66471  0.95972  0.39270  1.0000
  H   H2051     1.0  0.95027  0.71505  0.48427  1.0000
  Fe  Fe342     1.0  0.57702  0.96221  0.25938  1.0000
  S   S689      1.0  0.68243  0.97917  0.39257  1.0000
  H   H2052     1.0  0.90998  0.72511  0.41630  1.0000
  H   H2053     1.0  0.71795  0.96348  0.42694  1.0000
  C   C2054     1.0  0.89372  0.79310  0.48213  1.0000
  H   H2054     1.0  0.92642  0.80203  0.46236  1.0000
  C   C2055     1.0  0.90637  0.79379  0.47078  1.0000
  S   S690      1.0  0.98750  0.69173  0.34449  1.0000
  S   S691      1.0  0.57024  0.95725  0.28405  1.0000
  Fe  Fe343     1.0  0.70115  0.95961  0.38865  1.0000
  S   S692      1.0  0.71624  0.95451  0.36743  1.0000
  C   C2056     1.0  0.69729  0.94434  0.33026  1.0000
  Fe  Fe344     1.0  0.71540  0.93104  0.40754  1.0000
  S   S693      1.0  0.73114  0.92272  0.38804  1.0000
  S   S694      1.0  0.71540  0.92112  0.43151  1.0000
  Fe  Fe345     1.0  0.73453  0.94598  0.38018  1.0000
  S   S695      1.0  0.75808  0.94919  0.37243  1.0000
  Fe  Fe346     1.0  0.71145  0.93188  0.37709  1.0000
  S   S696      1.0  0.70223  0.92143  0.36452  1.0000
  S   S697      1.0  0.71994  0.95373  0.40030  1.0000
  S   S698      1.0  0.69536  0.93759  0.39758  1.0000
  H   H2055     1.0  0.70995  0.90107  0.46593  1.0000
  N   N171      1.0  0.85759  0.89933  0.46131  1.0000
  C   C2057     1.0  0.84373  0.90590  0.45825  1.0000
  C   C2058     1.0  0.59545  0.96363  0.34644  1.0000
  H   H2056     1.0  0.97873  0.67589  0.48477  1.0000
  H   H2057     1.0  0.64524  0.98436  0.43519  1.0000
  H   H2058     1.0  0.62879  0.96954  0.39798  1.0000
  Fe  Fe347     1.0  0.92363  0.75846  0.37465  1.0000
  S   S699      1.0  0.94837  0.75579  0.36852  1.0000
  S   S700      1.0  0.91690  0.73672  0.38140  1.0000
  Fe  Fe348     1.0  0.91786  0.79170  0.37070  1.0000
  S   S701      1.0  0.94220  0.79188  0.36455  1.0000
  S   S702      1.0  0.90023  0.81212  0.37460  1.0000
  Fe  Fe349     1.0  0.94395  0.77588  0.35079  1.0000
  H   H2059     1.0  0.88481  0.92922  0.42987  1.0000
  Fe  Fe350     1.0  0.94448  0.77184  0.38274  1.0000
  S   S703      1.0  0.96005  0.76788  0.39770  1.0000
  S   S704      1.0  0.91930  0.77720  0.35532  1.0000
  S   S705      1.0  0.91988  0.77308  0.39044  1.0000
  C   C2059     1.0  0.94166  0.69588  0.43782  1.0000
  C   C2060     1.0  0.94251  0.71392  0.34319  1.0000
  C   C2061     1.0  0.93202  0.72735  0.34076  1.0000
  C   C2062     1.0  0.92416  0.73435  0.35253  1.0000
  C   C2063     1.0  0.92640  0.72768  0.36684  1.0000
  C   C2064     1.0  0.93684  0.71422  0.36931  1.0000
  C   C2065     1.0  0.94499  0.70741  0.35746  1.0000
  H   H2060     1.0  0.93007  0.73243  0.32975  1.0000
  H   H2061     1.0  0.91625  0.74485  0.35054  1.0000
  H   H2062     1.0  0.93887  0.70924  0.38028  1.0000
  Fe  Fe351     1.0  0.79725  0.97134  0.41976  1.0000
  H   H2063     1.0  0.97254  0.76999  0.35426  1.0000
  Fe  Fe352     1.0  0.88176  0.72948  0.46786  1.0000
  H   H2064     1.0  0.86253  0.89577  0.38014  1.0000
  Fe  Fe353     1.0  0.96705  0.66291  0.46725  1.0000
  H   H2065     1.0  0.72287  0.93017  0.45407  1.0000
  H   H2066     1.0  0.52228  0.98848  0.26663  1.0000
  H   H2067     1.0  0.97822  0.84718  0.48208  1.0000
  Fe  Fe354     1.0  0.63613  0.98321  0.36372  1.0000
  C   C2066     1.0  0.99274  0.84201  0.44828  1.0000
  H   H2068     1.0  0.96739  0.83028  0.42429  1.0000
  H   H2069     1.0  0.60313  0.95287  0.34778  1.0000
  H   H2070     1.0  0.73399  0.89518  0.47373  1.0000
  H   H2071     1.0  0.69783  0.98194  0.34616  1.0000
  H   H2072     1.0  0.99763  0.77002  0.35682  1.0000
  H   H2073     1.0  0.55246  0.98244  0.33559  1.0000
  C   C2067     1.0  0.89943  0.69310  0.47162  1.0000
  C   C2068     1.0  0.69436  0.94637  0.43602  1.0000
  H   H2074     1.0  0.95528  0.77892  0.44567  1.0000
  H   H2075     1.0  0.98856  0.81349  0.48328  1.0000
  H   H2076     1.0  0.93517  0.76168  0.48915  1.0000
  H   H2077     1.0  0.67732  0.94162  0.32598  1.0000
  C   C2069     1.0  0.98859  0.74135  0.32117  1.0000
  S   S706      1.0  0.90895  0.85697  0.45816  1.0000
  H   H2078     1.0  0.99295  0.65836  0.28586  1.0000
  C   C2070     1.0  0.97842  0.72613  0.37142  1.0000
  N   N172      1.0  0.55720  0.92963  0.24324  1.0000
  S   S707      1.0  0.87142  0.71064  0.47036  1.0000
  N   N173      1.0  0.99207  0.85238  0.40946  1.0000
  H   H2079     1.0  0.75662  0.95786  0.46743  1.0000
  H   H2080     1.0  0.95259  0.67819  0.40922  1.0000
  C   C2071     1.0  0.88321  0.90734  0.42991  1.0000
  S   S708      1.0  0.95952  0.77726  0.32868  1.0000
  C   C2072     1.0  0.90946  0.68023  0.47700  1.0000
  C   C2073     1.0  0.99477  0.77371  0.34607  1.0000
  C   C2074     1.0  0.97931  0.68736  0.48038  1.0000
  S   S709      1.0  0.96715  0.66670  0.35318  1.0000
  C   C2075     1.0  0.53410  0.94782  0.24676  1.0000
  H   H2081     1.0  0.78175  0.96332  0.45860  1.0000
  C   C2076     1.0  0.98138  0.65955  0.39870  1.0000
  H   H2082     1.0  0.96126  0.67968  0.43093  1.0000
  H   H2083     1.0  0.86635  0.92891  0.46666  1.0000
  C   C2077     1.0  0.65444  0.94873  0.36643  1.0000
  C   C2078     1.0  0.65760  0.93363  0.36632  1.0000
  C   C2079     1.0  0.67239  0.92523  0.36521  1.0000
  C   C2080     1.0  0.68384  0.93183  0.36481  1.0000
  C   C2081     1.0  0.68057  0.94693  0.36486  1.0000
  C   C2082     1.0  0.66601  0.95544  0.36520  1.0000
  H   H2084     1.0  0.64864  0.92842  0.36725  1.0000
  H   H2085     1.0  0.67486  0.91355  0.36522  1.0000
  H   H2086     1.0  0.68925  0.95217  0.36448  1.0000
  H   H2087     1.0  0.66370  0.96709  0.36512  1.0000
  C   C2083     1.0  0.94419  0.73629  0.43997  1.0000
  C   C2084     1.0  0.93753  0.73935  0.42790  1.0000
  C   C2085     1.0  0.94302  0.74835  0.41461  1.0000
  C   C2086     1.0  0.95453  0.75506  0.41365  1.0000
  C   C2087     1.0  0.96135  0.75178  0.42561  1.0000
  C   C2088     1.0  0.95631  0.74226  0.43876  1.0000
  H   H2088     1.0  0.92818  0.73478  0.42872  1.0000
  H   H2089     1.0  0.93823  0.75015  0.40518  1.0000
  H   H2090     1.0  0.97014  0.75703  0.42490  1.0000
  H   H2091     1.0  0.96138  0.74006  0.44814  1.0000
  H   H2092     1.0  0.90460  0.84076  0.40740  1.0000
  C   C2089     1.0  0.70680  0.93595  0.44034  1.0000
  H   H2093     1.0  0.68976  0.94505  0.42749  1.0000
  C   C2090     1.0  0.68295  0.94934  0.32734  1.0000
  Fe  Fe355     1.0  0.98239  0.77286  0.46373  1.0000
  C   C2091     1.0  0.97863  0.84837  0.41505  1.0000
  Fe  Fe356     1.0  0.91233  0.73513  0.46151  1.0000
  H   H2094     1.0  0.93891  0.80664  0.39262  1.0000
  S   S710      1.0  0.55460  0.97606  0.25619  1.0000
  C   C2092     1.0  0.71291  0.93789  0.45112  1.0000
  C   C2093     1.0  0.77053  0.97106  0.40237  1.0000
  C   C2094     1.0  0.78035  0.95852  0.39779  1.0000
  C   C2095     1.0  0.77641  0.95165  0.38871  1.0000
  C   C2096     1.0  0.76258  0.95717  0.38449  1.0000
  C   C2097     1.0  0.75273  0.96957  0.38929  1.0000
  S   S711      1.0  0.86992  0.75239  0.47150  1.0000
  H   H2095     1.0  0.79099  0.95421  0.40109  1.0000
  H   H2096     1.0  0.78408  0.94209  0.38492  1.0000
  C   C2098     1.0  0.63231  0.97249  0.40641  1.0000
  S   S712      1.0  0.89784  0.72576  0.48231  1.0000
  C   C2099     1.0  0.92287  0.84037  0.38844  1.0000
  C   C2100     1.0  0.92894  0.83568  0.37508  1.0000
  C   C2101     1.0  0.92180  0.82725  0.37067  1.0000
  C   C2102     1.0  0.90843  0.82375  0.37945  1.0000
  C   C2103     1.0  0.90206  0.82893  0.39255  1.0000
  C   C2104     1.0  0.90937  0.83709  0.39713  1.0000
  H   H2097     1.0  0.93933  0.83827  0.36828  1.0000
  H   H2098     1.0  0.92661  0.82351  0.36040  1.0000
  H   H2099     1.0  0.89169  0.82628  0.39935  1.0000
  H   H2100     1.0  0.97865  0.72935  0.35966  1.0000
  C   C2105     1.0  0.97549  0.71246  0.37948  1.0000
  H   H2101     1.0  0.67854  0.96690  0.43904  1.0000
  C   C2106     1.0  0.62251  0.98313  0.41405  1.0000
  S   S713      1.0  0.97517  0.78781  0.47981  1.0000
  C   C2107     1.0  0.75680  0.97659  0.39806  1.0000
  C   C2108     1.0  0.93203  0.69455  0.41362  1.0000
  C   C2109     1.0  0.76394  0.95082  0.43762  1.0000
  C   C2110     1.0  0.75048  0.96093  0.43569  1.0000
  C   C2111     1.0  0.95131  0.79182  0.42438  1.0000
  C   C2112     1.0  0.96313  0.74199  0.32011  1.0000
  H   H2102     1.0  0.97371  0.87785  0.44029  1.0000
  C   C2113     1.0  0.86219  0.90636  0.42086  1.0000
  Fe  Fe357     1.0  0.97098  0.68660  0.33525  1.0000
  H   H2103     1.0  0.56929  0.92321  0.26051  1.0000
  H   H2104     1.0  0.70279  0.93267  0.33138  1.0000
  H   H2105     1.0  0.98305  0.87488  0.41160  1.0000
  N   N174      1.0  0.87635  0.78616  0.39275  1.0000
  C   C2114     1.0  0.87770  0.78973  0.37775  1.0000
  C   C2115     1.0  0.87922  0.77164  0.40001  1.0000
  C   C2116     1.0  0.88185  0.77861  0.36964  1.0000
  C   C2117     1.0  0.88346  0.76026  0.39224  1.0000
  C   C2118     1.0  0.88481  0.76379  0.37696  1.0000
  C   C2119     1.0  0.87268  0.79787  0.40106  1.0000
  H   H2106     1.0  0.87590  0.80123  0.37191  1.0000
  H   H2107     1.0  0.87844  0.76879  0.41184  1.0000
  H   H2108     1.0  0.88318  0.78150  0.35772  1.0000
  H   H2109     1.0  0.88605  0.74877  0.39798  1.0000
  H   H2110     1.0  0.88849  0.75503  0.37079  1.0000
  H   H2111     1.0  0.86772  0.80882  0.39472  1.0000
  H   H2112     1.0  0.86464  0.79529  0.41168  1.0000
  H   H2113     1.0  0.88304  0.79880  0.40355  1.0000
  Fe  Fe358     1.0  0.57835  0.97738  0.28299  1.0000
  N   N175      1.0  0.74037  0.95742  0.43034  1.0000
  H   H2114     1.0  0.89747  0.80481  0.42059  1.0000
  C   C2120     1.0  0.71094  0.90665  0.47390  1.0000
  H   H2115     1.0  0.58364  0.95813  0.33335  1.0000
  C   C2121     1.0  0.65629  0.95469  0.40158  1.0000
  H   H2116     1.0  0.91754  0.90287  0.38990  1.0000
  N   N176      1.0  0.91422  0.80833  0.48265  1.0000
  C   C2122     1.0  0.87493  0.89916  0.42673  1.0000
  H   H2117     1.0  0.97346  0.70497  0.37401  1.0000
  H   H2118     1.0  0.89990  0.71201  0.42968  1.0000
  H   H2119     1.0  0.86033  0.87706  0.47335  1.0000
  N   N177      1.0  0.89928  0.89376  0.39101  1.0000
  H   H2120     1.0  0.92281  0.79290  0.40965  1.0000
  Fe  Fe359     1.0  0.90845  0.87426  0.43716  1.0000
  C   C2123     1.0  0.83762  0.92095  0.45817  1.0000
  H   H2121     1.0  0.52794  0.95542  0.26718  1.0000
  C   C2124     1.0  0.86360  0.88341  0.46194  1.0000
  C   C2125     1.0  0.97568  0.86590  0.44369  1.0000
  S   S714      1.0  0.97403  0.68419  0.45489  1.0000
  N   N178      1.0  0.92327  0.70375  0.42283  1.0000
  C   C2126     1.0  0.77950  0.95494  0.46847  1.0000
  H   H2122     1.0  0.94526  0.69656  0.44734  1.0000
  Fe  Fe360     1.0  0.88703  0.75960  0.45153  1.0000
  H   H2123     1.0  0.55058  0.93961  0.27601  1.0000
  H   H2124     1.0  0.82665  0.92619  0.45571  1.0000
  Fe  Fe361     1.0  0.82331  0.98311  0.41954  1.0000
  H   H2125     1.0  0.98124  0.73943  0.39941  1.0000
  C   C2127     1.0  0.55932  0.92995  0.25665  1.0000
  H   H2126     1.0  0.73563  0.94113  0.42219  1.0000
  N   N179      1.0  0.69928  0.91737  0.47904  1.0000
  C   C2128     1.0  0.94650  0.80533  0.40006  1.0000
  C   C2129     1.0  0.97802  0.83341  0.41932  1.0000
  H   H2127     1.0  0.91640  0.77572  0.43339  1.0000
  H   H2128     1.0  0.76746  0.97982  0.35165  1.0000
  H   H2129     1.0  0.96146  0.79585  0.42167  1.0000
  N   N180      1.0  0.64619  0.96600  0.40943  1.0000
  H   H2130     1.0  0.87601  0.88085  0.45852  1.0000
  C   C2130     1.0  0.65099  0.97037  0.41937  1.0000
  C   C2131     1.0  0.84575  0.92925  0.46132  1.0000
  H   H2131     1.0  0.93283  0.76847  0.45158  1.0000
  N   N181      1.0  0.69692  0.96884  0.33209  1.0000
  S   S715      1.0  0.98545  0.67375  0.38352  1.0000
  C   C2132     1.0  0.75684  0.93366  0.42823  1.0000
  H   H2132     1.0  0.90542  0.87117  0.38899  1.0000
  S   S716      1.0  0.92426  0.83252  0.43691  1.0000
  H   H2133     1.0  0.91031  0.89243  0.40782  1.0000
  C   C2133     1.0  0.89077  0.80589  0.43143  1.0000
  H   H2134     1.0  0.92176  0.88302  0.39334  1.0000
  C   C2134     1.0  0.76525  0.95188  0.47347  1.0000
  C   C2135     1.0  0.88857  0.90670  0.39013  1.0000
  Fe  Fe362     1.0  0.82828  0.95111  0.41763  1.0000
  C   C2136     1.0  0.70652  0.95016  0.45770  1.0000
  S   S717      1.0  0.80605  0.94876  0.43243  1.0000
  H   H2135     1.0  0.86241  0.94200  0.41922  1.0000
  H   H2136     1.0  0.85943  0.87952  0.45429  1.0000
  C   C2137     1.0  0.93521  0.77645  0.44134  1.0000
  C   C2138     1.0  0.89704  0.88149  0.38813  1.0000
  S   S718      1.0  0.95284  0.70570  0.32821  1.0000
  C   C2139     1.0  0.98268  0.71033  0.48356  1.0000
  S   S719      1.0  0.89916  0.89849  0.43741  1.0000
  C   C2140     1.0  0.88384  0.88202  0.38411  1.0000
  C   C2141     1.0  0.87850  0.92280  0.42740  1.0000
  C   C2142     1.0  0.92608  0.78042  0.43112  1.0000
  C   C2143     1.0  0.85762  0.92182  0.41815  1.0000
  C   C2144     1.0  0.94784  0.78227  0.43802  1.0000
  H   H2137     1.0  0.77771  0.92936  0.43495  1.0000
  Fe  Fe363     1.0  0.54846  0.97295  0.28077  1.0000
  H   H2138     1.0  0.95795  0.80050  0.39436  1.0000
  H   H2139     1.0  0.98169  0.72850  0.46469  1.0000
  C   C2145     1.0  0.68797  0.95869  0.44257  1.0000
  C   C2146     1.0  0.86572  0.93004  0.42153  1.0000
  C   C2147     1.0  0.91290  0.89295  0.39574  1.0000
  C   C2148     1.0  0.92980  0.79012  0.41765  1.0000
  C   C2149     1.0  0.90403  0.66871  0.48762  1.0000
  N   N182      1.0  0.94235  0.79559  0.41439  1.0000
  H   H2140     1.0  0.90808  0.78855  0.46166  1.0000
  C   C2150     1.0  0.69415  0.96065  0.45331  1.0000
  H   H2141     1.0  0.77207  0.95387  0.44146  1.0000
  C   C2151     1.0  0.87291  0.89521  0.38308  1.0000
  C   C2152     1.0  0.64142  0.98084  0.42733  1.0000
  H   H2142     1.0  0.86752  0.78852  0.46009  1.0000
  H   H2143     1.0  0.98182  0.72093  0.42125  1.0000
  S   S720      1.0  0.68693  0.97650  0.46073  1.0000
  C   C2153     1.0  0.87529  0.90765  0.38604  1.0000
  C   C2154     1.0  0.88398  0.69424  0.47641  1.0000
  S   S721      1.0  0.95124  0.83471  0.45777  1.0000
  H   H2144     1.0  0.52434  0.95482  0.24272  1.0000
  Fe  Fe364     1.0  0.90123  0.84420  0.44657  1.0000
  Fe  Fe365     1.0  0.81201  0.96077  0.44606  1.0000
  S   S722      1.0  0.84235  0.93055  0.40971  1.0000
  S   S723      1.0  0.83492  0.96166  0.43221  1.0000
  C   C2155     1.0  0.97866  0.70886  0.46024  1.0000
  C   C2156     1.0  0.51073  0.97598  0.28633  1.0000
  H   H2145     1.0  0.92837  0.69396  0.40411  1.0000
  S   S724      1.0  0.88449  0.77947  0.43307  1.0000
  C   C2157     1.0  0.79065  0.94749  0.47645  1.0000
  H   H2146     1.0  0.88588  0.78682  0.48216  1.0000
  H   H2147     1.0  0.89009  0.91628  0.39294  1.0000
  C   C2158     1.0  0.98063  0.83512  0.45296  1.0000
  H   H2148     1.0  0.92136  0.67942  0.47324  1.0000
  Fe  Fe366     1.0  0.93196  0.84685  0.44677  1.0000
  S   S725      1.0  0.72700  0.97324  0.46642  1.0000
  C   C2159     1.0  0.96361  0.85899  0.44800  1.0000
  H   H2149     1.0  0.74214  0.97402  0.38588  1.0000
  H   H2150     1.0  0.86669  0.91787  0.38564  1.0000
  C   C2160     1.0  0.96609  0.84359  0.45262  1.0000
  H   H2151     1.0  0.95236  0.86559  0.44794  1.0000
  H   H2152     1.0  0.75922  0.92314  0.42500  1.0000
  C   C2161     1.0  0.97681  0.77847  0.33072  1.0000
  H   H2153     1.0  0.71032  0.98751  0.38267  1.0000
  S   S726      1.0  0.89721  0.73699  0.44671  1.0000
  C   C2162     1.0  0.59857  0.98705  0.30452  1.0000
  H   H2154     1.0  0.87810  0.88729  0.42899  1.0000
  S   S727      1.0  0.90372  0.75848  0.46432  1.0000
  S   S728      1.0  0.77493  0.98011  0.41356  1.0000
  C   C2163     1.0  0.76715  0.93712  0.43382  1.0000
  H   H2155     1.0  0.68050  0.93332  0.47222  1.0000
  H   H2156     1.0  0.99314  0.75087  0.44949  1.0000
  H   H2157     1.0  0.86621  0.81015  0.47008  1.0000
  H   H2158     1.0  0.85590  0.89996  0.41834  1.0000
  S   S729      1.0  0.88273  0.83298  0.45959  1.0000
  H   H2159     1.0  0.62133  0.98871  0.32568  1.0000
  C   C2164     1.0  0.88190  0.81915  0.45141  1.0000
  C   C2165     1.0  0.87385  0.79672  0.45368  1.0000
  C   C2166     1.0  0.87311  0.80895  0.45931  1.0000
  C   C2167     1.0  0.90905  0.71335  0.41970  1.0000
  C   C2168     1.0  0.89063  0.81769  0.43740  1.0000
  C   C2169     1.0  0.88270  0.79519  0.43974  1.0000
  H   H2160     1.0  0.97302  0.69782  0.40082  1.0000
  C   C2170     1.0  0.97766  0.69406  0.46591  1.0000
  H   H2161     1.0  0.90587  0.71076  0.41057  1.0000
  H   H2162     1.0  0.95314  0.69710  0.35940  1.0000
  H   H2163     1.0  0.74845  0.97184  0.43795  1.0000
  H   H2164     1.0  0.66233  0.96583  0.42106  1.0000
  H   H2165     1.0  0.97736  0.71408  0.44907  1.0000
  S   S730      1.0  0.59394  0.97345  0.29850  1.0000
  C   C2171     1.0  0.97986  0.73165  0.39388  1.0000
  C   C2172     1.0  0.53614  0.94818  0.26045  1.0000
  C   C2173     1.0  0.54883  0.93923  0.26544  1.0000
  C   C2174     1.0  0.98066  0.73579  0.37866  1.0000
  H   H2166     1.0  0.71136  0.95162  0.46596  1.0000
  H   H2167     1.0  0.72919  0.97657  0.41722  1.0000
  H   H2168     1.0  0.96120  0.75379  0.31418  1.0000
  H   H2169     1.0  0.93664  0.81092  0.47783  1.0000
  S   S731      1.0  0.59037  0.94405  0.24745  1.0000
  Fe  Fe367     1.0  0.98532  0.67076  0.36124  1.0000
  H   H2170     1.0  0.99230  0.87221  0.39308  1.0000
  C   C2175     1.0  0.62700  0.98703  0.42482  1.0000
  C   C2176     1.0  0.87859  0.68249  0.48657  1.0000
  C   C2177     1.0  0.91658  0.80154  0.47119  1.0000
  C   C2178     1.0  0.98106  0.71705  0.46908  1.0000
  H   H2171     1.0  0.95679  0.73634  0.31615  1.0000
  Fe  Fe368     1.0  0.70218  0.97682  0.47452  1.0000
  S   S732      1.0  0.96494  0.75962  0.47499  1.0000
  H   H2172     1.0  0.96484  0.71511  0.42372  1.0000
  C   C2179     1.0  0.72671  0.96854  0.42771  1.0000
  C   C2180     1.0  0.68293  0.97387  0.32906  1.0000
  C   C2181     1.0  0.99124  0.82256  0.41754  1.0000
  H   H2173     1.0  0.83733  0.89955  0.45576  1.0000
  C   C2182     1.0  0.98055  0.77372  0.34461  1.0000
  H   H2174     1.0  0.98255  0.82319  0.45655  1.0000
  C   C2183     1.0  0.99481  0.75349  0.43760  1.0000
  C   C2184     1.0  0.94580  0.68568  0.41639  1.0000
  H   H2175     1.0  0.98585  0.67004  0.41363  1.0000
  H   H2176     1.0  0.61161  0.98853  0.41146  1.0000
  C   C2185     1.0  0.95065  0.68647  0.42853  1.0000
  C   C2186     1.0  0.92790  0.70439  0.43485  1.0000
  C   C2187     1.0  0.67572  0.96421  0.32667  1.0000
  H   H2177     1.0  0.98276  0.70221  0.42096  1.0000
  H   H2178     1.0  0.94739  0.69134  0.48123  1.0000
  H   H2179     1.0  0.66218  0.94550  0.40924  1.0000
  S   S733      1.0  0.52687  0.96642  0.29339  1.0000
  H   H2180     1.0  0.71493  0.95007  0.33574  1.0000
  H   H2181     1.0  0.68688  0.91802  0.46332  1.0000
  C   C2188     1.0  0.92514  0.81620  0.48304  1.0000
  C   C2189     1.0  0.60994  0.98254  0.31255  1.0000
  H   H2182     1.0  0.90360  0.70217  0.46380  1.0000
  H   H2183     1.0  0.87669  0.90225  0.46670  1.0000
  H   H2184     1.0  0.70311  0.98951  0.32664  1.0000
  Fe  Fe369     1.0  0.98244  0.74487  0.48728  1.0000
  S   S734      1.0  0.80827  0.95182  0.47044  1.0000
  H   H2185     1.0  0.71580  0.97438  0.33557  1.0000
  C   C2190     1.0  0.97666  0.71386  0.41765  1.0000
  C   C2191     1.0  0.86561  0.90740  0.46446  1.0000
  H   H2186     1.0  0.65019  0.94977  0.39654  1.0000
  N   N183      1.0  0.97743  0.71806  0.40166  1.0000
  H   H2187     1.0  0.96831  0.85673  0.41659  1.0000
  H   H2188     1.0  0.78187  0.97745  0.36927  1.0000
  H   H2189     1.0  0.61632  0.97120  0.31394  1.0000
  C   C2192     1.0  0.74346  0.94400  0.42654  1.0000
  S   S735      1.0  0.94866  0.65895  0.45951  1.0000
  C   C2193     1.0  0.51163  0.98608  0.27273  1.0000
  H   H2190     1.0  0.98264  0.74662  0.37266  1.0000
  H   H2191     1.0  0.95847  0.74152  0.33211  1.0000
  H   H2192     1.0  0.92102  0.71159  0.44222  1.0000
  H   H2193     1.0  0.99092  0.81092  0.42095  1.0000
  C   C2194     1.0  0.99198  0.76826  0.42994  1.0000
  S   S736      1.0  0.80102  0.98323  0.43495  1.0000
  S   S737      1.0  0.58684  0.98107  0.25837  1.0000
  H   H2194     1.0  0.92233  0.82791  0.47715  1.0000
  C   C2195     1.0  0.70381  0.97911  0.33527  1.0000
  H   H2195     1.0  0.72183  0.97471  0.43676  1.0000
  C   C2196     1.0  0.58438  0.96667  0.33833  1.0000
  H   H2196     1.0  0.66448  0.96818  0.32464  1.0000
  S   S738      1.0  0.98630  0.78269  0.43944  1.0000
  C   C2197     1.0  0.68518  0.92114  0.47408  1.0000
  C   C2198     1.0  0.78138  0.98922  0.36599  1.0000
  H   H2197     1.0  0.76790  0.98865  0.46763  1.0000
  H   H2198     1.0  0.56604  0.97560  0.32037  1.0000
  C   C2199     1.0  0.72462  0.90333  0.47818  1.0000
  H   H2199     1.0  0.67720  0.98539  0.32870  1.0000
  C   C2200     1.0  0.56332  0.98342  0.32786  1.0000
  C   C2201     1.0  0.99014  0.84426  0.48175  1.0000
  C   C2202     1.0  0.99257  0.86809  0.40497  1.0000
  C   C2203     1.0  0.98468  0.72279  0.31164  1.0000
  N   N184      1.0  0.57504  0.98043  0.33615  1.0000
  H   H2200     1.0  0.78623  0.98285  0.47213  1.0000
  C   C2204     1.0  0.59687  0.97474  0.35238  1.0000
  H   H2201     1.0  0.67696  0.91536  0.48246  1.0000
  H   H2202     1.0  0.99284  0.86652  0.47110  1.0000
  H   H2203     1.0  0.97722  0.71774  0.30894  1.0000
  C   C2205     1.0  0.99388  0.77153  0.41457  1.0000
  H   H2204     1.0  0.99136  0.78290  0.40861  1.0000
  H   H2205     1.0  0.60570  0.97265  0.35832  1.0000
  C   C2206     1.0  0.98188  0.69547  0.48916  1.0000
  C   C2207     1.0  0.58722  0.98868  0.35020  1.0000
  S   S739      1.0  0.98842  0.67396  0.31948  1.0000
  H   H2206     1.0  0.98441  0.78703  0.30754  1.0000
  N   N185      1.0  0.99715  0.82996  0.48681  1.0000
  C   C2208     1.0  0.98725  0.78341  0.31830  1.0000
  C   C2209     1.0  0.99834  0.85525  0.47550  1.0000
  N   N186      1.0  0.97917  0.73517  0.31756  1.0000
  C   C2210     1.0  0.69039  0.98899  0.39985  1.0000
  H   H2207     1.0  0.74929  0.98637  0.40149  1.0000
  C   C2211     1.0  0.99873  0.76002  0.40686  1.0000
  H   H2208     1.0  0.79628  0.98815  0.37977  1.0000
  C   C2212     1.0  0.76229  0.94087  0.48607  1.0000
  H   H2209     1.0  0.50025  0.95144  0.24363  1.0000
  H   H2210     1.0  0.77007  0.98028  0.48633  1.0000
  H   H2211     1.0  0.98419  0.75107  0.32594  1.0000
  C   C2213     1.0  0.70468  0.99119  0.39287  1.0000
  C   C2214     1.0  0.70065  0.92459  0.48887  1.0000
  Fe  Fe370     1.0  0.72770  0.95876  0.48892  1.0000
  C   C2215     1.0  0.78769  0.93661  0.48918  1.0000
  C   C2216     1.0  0.72622  0.91091  0.48791  1.0000
  Fe  Fe371     1.0  0.70292  0.98058  0.50424  1.0000
  C   C2217     1.0  0.92483  0.76389  0.49706  1.0000
  S   S740      1.0  0.97556  0.75730  0.50552  1.0000
  S   S741      1.0  0.88370  0.75592  0.50563  1.0000
  C   C2218     1.0  0.53870  0.98980  0.62132  1.0000
  H   H2212     1.0  0.98918  0.72946  0.53824  1.0000
  H   H2213     1.0  0.54473  0.99099  0.56379  1.0000
  H   H2214     1.0  0.99588  0.71041  0.52329  1.0000
  H   H2215     1.0  0.99247  0.75962  0.53115  1.0000
  H   H2216     1.0  0.89596  0.72435  0.51580  1.0000
  H   H2217     1.0  0.92547  0.81574  0.49461  1.0000
  H   H2218     1.0  0.90447  0.71307  0.53104  1.0000
  H   H2219     1.0  0.50154  0.92978  0.71212  1.0000
  H   H2220     1.0  0.67225  0.99125  0.50208  1.0000
  S   S742      1.0  0.70291  0.96085  0.49621  1.0000
  C   C2219     1.0  0.90147  0.80831  0.49344  1.0000
  C   C2220     1.0  0.57202  0.98804  0.67539  1.0000
  S   S743      1.0  0.54824  0.95946  0.69788  1.0000
  H   H2221     1.0  0.56699  0.97942  0.67498  1.0000
  C   C2221     1.0  0.91298  0.75791  0.49729  1.0000
  S   S744      1.0  0.55792  0.96731  0.65650  1.0000
  Fe  Fe372     1.0  0.52767  0.95042  0.70651  1.0000
  C   C2222     1.0  0.56496  0.97987  0.61228  1.0000
  C   C2223     1.0  0.57851  0.98622  0.68734  1.0000
  H   H2222     1.0  0.89949  0.81390  0.50238  1.0000
  S   S745      1.0  0.72793  0.97682  0.49932  1.0000
  H   H2223     1.0  0.73685  0.90877  0.49109  1.0000
  Fe  Fe373     1.0  0.53395  0.98013  0.70491  1.0000
  H   H2224     1.0  0.57449  0.97836  0.60319  1.0000
  S   S746      1.0  0.51396  0.97039  0.71540  1.0000
  S   S747      1.0  0.68839  0.98640  0.52532  1.0000
  C   C2224     1.0  0.54053  0.98360  0.63598  1.0000
  H   H2225     1.0  0.57034  0.99099  0.56242  1.0000
  C   C2225     1.0  0.56675  0.97365  0.62677  1.0000
  S   S748      1.0  0.52037  0.95777  0.68492  1.0000
  H   H2226     1.0  0.98318  0.69022  0.50034  1.0000
  C   C2226     1.0  0.55459  0.97539  0.63865  1.0000
  C   C2227     1.0  0.55098  0.98787  0.60947  1.0000
  C   C2228     1.0  0.89769  0.76979  0.51723  1.0000
  H   H2227     1.0  0.88435  0.66097  0.50052  1.0000
  H   H2228     1.0  0.57763  0.96734  0.62877  1.0000
  Fe  Fe374     1.0  0.50822  0.97864  0.69312  1.0000
  S   S749      1.0  0.52951  0.92705  0.71958  1.0000
  H   H2229     1.0  0.57825  0.97642  0.69617  1.0000
  C   C2229     1.0  0.90655  0.72032  0.51989  1.0000
  C   C2230     1.0  0.90954  0.77582  0.51698  1.0000
  C   C2231     1.0  0.92715  0.69117  0.49809  1.0000
  H   H2230     1.0  0.53941  0.98734  0.54897  1.0000
  S   S750      1.0  0.54184  0.99058  0.71877  1.0000
  Fe  Fe375     1.0  0.53976  0.96881  0.67688  1.0000
  H   H2231     1.0  0.88712  0.77227  0.52489  1.0000
  H   H2232     1.0  0.90813  0.78289  0.52451  1.0000
  N   N187      1.0  0.56278  0.98610  0.54574  1.0000
  C   C2232     1.0  0.57996  0.98578  0.52226  1.0000
  H   H2233     1.0  0.71540  0.92749  0.50090  1.0000
  H   H2234     1.0  0.53112  0.98513  0.64516  1.0000
  H   H2235     1.0  0.79631  0.93081  0.49537  1.0000
  H   H2236     1.0  0.54929  0.97226  0.56122  1.0000
  Fe  Fe376     1.0  0.95941  0.77304  0.49233  1.0000
  S   S751      1.0  0.74439  0.93713  0.49227  1.0000
  C   C2233     1.0  0.91650  0.69903  0.50807  1.0000
  C   C2234     1.0  0.92299  0.77319  0.50663  1.0000
  C   C2235     1.0  0.57294  0.98959  0.55111  1.0000
  H   H2237     1.0  0.55818  0.98118  0.52732  1.0000
  H   H2238     1.0  0.50245  0.94629  0.73214  1.0000
  C   C2236     1.0  0.56624  0.98391  0.53161  1.0000
  N   N188      1.0  0.91814  0.71216  0.50962  1.0000
  S   S752      1.0  0.93685  0.78251  0.50507  1.0000
  H   H2239     1.0  0.92581  0.68076  0.49693  1.0000
  S   S753      1.0  0.98566  0.72016  0.49499  1.0000
  C   C2237     1.0  0.54836  0.98403  0.55538  1.0000
  S   S754      1.0  0.52692  0.99032  0.68321  1.0000
  C   C2238     1.0  0.59027  0.98960  0.52755  1.0000
  H   H2240     1.0  0.90678  0.69468  0.51437  1.0000
  H   H2241     1.0  0.50031  0.90697  0.73174  1.0000
  H   H2242     1.0  0.58244  0.98459  0.51088  1.0000
  C   C2239     1.0  0.89924  0.76130  0.50699  1.0000
  C   C2240     1.0  0.51720  0.92489  0.73679  1.0000
  H   H2243     1.0  0.69144  0.93314  0.49290  1.0000
  H   H2244     1.0  0.77130  0.92467  0.50366  1.0000
  H   H2245     1.0  0.97679  0.82291  0.49765  1.0000
  C   C2241     1.0  0.77358  0.93311  0.49384  1.0000
  H   H2246     1.0  0.90970  0.73016  0.52100  1.0000
  C   C2242     1.0  0.98856  0.81840  0.49247  1.0000
  H   H2247     1.0  0.93153  0.72827  0.50243  1.0000
  C   C2243     1.0  0.71415  0.92151  0.49340  1.0000
  H   H2248     1.0  0.99346  0.80938  0.50101  1.0000
  C   C2244     1.0  0.94095  0.71033  0.49116  1.0000
  H   H2249     1.0  0.88110  0.80032  0.50210  1.0000
  C   C2245     1.0  0.93021  0.71782  0.50136  1.0000
  Fe  Fe377     1.0  0.99185  0.77086  0.49155  1.0000
  C   C2246     1.0  0.88860  0.66985  0.49234  1.0000
  C   C2247     1.0  0.89103  0.80068  0.49335  1.0000
  H   H2250     1.0  0.60094  0.99115  0.52042  1.0000
  C   C2248     1.0  0.99888  0.72934  0.52918  1.0000
  H   H2251     1.0  0.86666  0.68336  0.49032  1.0000
  H   H2252     1.0  0.91445  0.75081  0.48982  1.0000
  C   C2249     1.0  0.93933  0.69699  0.48944  1.0000
  S   S755      1.0  0.51361  0.74494  0.92373  1.0000
  C   C2250     1.0  0.50129  0.72692  0.91569  1.0000
  Fe  Fe378     1.0  0.53973  0.72799  0.97978  1.0000
  H   H2253     1.0  0.56766  0.72305  0.95245  1.0000
  H   H2254     1.0  0.56239  0.68869  0.88674  1.0000
  C   C2251     1.0  0.58949  0.75230  0.90809  1.0000
  H   H2255     1.0  0.57120  0.68863  0.95832  1.0000
  C   C2252     1.0  0.51030  0.94578  0.77562  1.0000
  H   H2256     1.0  0.60017  0.75269  0.90052  1.0000
  H   H2257     1.0  0.59350  0.76329  0.92296  1.0000
  H   H2258     1.0  0.52874  0.80915  0.88613  1.0000
  N   N189      1.0  0.55958  0.78499  0.87257  1.0000
  C   C2253     1.0  0.50870  0.98432  0.75292  1.0000
  C   C2254     1.0  0.52307  0.67680  0.97444  1.0000
  C   C2255     1.0  0.50587  0.96112  0.77075  1.0000
  H   H2259     1.0  0.54530  0.68038  0.96554  1.0000
  S   S756      1.0  0.54882  0.72176  0.89962  1.0000
  C   C2256     1.0  0.58566  0.71038  0.92704  1.0000
  Fe  Fe379     1.0  0.53576  0.75650  0.87026  1.0000
  C   C2257     1.0  0.53049  0.94513  0.75413  1.0000
  H   H2260     1.0  0.57378  0.78534  0.85131  1.0000
  C   C2258     1.0  0.54632  0.79676  0.89766  1.0000
  H   H2261     1.0  0.55097  0.75166  0.93461  1.0000
  H   H2262     1.0  0.57743  0.77312  0.88354  1.0000
  C   C2259     1.0  0.58571  0.75831  0.92075  1.0000
  N   N190      1.0  0.58029  0.70549  0.94176  1.0000
  C   C2260     1.0  0.56674  0.78102  0.88407  1.0000
  C   C2261     1.0  0.53942  0.80123  0.88563  1.0000
  H   H2263     1.0  0.56663  0.66744  0.90783  1.0000
  C   C2262     1.0  0.57630  0.68395  0.93667  1.0000
  H   H2264     1.0  0.52177  0.81660  0.97522  1.0000
  N   N191      1.0  0.51377  0.96831  0.75805  1.0000
  H   H2265     1.0  0.57247  0.67368  0.94058  1.0000
  C   C2263     1.0  0.53991  0.70620  0.93521  1.0000
  H   H2266     1.0  0.54068  0.79852  0.86387  1.0000
  C   C2264     1.0  0.54626  0.79522  0.87308  1.0000
  C   C2265     1.0  0.57929  0.74617  0.90505  1.0000
  H   H2267     1.0  0.55143  0.70695  0.93090  1.0000
  C   C2266     1.0  0.55576  0.67137  0.90502  1.0000
  H   H2268     1.0  0.50019  0.98652  0.74623  1.0000
  H   H2269     1.0  0.57307  0.76698  0.86256  1.0000
  C   C2267     1.0  0.52273  0.93778  0.76727  1.0000
  S   S757      1.0  0.52553  0.77744  0.85587  1.0000
  C   C2268     1.0  0.58161  0.68898  0.92159  1.0000
  Fe  Fe380     1.0  0.52988  0.74136  0.90271  1.0000
  H   H2270     1.0  0.51733  0.73553  0.84841  1.0000
  S   S758      1.0  0.53261  0.74635  0.96135  1.0000
  C   C2269     1.0  0.58631  0.70230  0.91672  1.0000
  C   C2270     1.0  0.53081  0.71482  0.94512  1.0000
  C   C2271     1.0  0.56014  0.78670  0.89686  1.0000
  S   S759      1.0  0.54302  0.75818  0.88981  1.0000
  S   S760      1.0  0.58331  0.73966  0.88875  1.0000
  Fe  Fe381     1.0  0.54121  0.72313  0.87915  1.0000
  H   H2271     1.0  0.59034  0.70645  0.90501  1.0000
  C   C2272     1.0  0.55336  0.68340  0.89315  1.0000
  C   C2273     1.0  0.52996  0.66974  0.90976  1.0000
  C   C2274     1.0  0.57562  0.69246  0.94665  1.0000
  H   H2272     1.0  0.58945  0.72064  0.92318  1.0000
  C   C2275     1.0  0.56640  0.77847  0.85950  1.0000
  H   H2273     1.0  0.51261  0.72162  0.91117  1.0000
  C   C2276     1.0  0.57855  0.71484  0.95214  1.0000
  H   H2274     1.0  0.58200  0.68263  0.91369  1.0000
  C   C2277     1.0  0.51084  0.78221  0.88316  1.0000
  H   H2275     1.0  0.52925  0.90271  0.74444  1.0000
  C   C2278     1.0  0.57182  0.75800  0.93047  1.0000
  C   C2279     1.0  0.52768  0.68147  0.89760  1.0000
  S   S761      1.0  0.56680  0.76618  0.94587  1.0000
  H   H2276     1.0  0.55773  0.74062  0.91294  1.0000
  H   H2277     1.0  0.54089  0.69061  0.92253  1.0000
  H   H2278     1.0  0.58764  0.72094  0.94886  1.0000
  H   H2279     1.0  0.50479  0.87982  0.91344  1.0000
  C   C2280     1.0  0.53933  0.68841  0.88940  1.0000
  C   C2281     1.0  0.56558  0.74559  0.91495  1.0000
  C   C2282     1.0  0.50442  0.79114  0.89348  1.0000
  H   H2280     1.0  0.55767  0.77765  0.85428  1.0000
  C   C2283     1.0  0.54397  0.66474  0.91351  1.0000
  H   H2281     1.0  0.52605  0.92583  0.77074  1.0000
  Fe  Fe382     1.0  0.54962  0.75659  0.96430  1.0000
  C   C2284     1.0  0.56184  0.75156  0.92753  1.0000
  C   C2285     1.0  0.53397  0.69711  0.93047  1.0000
  Fe  Fe383     1.0  0.56146  0.73870  0.88508  1.0000
  H   H2282     1.0  0.57875  0.70815  0.96354  1.0000
  S   S762      1.0  0.55560  0.73847  0.86401  1.0000
  H   H2283     1.0  0.56560  0.78317  0.90615  1.0000
  S   S763      1.0  0.53619  0.70362  0.87476  1.0000
  S   S764      1.0  0.52106  0.74120  0.88359  1.0000
  Fe  Fe384     1.0  0.51716  0.75719  0.97933  1.0000
  H   H2284     1.0  0.54095  0.80107  0.90760  1.0000
  H   H2285     1.0  0.50392  0.94004  0.78558  1.0000
  H   H2286     1.0  0.51684  0.68529  0.89470  1.0000
  C   C2286     1.0  0.51384  0.78854  0.86811  1.0000
  C   C2287     1.0  0.52584  0.96050  0.74968  1.0000
  H   H2287     1.0  0.51117  0.80882  0.85162  1.0000
  S   S765      1.0  0.50381  0.66464  0.94741  1.0000
  H   H2288     1.0  0.51394  0.77043  0.88703  1.0000
  H   H2289     1.0  0.51817  0.98942  0.74614  1.0000
  S   S766      1.0  0.54660  0.70487  0.97590  1.0000
  C   C2288     1.0  0.51885  0.69690  0.93565  1.0000
  C   C2289     1.0  0.53456  0.68394  0.97250  1.0000
  H   H2290     1.0  0.53983  0.93893  0.74727  1.0000
  S   S767      1.0  0.55784  0.73749  0.98159  1.0000
  H   H2291     1.0  0.50336  0.78615  0.90509  1.0000
  C   C2290     1.0  0.50476  0.93618  0.74020  1.0000
  H   H2292     1.0  0.54430  0.79612  0.97721  1.0000
  H   H2293     1.0  0.51426  0.69024  0.93141  1.0000
  H   H2294     1.0  0.50616  0.76171  0.85015  1.0000
  H   H2295     1.0  0.53526  0.72208  0.94868  1.0000
  H   H2296     1.0  0.52502  0.66792  0.96886  1.0000
  C   C2291     1.0  0.50182  0.81282  0.87371  1.0000
  C   C2292     1.0  0.51970  0.91154  0.74712  1.0000
  C   C2293     1.0  0.50892  0.80385  0.86329  1.0000
  H   H2297     1.0  0.51191  0.89928  0.76893  1.0000
  C   C2294     1.0  0.50989  0.90959  0.76093  1.0000
  H   H2298     1.0  0.50356  0.98991  0.76241  1.0000
  S   S768      1.0  0.53340  0.76934  0.98062  1.0000
  C   C2295     1.0  0.53208  0.69583  0.97923  1.0000
  C   C2296     1.0  0.50704  0.73836  0.85638  1.0000
  H   H2299     1.0  0.50298  0.73772  0.97868  1.0000
  H   H2300     1.0  0.50393  0.78304  0.94693  1.0000
  N   N192      1.0  0.50991  0.70549  0.94536  1.0000
  C   C2297     1.0  0.51579  0.71424  0.95021  1.0000
  H   H2301     1.0  0.50551  0.71564  0.86565  1.0000
  C   C2298     1.0  0.50920  0.68112  0.98358  1.0000
  H   H2302     1.0  0.52088  0.66451  0.91613  1.0000
  C   C2299     1.0  0.52608  0.81299  0.98526  1.0000
  C   C2300     1.0  0.51807  0.70050  0.98807  1.0000
  C   C2301     1.0  0.53869  0.80135  0.98653  1.0000
  H   H2303     1.0  0.50884  0.72124  0.95765  1.0000
  H   H2304     1.0  0.53191  0.96610  0.73943  1.0000
  C   C2302     1.0  0.50000  0.80643  0.88884  1.0000
  C   C2303     1.0  0.50068  0.75314  0.85748  1.0000
  C   C2304     1.0  0.50040  0.72718  0.86607  1.0000
