data_image0
_chemical_formula_structural       CH2SCHC3HC2SC3HSH2C2HCH2CHSFeCH2NH2SCH2CH2C2HNHCH2CNHC2SH3C2SFeS2HSCSFeSHFeS2FeS3FeSHSFe2SHS2C7H2NCH3CSC6H5FeH2C3SHC6H6C6H5CH2SH2C2H4CH3SH2C2FeC2NC3HC4H2C2FeNH2NC2H5CH2CSC2H2FeC2FeCHCHC2HCH7CH2CH2S2H2SFeHCSH3C2HCH2CHC2HCNCFeSHCHCH2SC4FeCSCH7CH3C2H2NC3NSHFeC2HC4H2CFeS2HSH3CHCSFeS2HCH2CHSC2H3SC3HFeSCHFeHC6H3S3CH2Fe2C6HCH2FeC6HFeH3NCH2SCH4C2FeH2SHC11H5NC2H3CHNC3H2CHCH3CH2NHCH3C2HCHFeNC2SCHCSFeH2SH3SNC6HCNCHNCHCHC2HFeC5HCFeHCHSHFeSCH4C2HC2H2SC2SH3CSCSHCHCHCSH2CH5SHCSHC3HC2H3CSCH5CSC4H3C2HNHCH3SHC2H2C2NHCH3CS2HCHFeS2CH3SCS2H2CH2SFeSCFeCSFeSFeHS2HC8H5SC3H4NH2C6HFeH2C2Fe2SNCFeH2C5HSHSHSHS2HC2HC3SH3SFeHCH2SCH3C2HFeC2HCFeC2HCH2CSCHSC2SNHSFeSHSHFeCSFeHS2FeSCSFeS2FeS2FeSFeS2FeS2FeS2FeSFeSFeCSFeS2FeHNHSFeS3FeS2FeS2HFeSCSC3H3FeSC7H7C4HC9H2FeSC6H4C2H3C6H4C6H4C3S2NH4C4SNHCHC5HC2H2C7H5CSH3NC6H2CH3SH2S2H3CSCH3CHC6H3FeHC2HSNC6H9NSCNH4CH6NCSHCHC3HC4FeHCHFeCH5CH2CHC4FeCH3CHNC2H2CH3C2HCSH4C2H2CH4CH2NH3CHCHCH3CHSH3CS2CFeHFeCHC2S2HSNHFeSCH3FeHSHSHFeSCSCFeCSHCS2FeHSFeHSHCS3FeS2HCFeSH2CHSCNCSFeHCHC3HC3H3C6H2FeH3C2HCHCSC5H3NSC4HCHNH2C2NC3H2CFeC2HC4SH2SCH2SHCHC3SNHNH3C3HC3H2SH2CHCHC2H2C3H3CHCFeCH2C2HCNCHCHCH4C3SCH2FeC3SC2HCHCFeH2C3HS2H4CH3CHNH3C2HSCHSHCHCH3FeS2C4H2FeS2CFeC3H2C2HSCHFeH2FeCS2HCSC2FeHCHC2SHC7H4CH2CHC2S2NC6H8NC3H2CH2FeHSFeNSHCHC3H2NCHC2H6FeSH2C2FeCHS2CHC2HCSFeS2C3NCSFeSHSHC7HC3HFeHCHC3HFeNC2HC2H2SFeHFeCHFeCHSC3S2H2SC3H2SHSH3CSCHSH2NHC2H2SHSFeH5CFeS2FeHFeCFeHS2CFeCFeS2FeS2CFeS3HCSCH2FeS2FeS2FeSCFeSHS2HFe2HSFeS3FeHS2CFeSFeS2FeS2FeSCS2C7H4C2H2C3H2C7H4C6H4CSC5H3C6H4C6H4C6H4C6FeH3CHC2HCHC2H2SCHC3SCSNHC2H3NHCHC3NC6H8CHC3H3CHNSC4NHCNCNH2CH4C2HSCH4CHCH6SC3H2CFeHCH2CSCSH4SHCHC3HC3H3C2SCH2CH2NH2CNSHCH4SH2CH3C2H3CHCH2CNH2FeSH3NC2FeSCHSCSHCH5CHSHCFeSHFeS3C2SHSHCSHC2FeNS4HC2H5NC7H2C6H4CH2CHC6H6C5H2CHNC2H2C2SNC2HCSHCHCH2SHFeCHCSH2CH3CNFeHN2HC2HCH2CH5NH2CH2CHCH2CHC3HSC2H3CHCH2SH4C4HCHSC3HSCH2C2H2CHCHC3NCHFeS2CHFeS2HSCHSHFeCSH2CHC6H4CH2C3HFeH2FeCHC2HCH5S2C3NCH2NC5H2C2NHCHCFeHCHCS2HSCH2CH2C2H4SC2HC3HC2H2CHCFeSFeHSCSC2FeS2HC2H4FeCHSFeSH3CHC2SHC11HSHSC3HFeCH2C2HC4H2FeNFeH2C2SHFeHSH3NSCH2CH3FeSH2C2HNHC3HFeS2FeS2HSHFeHFeS3FeSCFeS2FeSFeS3FeS2HC2HS2HSCFeS2H2FeS2CFeS2FeSHFeSFeS3FeS2FeSHFeSFeS3C6H4C3HCHC6H4C6H4CHCSCH4CHC4H3CH2FeC2H2CHC6H4C6H4CNCHFeCH2C6H4C6H4S2HCNC6H8SC3HC2HCSCH2C2NC2HC2HCHFeH2CNH4FeH3CH3NH2FeHCHFeCNH3C6S2HC2HC3NCH7NC2HC2FeHCH4CHCNHCS2HCFeCHFeSC3HC2SNC2HC2HC3SFeHCHCH2SC3H2CHCHCH3C2H2CH2CH3FeC3HSCNC2HSC2HCSNCHCHCSCFeSFeHS3C2HC3HC6H4C2HCH5C2NSHCHFeH2FeCHSC2NCH3FeHC2H2C7H2CHC5HC2HCSHSHC2H4NHCH2CH3CHNCFeCHS2C3HFeCSH3C2FeCH2CNH2CH2CHCSCHFeHFeC2NH2SH2CFeHC2HFeHSCH2S2H3CH2C2H2C3HSFeHSCH5SC2H2CH2FeHNCH2C6HCH2CSCH6CHSC4NCH2FeC3SHCHNH2C4H
_chemical_formula_sum              "C1152 H1152 S384 Fe192 N96"
_cell_length_a       75.3494
_cell_length_b       75.4637
_cell_length_c       75.4063
_cell_angle_alpha    80.9367
_cell_angle_beta     81.2122
_cell_angle_gamma    81.1367

_space_group_name_H-M_alt    "P 1"
_space_group_IT_number       1

loop_
  _space_group_symop_operation_xyz
  'x, y, z'

loop_
  _atom_site_type_symbol
  _atom_site_label
  _atom_site_symmetry_multiplicity
  _atom_site_fract_x
  _atom_site_fract_y
  _atom_site_fract_z
  _atom_site_occupancy
  C   C1        1.0  0.47658  0.44945  0.22525  1.0000
  H   H1        1.0  0.44536  0.41042  0.00644  1.0000
  H   H2        1.0  0.45807  0.44703  0.18739  1.0000
  S   S1        1.0  0.40842  0.48011  0.03794  1.0000
  C   C2        1.0  0.45339  0.47526  0.21925  1.0000
  H   H3        1.0  0.40689  0.46797  0.08067  1.0000
  C   C3        1.0  0.46047  0.45237  0.19919  1.0000
  C   C4        1.0  0.47373  0.44296  0.20969  1.0000
  C   C5        1.0  0.45018  0.46847  0.20396  1.0000
  H   H4        1.0  0.48146  0.43047  0.20595  1.0000
  C   C6        1.0  0.44854  0.43074  0.05384  1.0000
  C   C7        1.0  0.45488  0.44731  0.04705  1.0000
  S   S2        1.0  0.50137  0.42849  0.02358  1.0000
  C   C8        1.0  0.42415  0.46123  0.04354  1.0000
  C   C9        1.0  0.41787  0.44466  0.05030  1.0000
  C   C10       1.0  0.43004  0.42945  0.05550  1.0000
  H   H5        1.0  0.48536  0.34215  0.22238  1.0000
  S   S3        1.0  0.46353  0.41128  0.05962  1.0000
  H   H6        1.0  0.40356  0.44361  0.05160  1.0000
  H   H7        1.0  0.42512  0.41665  0.06074  1.0000
  C   C11       1.0  0.46644  0.46567  0.22996  1.0000
  C   C12       1.0  0.41326  0.47875  0.08481  1.0000
  H   H8        1.0  0.43724  0.43821  0.24221  1.0000
  C   C13       1.0  0.40077  0.46246  0.22427  1.0000
  H   H9        1.0  0.38404  0.48484  0.23535  1.0000
  H   H10       1.0  0.48093  0.38775  0.03487  1.0000
  C   C14       1.0  0.41955  0.46019  0.25359  1.0000
  H   H11       1.0  0.42043  0.44045  0.21589  1.0000
  S   S4        1.0  0.49216  0.43719  0.23941  1.0000
  Fe  Fe1       1.0  0.49227  0.41638  0.05187  1.0000
  C   C15       1.0  0.49750  0.37275  0.01504  1.0000
  H   H12       1.0  0.39385  0.46402  0.21240  1.0000
  H   H13       1.0  0.46103  0.41905  0.01770  1.0000
  N   N1        1.0  0.39922  0.49327  0.09042  1.0000
  H   H14       1.0  0.44550  0.48763  0.22306  1.0000
  H   H15       1.0  0.42154  0.47266  0.09578  1.0000
  S   S5        1.0  0.43244  0.47874  0.19142  1.0000
  C   C16       1.0  0.44265  0.46262  0.04194  1.0000
  H   H16       1.0  0.44753  0.47544  0.03677  1.0000
  H   H17       1.0  0.46862  0.47076  0.24197  1.0000
  C   C17       1.0  0.42514  0.44799  0.24101  1.0000
  H   H18       1.0  0.46918  0.44838  0.04583  1.0000
  H   H19       1.0  0.49790  0.39099  0.13846  1.0000
  C   C18       1.0  0.41567  0.44919  0.22626  1.0000
  C   C19       1.0  0.45566  0.40660  0.01592  1.0000
  H   H20       1.0  0.42273  0.48402  0.07304  1.0000
  N   N2        1.0  0.40473  0.47301  0.25166  1.0000
  H   H21       1.0  0.39967  0.48446  0.11871  1.0000
  C   C20       1.0  0.48263  0.38489  0.02101  1.0000
  H   H22       1.0  0.49976  0.48442  0.05364  1.0000
  H   H23       1.0  0.49936  0.35652  0.19258  1.0000
  C   C21       1.0  0.39546  0.47435  0.23716  1.0000
  N   N3        1.0  0.47059  0.39329  0.00948  1.0000
  H   H24       1.0  0.44865  0.40105  0.02925  1.0000
  C   C22       1.0  0.39352  0.49414  0.10843  1.0000
  C   C23       1.0  0.49997  0.34036  0.21886  1.0000
  S   S6        1.0  0.42082  0.24659  0.49432  1.0000
  H   H25       1.0  0.38245  0.19485  0.47137  1.0000
  H   H26       1.0  0.10779  0.48761  0.45502  1.0000
  H   H27       1.0  0.02706  0.42195  0.43984  1.0000
  C   C24       1.0  0.26168  0.49857  0.29031  1.0000
  C   C25       1.0  0.01595  0.48328  0.34595  1.0000
  S   S7        1.0  0.41167  0.03281  0.47582  1.0000
  Fe  Fe2       1.0  0.44276  0.07959  0.49110  1.0000
  S   S8        1.0  0.47228  0.08205  0.48253  1.0000
  S   S9        1.0  0.42434  0.08160  0.47003  1.0000
  H   H28       1.0  0.48277  0.08960  0.30964  1.0000
  S   S10       1.0  0.48881  0.06144  0.40325  1.0000
  C   C26       1.0  0.43188  0.00617  0.43118  1.0000
  S   S11       1.0  0.09108  0.46890  0.35019  1.0000
  Fe  Fe3       1.0  0.06528  0.41054  0.48674  1.0000
  S   S12       1.0  0.05102  0.43229  0.46842  1.0000
  H   H29       1.0  0.41028  0.02782  0.43623  1.0000
  Fe  Fe4       1.0  0.10348  0.42126  0.47152  1.0000
  S   S13       1.0  0.09118  0.44366  0.45170  1.0000
  S   S14       1.0  0.28074  0.41155  0.46532  1.0000
  Fe  Fe5       1.0  0.07357  0.42393  0.44721  1.0000
  S   S15       1.0  0.06605  0.41789  0.42137  1.0000
  S   S16       1.0  0.08713  0.40086  0.46508  1.0000
  S   S17       1.0  0.47750  0.23939  0.38582  1.0000
  Fe  Fe6       1.0  0.41318  0.26730  0.47119  1.0000
  S   S18       1.0  0.43454  0.27950  0.45050  1.0000
  H   H30       1.0  0.21552  0.37158  0.46226  1.0000
  S   S19       1.0  0.39005  0.25371  0.46663  1.0000
  Fe  Fe7       1.0  0.07004  0.44955  0.47495  1.0000
  Fe  Fe8       1.0  0.25621  0.41025  0.45233  1.0000
  S   S20       1.0  0.25035  0.42108  0.42379  1.0000
  H   H31       1.0  0.02163  0.35226  0.48389  1.0000
  S   S21       1.0  0.25255  0.38205  0.46634  1.0000
  S   S22       1.0  0.23680  0.42432  0.47283  1.0000
  C   C27       1.0  0.15323  0.41462  0.47842  1.0000
  C   C28       1.0  0.28638  0.45711  0.40596  1.0000
  C   C29       1.0  0.27784  0.44265  0.41592  1.0000
  C   C30       1.0  0.26131  0.43930  0.41174  1.0000
  C   C31       1.0  0.25329  0.45067  0.39769  1.0000
  C   C32       1.0  0.26168  0.46533  0.38793  1.0000
  C   C33       1.0  0.09833  0.49954  0.45014  1.0000
  H   H32       1.0  0.28425  0.43387  0.42657  1.0000
  H   H33       1.0  0.24054  0.44813  0.39433  1.0000
  N   N4        1.0  0.17805  0.40060  0.43657  1.0000
  C   C34       1.0  0.16934  0.42217  0.47205  1.0000
  H   H34       1.0  0.48293  0.12207  0.31234  1.0000
  H   H35       1.0  0.38776  0.00719  0.44926  1.0000
  H   H36       1.0  0.44339  0.18335  0.48995  1.0000
  C   C35       1.0  0.38898  0.18231  0.47801  1.0000
  S   S23       1.0  0.08291  0.42847  0.49522  1.0000
  C   C36       1.0  0.46613  0.25016  0.40429  1.0000
  C   C37       1.0  0.45113  0.24312  0.41491  1.0000
  C   C38       1.0  0.44161  0.25168  0.42950  1.0000
  C   C39       1.0  0.44692  0.26747  0.43335  1.0000
  C   C40       1.0  0.46191  0.27447  0.42275  1.0000
  C   C41       1.0  0.47158  0.26577  0.40836  1.0000
  H   H37       1.0  0.44685  0.23105  0.41180  1.0000
  H   H38       1.0  0.43002  0.24624  0.43757  1.0000
  H   H39       1.0  0.46605  0.28670  0.42566  1.0000
  H   H40       1.0  0.48312  0.27128  0.40030  1.0000
  H   H41       1.0  0.34913  0.30435  0.44200  1.0000
  Fe  Fe9       1.0  0.27587  0.38434  0.48127  1.0000
  H   H42       1.0  0.24755  0.48718  0.41968  1.0000
  H   H43       1.0  0.02851  0.40837  0.42193  1.0000
  C   C42       1.0  0.03713  0.37237  0.46801  1.0000
  C   C43       1.0  0.50105  0.16244  0.38613  1.0000
  C   C44       1.0  0.39484  0.14909  0.48182  1.0000
  S   S24       1.0  0.13406  0.42282  0.46697  1.0000
  H   H44       1.0  0.48872  0.16180  0.38061  1.0000
  C   C45       1.0  0.08490  0.45474  0.37023  1.0000
  C   C46       1.0  0.08387  0.46051  0.38717  1.0000
  C   C47       1.0  0.07824  0.44920  0.40304  1.0000
  C   C48       1.0  0.07342  0.43226  0.40190  1.0000
  C   C49       1.0  0.07416  0.42670  0.38493  1.0000
  C   C50       1.0  0.08003  0.43785  0.36914  1.0000
  H   H45       1.0  0.08753  0.47361  0.38808  1.0000
  H   H46       1.0  0.07745  0.45368  0.41609  1.0000
  H   H47       1.0  0.07041  0.41363  0.38401  1.0000
  H   H48       1.0  0.08070  0.43341  0.35606  1.0000
  H   H49       1.0  0.44188  0.01518  0.42560  1.0000
  H   H50       1.0  0.29943  0.49789  0.44766  1.0000
  C   C51       1.0  0.47828  0.07510  0.46104  1.0000
  C   C52       1.0  0.46819  0.06338  0.45553  1.0000
  C   C53       1.0  0.47176  0.05909  0.43783  1.0000
  C   C54       1.0  0.48557  0.06633  0.42560  1.0000
  C   C55       1.0  0.49626  0.07743  0.43132  1.0000
  C   C56       1.0  0.49259  0.08183  0.44907  1.0000
  H   H51       1.0  0.45754  0.05763  0.46489  1.0000
  H   H52       1.0  0.46359  0.05036  0.43355  1.0000
  H   H53       1.0  0.49770  0.32639  0.29643  1.0000
  H   H54       1.0  0.35126  0.31569  0.49872  1.0000
  H   H55       1.0  0.01942  0.41535  0.48625  1.0000
  C   C57       1.0  0.33914  0.32014  0.49229  1.0000
  H   H56       1.0  0.44975  0.11308  0.46566  1.0000
  H   H57       1.0  0.35640  0.27959  0.42314  1.0000
  S   S25       1.0  0.40264  0.20309  0.49909  1.0000
  H   H58       1.0  0.05109  0.47495  0.36994  1.0000
  H   H59       1.0  0.50168  0.31784  0.37122  1.0000
  C   C58       1.0  0.40557  0.14961  0.49527  1.0000
  C   C59       1.0  0.18603  0.39973  0.49238  1.0000
  H   H60       1.0  0.50430  0.20657  0.37424  1.0000
  H   H61       1.0  0.46693  0.15408  0.49012  1.0000
  H   H62       1.0  0.22318  0.39683  0.43813  1.0000
  H   H63       1.0  0.16152  0.42587  0.43211  1.0000
  C   C60       1.0  0.16976  0.39264  0.49934  1.0000
  H   H64       1.0  0.26243  0.45147  0.45306  1.0000
  H   H65       1.0  0.48562  0.20012  0.39072  1.0000
  H   H66       1.0  0.15058  0.40685  0.43071  1.0000
  S   S26       1.0  0.06078  0.47729  0.48247  1.0000
  H   H67       1.0  0.42673  0.16865  0.45447  1.0000
  H   H68       1.0  0.27071  0.48593  0.29187  1.0000
  C   C61       1.0  0.40789  0.16629  0.50011  1.0000
  C   C62       1.0  0.39445  0.00829  0.50163  1.0000
  Fe  Fe10      1.0  0.40535  0.10055  0.48671  1.0000
  C   C63       1.0  0.04851  0.48233  0.33483  1.0000
  C   C64       1.0  0.20510  0.37948  0.45474  1.0000
  N   N5        1.0  0.44686  0.16325  0.47243  1.0000
  C   C65       1.0  0.39909  0.48597  0.26470  1.0000
  C   C66       1.0  0.43631  0.15853  0.46112  1.0000
  C   C67       1.0  0.45984  0.13214  0.47881  1.0000
  H   H69       1.0  0.04868  0.39450  0.45112  1.0000
  C   C68       1.0  0.32920  0.33737  0.49432  1.0000
  C   C69       1.0  0.44585  0.18220  0.47522  1.0000
  C   C70       1.0  0.01371  0.40408  0.49456  1.0000
  C   C71       1.0  0.18565  0.41475  0.47891  1.0000
  H   H70       1.0  0.18099  0.49286  0.34643  1.0000
  H   H71       1.0  0.38213  0.33184  0.45037  1.0000
  C   C72       1.0  0.38526  0.28006  0.42027  1.0000
  C   C73       1.0  0.45858  0.15035  0.48115  1.0000
  Fe  Fe11      1.0  0.41266  0.05828  0.48836  1.0000
  N   N6        1.0  0.26340  0.47884  0.44146  1.0000
  H   H72       1.0  0.35855  0.32926  0.45268  1.0000
  H   H73       1.0  0.40534  0.30759  0.44014  1.0000
  N   N7        1.0  0.03347  0.48095  0.34960  1.0000
  C   C74       1.0  0.03655  0.38797  0.45523  1.0000
  C   C75       1.0  0.41410  0.01327  0.43694  1.0000
  H   H74       1.0  0.38417  0.48716  0.26880  1.0000
  H   H75       1.0  0.02625  0.47318  0.39538  1.0000
  H   H76       1.0  0.28125  0.47332  0.46162  1.0000
  H   H77       1.0  0.40248  0.49958  0.25839  1.0000
  H   H78       1.0  0.24476  0.46756  0.46263  1.0000
  C   C76       1.0  0.38659  0.16555  0.47320  1.0000
  H   H79       1.0  0.37280  0.31534  0.46794  1.0000
  H   H80       1.0  0.04374  0.48713  0.32146  1.0000
  C   C77       1.0  0.31733  0.31476  0.47409  1.0000
  S   S27       1.0  0.39130  0.12825  0.47557  1.0000
  C   C78       1.0  0.39900  0.28811  0.42500  1.0000
  C   C79       1.0  0.20935  0.39373  0.44133  1.0000
  H   H81       1.0  0.41310  0.28344  0.42057  1.0000
  H   H82       1.0  0.38865  0.26905  0.41215  1.0000
  Fe  Fe12      1.0  0.39639  0.23393  0.49149  1.0000
  C   C80       1.0  0.19556  0.40425  0.43236  1.0000
  C   C81       1.0  0.23671  0.48259  0.30616  1.0000
  Fe  Fe13      1.0  0.37305  0.27190  0.48604  1.0000
  C   C82       1.0  0.30739  0.33201  0.47612  1.0000
  H   H83       1.0  0.19896  0.41552  0.42219  1.0000
  C   C83       1.0  0.33327  0.30865  0.48215  1.0000
  H   H84       1.0  0.45870  0.18754  0.46921  1.0000
  C   C84       1.0  0.49548  0.09500  0.30861  1.0000
  C   C85       1.0  0.40881  0.01095  0.48776  1.0000
  H   H85       1.0  0.05726  0.49213  0.33714  1.0000
  C   C86       1.0  0.02315  0.47608  0.38154  1.0000
  H   H86       1.0  0.04943  0.36719  0.47404  1.0000
  H   H87       1.0  0.01294  0.48599  0.33210  1.0000
  H   H88       1.0  0.37824  0.16534  0.46278  1.0000
  H   H89       1.0  0.42735  0.45950  0.26468  1.0000
  H   H90       1.0  0.34995  0.50262  0.28053  1.0000
  H   H91       1.0  0.31254  0.30604  0.46628  1.0000
  H   H92       1.0  0.25539  0.47402  0.37714  1.0000
  C   C87       1.0  0.31322  0.34347  0.48631  1.0000
  H   H93       1.0  0.29514  0.33637  0.46990  1.0000
  H   H94       1.0  0.24113  0.47925  0.31985  1.0000
  C   C88       1.0  0.03718  0.47712  0.36710  1.0000
  H   H95       1.0  0.46902  0.12190  0.48592  1.0000
  H   H96       1.0  0.15979  0.38419  0.45360  1.0000
  S   S28       1.0  0.34544  0.28682  0.47873  1.0000
  S   S29       1.0  0.39604  0.28649  0.48896  1.0000
  H   H97       1.0  0.50018  0.33770  0.35450  1.0000
  H   H98       1.0  0.16934  0.43357  0.46138  1.0000
  S   S30       1.0  0.39131  0.07752  0.50273  1.0000
  Fe  Fe14      1.0  0.26096  0.42364  0.48696  1.0000
  H   H99       1.0  0.19798  0.42043  0.47346  1.0000
  C   C89       1.0  0.37237  0.32180  0.45370  1.0000
  S   S31       1.0  0.30125  0.36541  0.48964  1.0000
  H   H100      1.0  0.16752  0.41386  0.41254  1.0000
  H   H101      1.0  0.18372  0.36520  0.46980  1.0000
  H   H102      1.0  0.05698  0.46893  0.33428  1.0000
  C   C90       1.0  0.39957  0.18273  0.49161  1.0000
  C   C91       1.0  0.39450  0.30189  0.43598  1.0000
  H   H103      1.0  0.42825  0.13659  0.45017  1.0000
  C   C92       1.0  0.44903  0.12719  0.46745  1.0000
  H   H104      1.0  0.29928  0.45949  0.40912  1.0000
  H   H105      1.0  0.41200  0.13722  0.50210  1.0000
  C   C93       1.0  0.09526  0.47235  0.49093  1.0000
  H   H106      1.0  0.14114  0.39402  0.49738  1.0000
  C   C94       1.0  0.27835  0.46850  0.39194  1.0000
  C   C95       1.0  0.02064  0.41157  0.43502  1.0000
  H   H107      1.0  0.40568  0.48186  0.27718  1.0000
  C   C96       1.0  0.49583  0.19555  0.37952  1.0000
  N   N8        1.0  0.37677  0.30783  0.44165  1.0000
  C   C97       1.0  0.36722  0.28601  0.42635  1.0000
  Fe  Fe15      1.0  0.09047  0.49738  0.35527  1.0000
  S   S32       1.0  0.28921  0.48687  0.38017  1.0000
  H   H108      1.0  0.24170  0.47110  0.29835  1.0000
  C   C98       1.0  0.43714  0.14042  0.45858  1.0000
  H   H109      1.0  0.43448  0.19100  0.46908  1.0000
  C   C99       1.0  0.36319  0.30005  0.43702  1.0000
  H   H110      1.0  0.50510  0.17194  0.33862  1.0000
  H   H111      1.0  0.09812  0.46186  0.48228  1.0000
  S   S33       1.0  0.20660  0.38914  0.50038  1.0000
  C   C100      1.0  0.15342  0.40000  0.49236  1.0000
  C   C101      1.0  0.18722  0.37584  0.45893  1.0000
  C   C102      1.0  0.17377  0.38663  0.44971  1.0000
  C   C103      1.0  0.25304  0.46407  0.44984  1.0000
  Fe  Fe16      1.0  0.23443  0.39663  0.48773  1.0000
  C   C104      1.0  0.16377  0.41233  0.42748  1.0000
  S   S34       1.0  0.26645  0.45006  0.49413  1.0000
  C   C105      1.0  0.27766  0.48184  0.44934  1.0000
  H   H112      1.0  0.48876  0.19372  0.36818  1.0000
  H   H113      1.0  0.24404  0.46096  0.44068  1.0000
  H   H114      1.0  0.08536  0.49452  0.44935  1.0000
  H   H115      1.0  0.50046  0.09088  0.45329  1.0000
  H   H116      1.0  0.50294  0.03000  0.38232  1.0000
  H   H117      1.0  0.49457  0.00933  0.38106  1.0000
  H   H118      1.0  0.22163  0.48420  0.30807  1.0000
  C   C106      1.0  0.25865  0.48971  0.42613  1.0000
  H   H119      1.0  0.30718  0.43170  0.49714  1.0000
  H   H120      1.0  0.48533  0.02226  0.39942  1.0000
  H   H121      1.0  0.30331  0.39925  0.50161  1.0000
  C   C107      1.0  0.07796  0.48221  0.49328  1.0000
  C   C108      1.0  0.28793  0.49574  0.44157  1.0000
  H   H122      1.0  0.49954  0.31562  0.34829  1.0000
  H   H123      1.0  0.33392  0.34601  0.50226  1.0000
  N   N9        1.0  0.02082  0.39514  0.44831  1.0000
  C   C109      1.0  0.02155  0.36400  0.47352  1.0000
  C   C110      1.0  0.49790  0.01779  0.39060  1.0000
  C   C111      1.0  0.49557  0.11317  0.31010  1.0000
  N   N10       1.0  0.24365  0.49919  0.29683  1.0000
  S   S35       1.0  0.25730  0.39691  0.50390  1.0000
  H   H124      1.0  0.12256  0.46878  0.49737  1.0000
  Fe  Fe17      1.0  0.50370  0.24879  0.37131  1.0000
  C   C112      1.0  0.10917  0.47638  0.49933  1.0000
  C   C113      1.0  0.07454  0.49610  0.50409  1.0000
  H   H125      1.0  0.00666  0.41765  0.43267  1.0000
  C   C114      1.0  0.26857  0.50377  0.41806  1.0000
  C   C115      1.0  0.00565  0.37121  0.46616  1.0000
  C   C116      1.0  0.00520  0.47893  0.37796  1.0000
  C   C117      1.0  0.00552  0.38689  0.45346  1.0000
  H   H126      1.0  0.43342  0.05115  0.56666  1.0000
  H   H127      1.0  0.48189  0.06427  0.55935  1.0000
  C   C118      1.0  0.43769  0.47844  0.66081  1.0000
  Fe  Fe18      1.0  0.46228  0.12163  0.58187  1.0000
  S   S36       1.0  0.43369  0.12219  0.59583  1.0000
  S   S37       1.0  0.48639  0.11382  0.59711  1.0000
  H   H128      1.0  0.43443  0.28479  0.51084  1.0000
  S   S38       1.0  0.40164  0.07390  0.55155  1.0000
  H   H129      1.0  0.39653  0.45642  0.69872  1.0000
  H   H130      1.0  0.50291  0.15286  0.53513  1.0000
  H   H131      1.0  0.04342  0.47928  0.52446  1.0000
  C   C119      1.0  0.29986  0.37713  0.53259  1.0000
  H   H132      1.0  0.29828  0.37099  0.54703  1.0000
  C   C120      1.0  0.16012  0.47603  0.55314  1.0000
  S   S39       1.0  0.27186  0.45894  0.57522  1.0000
  Fe  Fe19      1.0  0.49599  0.28941  0.56769  1.0000
  S   S40       1.0  0.48362  0.29616  0.54159  1.0000
  S   S41       1.0  0.48194  0.28423  0.59601  1.0000
  H   H133      1.0  0.48707  0.23758  0.56955  1.0000
  C   C121      1.0  0.47761  0.03624  0.56369  1.0000
  H   H134      1.0  0.06846  0.43043  0.55205  1.0000
  H   H135      1.0  0.47221  0.47543  0.69371  1.0000
  C   C122      1.0  0.23045  0.48890  0.65034  1.0000
  H   H136      1.0  0.43346  0.21219  0.56861  1.0000
  S   S42       1.0  0.40944  0.26716  0.53907  1.0000
  C   C123      1.0  0.46380  0.03888  0.61449  1.0000
  C   C124      1.0  0.42566  0.48987  0.75456  1.0000
  H   H137      1.0  0.37812  0.10747  0.53939  1.0000
  H   H138      1.0  0.48023  0.34893  0.64408  1.0000
  H   H139      1.0  0.16294  0.43722  0.51089  1.0000
  S   S43       1.0  0.11107  0.48129  0.57170  1.0000
  C   C125      1.0  0.40900  0.49634  0.65604  1.0000
  C   C126      1.0  0.45748  0.07034  0.60221  1.0000
  C   C127      1.0  0.49046  0.18177  0.59700  1.0000
  H   H140      1.0  0.02488  0.46802  0.60199  1.0000
  Fe  Fe20      1.0  0.48830  0.40479  0.71460  1.0000
  S   S44       1.0  0.45833  0.41452  0.71920  1.0000
  C   C128      1.0  0.49634  0.21207  0.60026  1.0000
  H   H141      1.0  0.36126  0.17986  0.51531  1.0000
  Fe  Fe21      1.0  0.49810  0.13628  0.57752  1.0000
  H   H142      1.0  0.15222  0.46941  0.56539  1.0000
  C   C129      1.0  0.45303  0.43811  0.71402  1.0000
  C   C130      1.0  0.46633  0.44864  0.70521  1.0000
  C   C131      1.0  0.46187  0.46739  0.70070  1.0000
  C   C132      1.0  0.44411  0.47572  0.70496  1.0000
  C   C133      1.0  0.43079  0.46525  0.71393  1.0000
  C   C134      1.0  0.43524  0.44644  0.71839  1.0000
  H   H143      1.0  0.41706  0.47158  0.71727  1.0000
  H   H144      1.0  0.42494  0.43830  0.72525  1.0000
  H   H145      1.0  0.49460  0.25154  0.53766  1.0000
  S   S45       1.0  0.50064  0.37685  0.72586  1.0000
  S   S46       1.0  0.43891  0.49904  0.69791  1.0000
  S   S47       1.0  0.25590  0.49555  0.60753  1.0000
  C   C135      1.0  0.49693  0.01590  0.58293  1.0000
  H   H146      1.0  0.18668  0.47759  0.60084  1.0000
  H   H147      1.0  0.42281  0.23555  0.56538  1.0000
  Fe  Fe22      1.0  0.41185  0.07641  0.52169  1.0000
  Fe  Fe23      1.0  0.08383  0.49586  0.58144  1.0000
  C   C136      1.0  0.46241  0.28913  0.54117  1.0000
  C   C137      1.0  0.45572  0.29043  0.52456  1.0000
  C   C138      1.0  0.43932  0.28401  0.52375  1.0000
  C   C139      1.0  0.42936  0.27656  0.53963  1.0000
  C   C140      1.0  0.43586  0.27560  0.55628  1.0000
  C   C141      1.0  0.45240  0.28171  0.55704  1.0000
  H   H148      1.0  0.16988  0.38108  0.50986  1.0000
  C   C142      1.0  0.19960  0.50188  0.59547  1.0000
  H   H149      1.0  0.42821  0.26988  0.56860  1.0000
  H   H150      1.0  0.45739  0.28067  0.56989  1.0000
  Fe  Fe24      1.0  0.50155  0.25854  0.59831  1.0000
  C   C143      1.0  0.26876  0.45716  0.55289  1.0000
  C   C144      1.0  0.27253  0.47094  0.53871  1.0000
  C   C145      1.0  0.27123  0.46878  0.52081  1.0000
  C   C146      1.0  0.26622  0.45280  0.51694  1.0000
  C   C147      1.0  0.26206  0.43912  0.53113  1.0000
  C   C148      1.0  0.26337  0.44130  0.54907  1.0000
  H   H151      1.0  0.27701  0.48306  0.54145  1.0000
  Fe  Fe25      1.0  0.49665  0.09556  0.57571  1.0000
  H   H152      1.0  0.25823  0.42674  0.52827  1.0000
  H   H153      1.0  0.26047  0.43058  0.56000  1.0000
  H   H154      1.0  0.38441  0.11518  0.51569  1.0000
  N   N11       1.0  0.44352  0.04787  0.59202  1.0000
  C   C149      1.0  0.06708  0.46637  0.54785  1.0000
  H   H155      1.0  0.47320  0.25211  0.51547  1.0000
  H   H156      1.0  0.02492  0.50014  0.62588  1.0000
  S   S48       1.0  0.42476  0.10011  0.50631  1.0000
  C   C150      1.0  0.50000  0.04820  0.57693  1.0000
  H   H157      1.0  0.41706  0.04660  0.58630  1.0000
  H   H158      1.0  0.37915  0.18508  0.53856  1.0000
  H   H159      1.0  0.49887  0.23927  0.64344  1.0000
  H   H160      1.0  0.43425  0.01237  0.52618  1.0000
  C   C151      1.0  0.50347  0.32880  0.63960  1.0000
  C   C152      1.0  0.45739  0.29117  0.64124  1.0000
  Fe  Fe26      1.0  0.11149  0.50316  0.54801  1.0000
  H   H161      1.0  0.40897  0.43924  0.68582  1.0000
  H   H162      1.0  0.38788  0.45105  0.67936  1.0000
  S   S49       1.0  0.05930  0.48114  0.59155  1.0000
  H   H163      1.0  0.28757  0.37560  0.52676  1.0000
  C   C153      1.0  0.48439  0.28730  0.65655  1.0000
  C   C154      1.0  0.30644  0.42407  0.51063  1.0000
  C   C155      1.0  0.45195  0.03462  0.60367  1.0000
  C   C156      1.0  0.44605  0.06554  0.59132  1.0000
  C   C157      1.0  0.16993  0.44229  0.52024  1.0000
  C   C158      1.0  0.40854  0.08941  0.56325  1.0000
  C   C159      1.0  0.40160  0.09022  0.58148  1.0000
  C   C160      1.0  0.40835  0.10140  0.59139  1.0000
  C   C161      1.0  0.42189  0.11185  0.58297  1.0000
  C   C162      1.0  0.42773  0.11205  0.56448  1.0000
  C   C163      1.0  0.42148  0.10047  0.55479  1.0000
  H   H164      1.0  0.39153  0.08172  0.58812  1.0000
  H   H165      1.0  0.40376  0.10125  0.60573  1.0000
  H   H166      1.0  0.43765  0.12067  0.55775  1.0000
  H   H167      1.0  0.42732  0.09966  0.54103  1.0000
  H   H168      1.0  0.44434  0.23961  0.52550  1.0000
  N   N12       1.0  0.05651  0.45591  0.53954  1.0000
  C   C164      1.0  0.48477  0.19864  0.60332  1.0000
  C   C165      1.0  0.43215  0.22483  0.55884  1.0000
  H   H169      1.0  0.05956  0.47995  0.54984  1.0000
  H   H170      1.0  0.21287  0.49480  0.59766  1.0000
  H   H171      1.0  0.46668  0.03857  0.55547  1.0000
  C   C166      1.0  0.18732  0.45519  0.54450  1.0000
  H   H172      1.0  0.43416  0.02873  0.57865  1.0000
  N   N13       1.0  0.40988  0.46665  0.67326  1.0000
  C   C167      1.0  0.03771  0.43600  0.52248  1.0000
  C   C168      1.0  0.42789  0.49445  0.65356  1.0000
  C   C169      1.0  0.18475  0.49215  0.59724  1.0000
  H   H173      1.0  0.30553  0.42957  0.55465  1.0000
  H   H174      1.0  0.20557  0.48769  0.63993  1.0000
  C   C170      1.0  0.46661  0.05686  0.61367  1.0000
  H   H175      1.0  0.48067  0.30103  0.65973  1.0000
  C   C171      1.0  0.03545  0.45485  0.51891  1.0000
  H   H176      1.0  0.44962  0.29829  0.65240  1.0000
  H   H177      1.0  0.48152  0.17145  0.59971  1.0000
  H   H178      1.0  0.42748  0.49119  0.73987  1.0000
  C   C172      1.0  0.40015  0.48226  0.66605  1.0000
  H   H179      1.0  0.45237  0.47706  0.65951  1.0000
  H   H180      1.0  0.49243  0.36215  0.66715  1.0000
  N   N14       1.0  0.16986  0.46231  0.54214  1.0000
  H   H181      1.0  0.21049  0.43605  0.53639  1.0000
  C   C173      1.0  0.04502  0.46465  0.52760  1.0000
  H   H182      1.0  0.43951  0.07598  0.58203  1.0000
  H   H183      1.0  0.25521  0.49447  0.65824  1.0000
  H   H184      1.0  0.46126  0.30150  0.62961  1.0000
  C   C174      1.0  0.01676  0.37704  0.51638  1.0000
  C   C175      1.0  0.49346  0.34340  0.64786  1.0000
  H   H185      1.0  0.05166  0.41247  0.53707  1.0000
  C   C176      1.0  0.48266  0.01876  0.57247  1.0000
  H   H186      1.0  0.46337  0.29618  0.51223  1.0000
  Fe  Fe27      1.0  0.12337  0.50035  0.58491  1.0000
  N   N15       1.0  0.37501  0.13627  0.53159  1.0000
  C   C177      1.0  0.04958  0.42717  0.53454  1.0000
  C   C178      1.0  0.18781  0.43512  0.52240  1.0000
  S   S50       1.0  0.49356  0.31942  0.62369  1.0000
  C   C179      1.0  0.38635  0.15656  0.54738  1.0000
  H   H187      1.0  0.47066  0.25740  0.63464  1.0000
  C   C180      1.0  0.43142  0.04330  0.58043  1.0000
  S   S51       1.0  0.47301  0.14541  0.56409  1.0000
  Fe  Fe28      1.0  0.48495  0.12500  0.54553  1.0000
  H   H188      1.0  0.02487  0.36724  0.52499  1.0000
  H   H189      1.0  0.47101  0.02824  0.62317  1.0000
  S   S52       1.0  0.47192  0.10196  0.56183  1.0000
  H   H190      1.0  0.16949  0.48391  0.55768  1.0000
  H   H191      1.0  0.39445  0.15865  0.55742  1.0000
  H   H192      1.0  0.42587  0.22203  0.54732  1.0000
  S   S53       1.0  0.38496  0.49912  0.70704  1.0000
  N   N16       1.0  0.44984  0.23107  0.55270  1.0000
  C   C181      1.0  0.45400  0.23846  0.53505  1.0000
  C   C182      1.0  0.46159  0.23061  0.56499  1.0000
  C   C183      1.0  0.47031  0.24561  0.52930  1.0000
  C   C184      1.0  0.47799  0.23766  0.55969  1.0000
  C   C185      1.0  0.48229  0.24532  0.54176  1.0000
  C   C186      1.0  0.30554  0.42283  0.54291  1.0000
  H   H193      1.0  0.45820  0.22508  0.57907  1.0000
  C   C187      1.0  0.37458  0.11788  0.52783  1.0000
  N   N17       1.0  0.30236  0.39629  0.53033  1.0000
  C   C188      1.0  0.05903  0.43739  0.54292  1.0000
  H   H194      1.0  0.43619  0.45249  0.67689  1.0000
  N   N18       1.0  0.47375  0.28008  0.64714  1.0000
  C   C189      1.0  0.38487  0.13901  0.54450  1.0000
  H   H195      1.0  0.47141  0.20117  0.61081  1.0000
  C   C190      1.0  0.16108  0.45593  0.53033  1.0000
  H   H196      1.0  0.48003  0.44232  0.70167  1.0000
  C   C191      1.0  0.03705  0.49125  0.58795  1.0000
  C   C192      1.0  0.48619  0.05089  0.56593  1.0000
  H   H197      1.0  0.31171  0.36930  0.52531  1.0000
  Fe  Fe29      1.0  0.40189  0.26442  0.51181  1.0000
  C   C193      1.0  0.37766  0.17136  0.53694  1.0000
  C   C194      1.0  0.50062  0.27745  0.66145  1.0000
  C   C195      1.0  0.02237  0.48174  0.59522  1.0000
  C   C196      1.0  0.30303  0.40458  0.54508  1.0000
  C   C197      1.0  0.47881  0.26304  0.64248  1.0000
  H   H198      1.0  0.14713  0.46137  0.52870  1.0000
  C   C198      1.0  0.08841  0.49997  0.51269  1.0000
  Fe  Fe30      1.0  0.50342  0.29792  0.60451  1.0000
  H   H199      1.0  0.45940  0.08440  0.60155  1.0000
  C   C199      1.0  0.50037  0.35097  0.66096  1.0000
  H   H200      1.0  0.44828  0.28288  0.63689  1.0000
  S   S54       1.0  0.14896  0.48853  0.59742  1.0000
  H   H201      1.0  0.19416  0.45998  0.55415  1.0000
  Fe  Fe31      1.0  0.27155  0.48738  0.58154  1.0000
  S   S55       1.0  0.50389  0.40454  0.68670  1.0000
  C   C200      1.0  0.19660  0.44161  0.53458  1.0000
  H   H202      1.0  0.39181  0.12761  0.55254  1.0000
  H   H203      1.0  0.08012  0.46813  0.53910  1.0000
  H   H204      1.0  0.06991  0.45952  0.56149  1.0000
  H   H205      1.0  0.47601  0.06036  0.62171  1.0000
  C   C201      1.0  0.36754  0.16843  0.52390  1.0000
  C   C202      1.0  0.40034  0.45263  0.68484  1.0000
  H   H206      1.0  0.30144  0.39720  0.55865  1.0000
  C   C203      1.0  0.42843  0.46460  0.67071  1.0000
  C   C204      1.0  0.10569  0.49007  0.51036  1.0000
  H   H207      1.0  0.27454  0.47938  0.50990  1.0000
  H   H208      1.0  0.45009  0.02056  0.60413  1.0000
  S   S56       1.0  0.48890  0.23280  0.60917  1.0000
  C   C205      1.0  0.24292  0.50011  0.65234  1.0000
  C   C206      1.0  0.36649  0.15068  0.52127  1.0000
  S   S57       1.0  0.48752  0.13101  0.51530  1.0000
  H   H209      1.0  0.30865  0.44690  0.52377  1.0000
  H   H210      1.0  0.03052  0.42821  0.51569  1.0000
  H   H211      1.0  0.38543  0.48408  0.66830  1.0000
  C   C207      1.0  0.30402  0.40578  0.51327  1.0000
  S   S58       1.0  0.37760  0.25092  0.51047  1.0000
  C   C208      1.0  0.49713  0.08259  0.51729  1.0000
  S   S59       1.0  0.12309  0.49486  0.52094  1.0000
  H   H212      1.0  0.15068  0.48593  0.54533  1.0000
  C   C209      1.0  0.21517  0.49630  0.64196  1.0000
  H   H213      1.0  0.23287  0.47447  0.65487  1.0000
  C   C210      1.0  0.30728  0.43259  0.52556  1.0000
  H   H214      1.0  0.36088  0.11620  0.52517  1.0000
  C   C211      1.0  0.16742  0.50114  0.59443  1.0000
  S   S60       1.0  0.29561  0.50098  0.58371  1.0000
  H   H215      1.0  0.02669  0.46186  0.50913  1.0000
  H   H216      1.0  0.49237  0.06935  0.51731  1.0000
  C   C212      1.0  0.49482  0.25269  0.64741  1.0000
  H   H217      1.0  0.19482  0.42446  0.51476  1.0000
  H   H218      1.0  0.35936  0.14851  0.51048  1.0000
  H   H219      1.0  0.41608  0.16641  0.51069  1.0000
  H   H220      1.0  0.49886  0.08366  0.53144  1.0000
  H   H221      1.0  0.38589  0.01988  0.50650  1.0000
  S   S61       1.0  0.43214  0.05567  0.50863  1.0000
  H   H222      1.0  0.48639  0.09348  0.51282  1.0000
  C   C213      1.0  0.02453  0.39142  0.50558  1.0000
  S   S62       1.0  0.04786  0.39226  0.50628  1.0000
  H   H223      1.0  0.06127  0.50399  0.50565  1.0000
  C   C214      1.0  0.44647  0.46536  0.89657  1.0000
  C   C215      1.0  0.46917  0.48641  0.89011  1.0000
  C   C216      1.0  0.50513  0.49827  0.84927  1.0000
  H   H224      1.0  0.46375  0.39695  0.98255  1.0000
  C   C217      1.0  0.40990  0.48414  0.76456  1.0000
  C   C218      1.0  0.41807  0.48639  0.81193  1.0000
  H   H225      1.0  0.44704  0.45074  0.89557  1.0000
  H   H226      1.0  0.40713  0.47825  0.81849  1.0000
  H   H227      1.0  0.39922  0.48122  0.75772  1.0000
  C   C219      1.0  0.48757  0.37771  0.98552  1.0000
  S   S63       1.0  0.50226  0.43141  0.87592  1.0000
  C   C220      1.0  0.47294  0.38991  0.99189  1.0000
  H   H228      1.0  0.50274  0.45188  0.91600  1.0000
  H   H229      1.0  0.43070  0.48039  0.81778  1.0000
  H   H230      1.0  0.48835  0.42559  0.96242  1.0000
  H   H231      1.0  0.48501  0.40384  0.80492  1.0000
  H   H232      1.0  0.50286  0.41800  0.99035  1.0000
  C   C221      1.0  0.50117  0.41686  0.96239  1.0000
  S   S64       1.0  0.42188  0.50194  0.85574  1.0000
  C   C222      1.0  0.49138  0.47474  0.83127  1.0000
  C   C223      1.0  0.43628  0.49275  0.78247  1.0000
  C   C224      1.0  0.49996  0.36917  0.99718  1.0000
  C   C225      1.0  0.43896  0.49419  0.76353  1.0000
  H   H233      1.0  0.48609  0.46558  0.82433  1.0000
  H   H234      1.0  0.44092  0.47311  0.88437  1.0000
  H   H235      1.0  0.49854  0.39806  0.77384  1.0000
  C   C226      1.0  0.40771  0.48276  0.78348  1.0000
  C   C227      1.0  0.36059  0.50394  0.81009  1.0000
  H   H236      1.0  0.49610  0.36299  0.83454  1.0000
  N   N19       1.0  0.46446  0.46984  0.89781  1.0000
  H   H237      1.0  0.41412  0.50031  0.81545  1.0000
  C   C228      1.0  0.48317  0.49267  0.83110  1.0000
  H   H238      1.0  0.34687  0.49360  0.79174  1.0000
  H   H239      1.0  0.49095  0.35826  0.80413  1.0000
  H   H240      1.0  0.39517  0.47880  0.79110  1.0000
  S   S65       1.0  0.46405  0.49996  0.82005  1.0000
  H   H241      1.0  0.48975  0.37551  0.97141  1.0000
  C   C229      1.0  0.48611  0.49102  0.89160  1.0000
  C   C230      1.0  0.49330  0.46177  0.90889  1.0000
  H   H242      1.0  0.47235  0.44461  0.91368  1.0000
  H   H243      1.0  0.42681  0.49756  0.94280  1.0000
  C   C231      1.0  0.47612  0.45770  0.90741  1.0000
  C   C232      1.0  0.49834  0.47848  0.90077  1.0000
  N   N20       1.0  0.42086  0.48698  0.79218  1.0000
  H   H244      1.0  0.44657  0.49636  0.78937  1.0000
  C   C233      1.0  0.49959  0.40220  0.80140  1.0000
  H   H245      1.0  0.43694  0.46885  0.90869  1.0000
  H   H246      1.0  0.35266  0.49774  0.82201  1.0000
  H   H247      1.0  0.45986  0.49611  0.88265  1.0000
  C   C234      1.0  0.35727  0.50163  0.79291  1.0000
  S   S66       1.0  0.49742  0.41391  0.92746  1.0000
  S   S67       1.0  0.50066  0.40323  0.83747  1.0000
  H   H248      1.0  0.45119  0.49878  0.75584  1.0000
  C   C235      1.0  0.50464  0.35665  0.80753  1.0000
  H   H249      1.0  0.48994  0.50405  0.88531  1.0000
  Fe  Fe32      1.0  0.41611  0.54228  0.04238  1.0000
  S   S68       1.0  0.43592  0.51730  0.04704  1.0000
  S   S69       1.0  0.40407  0.55936  0.06487  1.0000
  C   C236      1.0  0.49493  0.56651  0.04340  1.0000
  H   H250      1.0  0.47528  0.52086  0.05252  1.0000
  H   H251      1.0  0.45422  0.60874  0.14735  1.0000
  H   H252      1.0  0.45301  0.56280  0.04889  1.0000
  S   S70       1.0  0.44880  0.62573  0.24059  1.0000
  C   C237      1.0  0.44063  0.57030  0.08231  1.0000
  S   S71       1.0  0.39936  0.53057  0.02594  1.0000
  S   S72       1.0  0.43260  0.55388  0.01686  1.0000
  H   H253      1.0  0.44112  0.55614  0.07967  1.0000
  H   H254      1.0  0.45091  0.60988  0.17129  1.0000
  C   C238      1.0  0.49236  0.55811  0.02885  1.0000
  H   H255      1.0  0.43192  0.62780  0.05091  1.0000
  H   H256      1.0  0.42894  0.60564  0.07880  1.0000
  S   S73       1.0  0.46956  0.61803  0.07750  1.0000
  Fe  Fe33      1.0  0.47623  0.63573  0.23679  1.0000
  S   S74       1.0  0.48154  0.66337  0.22289  1.0000
  C   C239      1.0  0.47214  0.56510  0.24326  1.0000
  Fe  Fe34      1.0  0.39213  0.53614  0.17696  1.0000
  C   C240      1.0  0.43471  0.60090  0.06604  1.0000
  S   S75       1.0  0.37984  0.54671  0.15069  1.0000
  Fe  Fe35      1.0  0.41808  0.54509  0.20058  1.0000
  S   S76       1.0  0.44070  0.56252  0.19730  1.0000
  Fe  Fe36      1.0  0.48020  0.63491  0.05194  1.0000
  H   H257      1.0  0.45259  0.57108  0.08900  1.0000
  S   S77       1.0  0.42201  0.53012  0.17648  1.0000
  S   S78       1.0  0.38802  0.55290  0.20014  1.0000
  H   H258      1.0  0.42024  0.61131  0.18257  1.0000
  C   C241      1.0  0.44837  0.57703  0.04939  1.0000
  C   C242      1.0  0.44590  0.60899  0.22776  1.0000
  C   C243      1.0  0.42997  0.60077  0.23146  1.0000
  C   C244      1.0  0.42800  0.58647  0.22224  1.0000
  C   C245      1.0  0.44200  0.58040  0.20928  1.0000
  C   C246      1.0  0.45775  0.58881  0.20544  1.0000
  C   C247      1.0  0.45964  0.60312  0.21451  1.0000
  C   C248      1.0  0.43634  0.61349  0.05033  1.0000
  H   H259      1.0  0.41575  0.58011  0.22523  1.0000
  H   H260      1.0  0.47179  0.60950  0.21129  1.0000
  H   H261      1.0  0.38577  0.57976  0.16399  1.0000
  H   H262      1.0  0.46868  0.58413  0.19549  1.0000
  H   H263      1.0  0.39005  0.60169  0.18394  1.0000
  S   S79       1.0  0.41499  0.52006  0.22080  1.0000
  C   C249      1.0  0.48498  0.54181  0.03217  1.0000
  C   C250      1.0  0.48068  0.53364  0.04995  1.0000
  C   C251      1.0  0.39894  0.58418  0.16341  1.0000
  H   H264      1.0  0.49868  0.55862  0.22863  1.0000
  H   H265      1.0  0.42800  0.57345  0.09161  1.0000
  H   H266      1.0  0.46097  0.58905  0.16330  1.0000
  H   H267      1.0  0.36654  0.57065  0.12160  1.0000
  N   N21       1.0  0.44084  0.58296  0.06544  1.0000
  H   H268      1.0  0.44202  0.57717  0.14243  1.0000
  H   H269      1.0  0.48605  0.62580  0.00652  1.0000
  C   C252      1.0  0.39834  0.55420  0.08882  1.0000
  C   C253      1.0  0.38351  0.56498  0.09697  1.0000
  C   C254      1.0  0.37836  0.56237  0.11577  1.0000
  C   C255      1.0  0.38828  0.54935  0.12710  1.0000
  C   C256      1.0  0.40360  0.53874  0.11918  1.0000
  C   C257      1.0  0.40845  0.54094  0.10001  1.0000
  H   H270      1.0  0.37571  0.57539  0.08864  1.0000
  Fe  Fe37      1.0  0.49476  0.59891  0.07192  1.0000
  H   H271      1.0  0.41138  0.52854  0.12773  1.0000
  H   H272      1.0  0.42006  0.53257  0.09399  1.0000
  C   C258      1.0  0.49067  0.56612  0.23892  1.0000
  C   C259      1.0  0.40132  0.59652  0.17454  1.0000
  Fe  Fe38      1.0  0.38483  0.52664  0.21897  1.0000
  Fe  Fe39      1.0  0.48625  0.63148  0.09234  1.0000
  S   S80       1.0  0.46163  0.64858  0.03141  1.0000
  N   N22       1.0  0.43275  0.59512  0.16208  1.0000
  C   C260      1.0  0.41366  0.57716  0.15182  1.0000
  Fe  Fe40      1.0  0.49683  0.66480  0.24621  1.0000
  H   H273      1.0  0.48208  0.64364  0.18264  1.0000
  H   H274      1.0  0.41200  0.56720  0.14350  1.0000
  C   C261      1.0  0.43058  0.58282  0.15132  1.0000
  C   C262      1.0  0.45059  0.60102  0.16092  1.0000
  C   C263      1.0  0.48850  0.64359  0.16878  1.0000
  C   C264      1.0  0.45044  0.58925  0.03346  1.0000
  C   C265      1.0  0.41843  0.60191  0.17368  1.0000
  H   H275      1.0  0.48023  0.53553  0.07824  1.0000
  S   S81       1.0  0.38653  0.51061  0.19566  1.0000
  H   H276      1.0  0.48556  0.70917  0.22307  1.0000
  S   S82       1.0  0.50116  0.62109  0.22259  1.0000
  H   H277      1.0  0.49577  0.56439  0.01507  1.0000
  S   S83       1.0  0.50419  0.61457  0.04516  1.0000
  H   H278      1.0  0.48586  0.70218  0.20153  1.0000
  S   S84       1.0  0.49200  0.56949  0.07956  1.0000
  S   S85       1.0  0.47411  0.63521  0.12125  1.0000
  H   H279      1.0  0.41922  0.60532  0.24166  1.0000
  C   C266      1.0  0.44442  0.60761  0.03399  1.0000
  C   C267      1.0  0.48689  0.63996  0.13741  1.0000
  H   H280      1.0  0.45694  0.58445  0.02093  1.0000
  C   C268      1.0  0.47884  0.63993  0.15550  1.0000
  C   C269      1.0  0.49037  0.55849  0.06121  1.0000
  C   C270      1.0  0.48355  0.54189  0.06447  1.0000
  S   S86       1.0  0.49430  0.65068  0.06731  1.0000
  H   H281      1.0  0.36158  0.53118  0.10485  1.0000
  H   H282      1.0  0.44624  0.61736  0.02188  1.0000
  H   H283      1.0  0.46496  0.63736  0.15923  1.0000
  S   S87       1.0  0.36679  0.51848  0.24595  1.0000
  Fe  Fe41      1.0  0.45120  0.52787  0.02044  1.0000
  H   H284      1.0  0.46559  0.55693  0.23626  1.0000
  C   C271      1.0  0.49303  0.70975  0.20911  1.0000
  H   H285      1.0  0.33777  0.54968  0.24211  1.0000
  H   H286      1.0  0.50041  0.57917  0.04079  1.0000
  S   S88       1.0  0.48030  0.53215  0.01411  1.0000
  C   C272      1.0  0.49882  0.57694  0.24780  1.0000
  H   H287      1.0  0.49233  0.72407  0.20269  1.0000
  H   H288      1.0  0.50293  0.56860  0.11742  1.0000
  H   H289      1.0  0.49153  0.67603  0.02028  1.0000
  C   C273      1.0  0.37770  0.51924  0.08247  1.0000
  C   C274      1.0  0.46594  0.64943  0.00756  1.0000
  H   H290      1.0  0.49765  0.59088  0.13928  1.0000
  Fe  Fe42      1.0  0.42019  0.50604  0.02937  1.0000
  C   C275      1.0  0.50282  0.66992  0.01147  1.0000
  C   C276      1.0  0.50473  0.64377  0.13267  1.0000
  H   H291      1.0  0.37194  0.52923  0.07215  1.0000
  C   C277      1.0  0.37187  0.52031  0.10079  1.0000
  Fe  Fe43      1.0  0.41659  0.50581  0.19660  1.0000
  C   C278      1.0  0.33435  0.54124  0.25479  1.0000
  C   C279      1.0  0.37978  0.50769  0.11389  1.0000
  H   H292      1.0  0.37563  0.50872  0.12818  1.0000
  C   C280      1.0  0.39136  0.50547  0.07750  1.0000
  H   H293      1.0  0.39572  0.50466  0.06324  1.0000
  H   H294      1.0  0.38958  0.96401  0.44308  1.0000
  C   C281      1.0  0.19766  0.54582  0.37667  1.0000
  S   S89       1.0  0.50145  0.73992  0.36606  1.0000
  C   C282      1.0  0.26885  0.51432  0.28204  1.0000
  H   H295      1.0  0.45061  0.98173  0.42854  1.0000
  S   S90       1.0  0.47598  0.96173  0.39917  1.0000
  C   C283      1.0  0.49964  0.83439  0.35121  1.0000
  C   C284      1.0  0.19274  0.51773  0.33894  1.0000
  S   S91       1.0  0.42038  0.88716  0.46886  1.0000
  N   N23       1.0  0.46998  0.58620  0.26454  1.0000
  H   H296      1.0  0.49551  0.79522  0.28282  1.0000
  S   S92       1.0  0.42695  0.92852  0.47340  1.0000
  Fe  Fe44      1.0  0.40898  0.91570  0.45944  1.0000
  S   S93       1.0  0.40521  0.92714  0.43087  1.0000
  H   H297      1.0  0.14708  0.54126  0.37826  1.0000
  S   S94       1.0  0.38523  0.91678  0.48131  1.0000
  H   H298      1.0  0.03391  0.52913  0.31195  1.0000
  Fe  Fe45      1.0  0.06689  0.53316  0.34875  1.0000
  C   C285      1.0  0.12130  0.68305  0.45321  1.0000
  S   S95       1.0  0.04013  0.54793  0.34041  1.0000
  Fe  Fe46      1.0  0.10877  0.53120  0.34823  1.0000
  H   H299      1.0  0.45992  0.58912  0.29192  1.0000
  S   S96       1.0  0.13383  0.54563  0.33859  1.0000
  S   S97       1.0  0.23888  0.65490  0.47791  1.0000
  Fe  Fe47      1.0  0.08432  0.52242  0.38339  1.0000
  S   S98       1.0  0.07935  0.52624  0.41265  1.0000
  C   C286      1.0  0.49198  0.85070  0.35781  1.0000
  S   S99       1.0  0.08428  0.54698  0.36246  1.0000
  Fe  Fe48      1.0  0.06843  0.63924  0.45433  1.0000
  S   S100      1.0  0.06635  0.61173  0.44850  1.0000
  S   S101      1.0  0.04643  0.66232  0.44836  1.0000
  Fe  Fe49      1.0  0.10481  0.62717  0.46933  1.0000
  S   S102      1.0  0.10494  0.59825  0.46543  1.0000
  S   S103      1.0  0.12731  0.63445  0.48266  1.0000
  Fe  Fe50      1.0  0.09609  0.61042  0.43864  1.0000
  S   S104      1.0  0.10917  0.59911  0.41340  1.0000
  Fe  Fe51      1.0  0.07530  0.60246  0.47579  1.0000
  S   S105      1.0  0.09761  0.63913  0.44174  1.0000
  S   S106      1.0  0.07564  0.63030  0.48242  1.0000
  Fe  Fe52      1.0  0.23063  0.64469  0.45438  1.0000
  S   S107      1.0  0.24071  0.61561  0.46334  1.0000
  S   S108      1.0  0.20443  0.65174  0.44166  1.0000
  Fe  Fe53      1.0  0.26601  0.65816  0.46110  1.0000
  S   S109      1.0  0.27856  0.62973  0.47014  1.0000
  S   S110      1.0  0.27697  0.68499  0.46148  1.0000
  Fe  Fe54      1.0  0.26700  0.62174  0.44695  1.0000
  S   S111      1.0  0.28260  0.60257  0.42785  1.0000
  Fe  Fe55      1.0  0.27430  0.50790  0.36090  1.0000
  S   S112      1.0  0.25658  0.65045  0.43665  1.0000
  Fe  Fe56      1.0  0.40386  0.92844  0.49584  1.0000
  C   C287      1.0  0.10588  0.68401  0.44464  1.0000
  S   S113      1.0  0.49143  0.88564  0.36383  1.0000
  Fe  Fe57      1.0  0.25528  0.54655  0.35891  1.0000
  S   S114      1.0  0.28436  0.53497  0.35174  1.0000
  S   S115      1.0  0.24253  0.56925  0.37526  1.0000
  Fe  Fe58      1.0  0.24054  0.51860  0.34192  1.0000
  H   H300      1.0  0.46524  0.92309  0.38024  1.0000
  N   N24       1.0  0.40639  0.98313  0.44624  1.0000
  H   H301      1.0  0.14857  0.58169  0.38084  1.0000
  S   S116      1.0  0.49081  0.69141  0.25884  1.0000
  Fe  Fe59      1.0  0.27687  0.53233  0.32443  1.0000
  S   S117      1.0  0.29254  0.54243  0.29672  1.0000
  S   S118      1.0  0.24597  0.51971  0.37007  1.0000
  S   S119      1.0  0.24810  0.54621  0.33101  1.0000
  Fe  Fe60      1.0  0.37396  0.77395  0.47193  1.0000
  S   S120      1.0  0.40122  0.76625  0.48115  1.0000
  S   S121      1.0  0.36587  0.80393  0.46314  1.0000
  Fe  Fe61      1.0  0.36473  0.73458  0.47866  1.0000
  S   S122      1.0  0.39141  0.72471  0.48948  1.0000
  S   S123      1.0  0.35058  0.71003  0.47640  1.0000
  H   H302      1.0  0.16901  0.51394  0.38498  1.0000
  Fe  Fe62      1.0  0.40361  0.74280  0.46581  1.0000
  S   S124      1.0  0.43013  0.73171  0.45076  1.0000
  C   C288      1.0  0.49701  0.72333  0.29615  1.0000
  S   S125      1.0  0.37754  0.75176  0.45414  1.0000
  C   C289      1.0  0.43680  0.98744  0.43297  1.0000
  C   C290      1.0  0.01675  0.64355  0.44913  1.0000
  C   C291      1.0  0.49970  0.70001  0.27602  1.0000
  H   H303      1.0  0.08902  0.55095  0.49311  1.0000
  H   H304      1.0  0.12316  0.50883  0.46730  1.0000
  H   H305      1.0  0.39856  0.96025  0.46441  1.0000
  Fe  Fe63      1.0  0.48394  0.76674  0.36198  1.0000
  S   S126      1.0  0.45424  0.77216  0.37275  1.0000
  C   C292      1.0  0.40141  0.00149  0.44441  1.0000
  C   C293      1.0  0.43623  0.74270  0.42885  1.0000
  C   C294      1.0  0.42507  0.75760  0.42121  1.0000
  C   C295      1.0  0.43052  0.76633  0.40377  1.0000
  C   C296      1.0  0.44723  0.76036  0.39408  1.0000
  C   C297      1.0  0.45823  0.74533  0.40171  1.0000
  C   C298      1.0  0.45269  0.73647  0.41900  1.0000
  H   H306      1.0  0.41233  0.76249  0.42873  1.0000
  H   H307      1.0  0.42195  0.77794  0.39791  1.0000
  H   H308      1.0  0.47106  0.74057  0.39433  1.0000
  H   H309      1.0  0.46134  0.72491  0.42484  1.0000
  H   H310      1.0  0.13413  0.68518  0.44501  1.0000
  H   H311      1.0  0.16061  0.58531  0.35813  1.0000
  H   H312      1.0  0.44519  0.78946  0.42987  1.0000
  C   C299      1.0  0.41959  0.99569  0.48146  1.0000
  C   C300      1.0  0.31334  0.53549  0.28293  1.0000
  C   C301      1.0  0.32497  0.51971  0.28789  1.0000
  C   C302      1.0  0.34113  0.51480  0.27641  1.0000
  H   H313      1.0  0.26310  0.54317  0.27476  1.0000
  C   C303      1.0  0.46196  0.57522  0.25626  1.0000
  C   C304      1.0  0.08936  0.68107  0.45508  1.0000
  C   C305      1.0  0.49030  0.71563  0.28298  1.0000
  C   C306      1.0  0.29788  0.69168  0.46480  1.0000
  C   C307      1.0  0.31352  0.67930  0.46702  1.0000
  C   C308      1.0  0.32943  0.68522  0.47050  1.0000
  C   C309      1.0  0.33007  0.70358  0.47166  1.0000
  C   C310      1.0  0.31449  0.71598  0.46925  1.0000
  C   C311      1.0  0.29854  0.71004  0.46589  1.0000
  H   H314      1.0  0.31332  0.66516  0.46619  1.0000
  H   H315      1.0  0.34136  0.67547  0.47229  1.0000
  Fe  Fe64      1.0  0.39825  0.88895  0.49221  1.0000
  S   S127      1.0  0.35885  0.75770  0.49554  1.0000
  C   C312      1.0  0.27108  0.59116  0.41523  1.0000
  C   C313      1.0  0.28114  0.57983  0.40310  1.0000
  C   C314      1.0  0.27247  0.57217  0.39142  1.0000
  C   C315      1.0  0.25367  0.57595  0.39169  1.0000
  C   C316      1.0  0.24356  0.58669  0.40431  1.0000
  C   C317      1.0  0.25220  0.59417  0.41611  1.0000
  H   H316      1.0  0.29575  0.57738  0.40237  1.0000
  H   H317      1.0  0.28042  0.56396  0.38174  1.0000
  H   H318      1.0  0.22900  0.58960  0.40470  1.0000
  H   H319      1.0  0.24430  0.60264  0.42556  1.0000
  C   C318      1.0  0.40073  0.97543  0.50153  1.0000
  C   C319      1.0  0.16020  0.51571  0.34273  1.0000
  H   H320      1.0  0.14279  0.57159  0.36250  1.0000
  H   H321      1.0  0.32158  0.51133  0.30061  1.0000
  H   H322      1.0  0.11914  0.53261  0.48728  1.0000
  C   C320      1.0  0.14915  0.63717  0.47078  1.0000
  C   C321      1.0  0.15188  0.64198  0.45197  1.0000
  C   C322      1.0  0.16892  0.64622  0.44322  1.0000
  C   C323      1.0  0.18351  0.64533  0.45310  1.0000
  C   C324      1.0  0.18088  0.64013  0.47186  1.0000
  C   C325      1.0  0.16373  0.63628  0.48066  1.0000
  H   H323      1.0  0.14075  0.64283  0.44421  1.0000
  H   H324      1.0  0.17082  0.65024  0.42871  1.0000
  H   H325      1.0  0.19196  0.63948  0.47964  1.0000
  H   H326      1.0  0.00639  0.51783  0.30618  1.0000
  C   C326      1.0  0.08961  0.54503  0.41426  1.0000
  C   C327      1.0  0.08338  0.55515  0.42848  1.0000
  C   C328      1.0  0.09032  0.57122  0.42883  1.0000
  C   C329      1.0  0.10289  0.57758  0.41455  1.0000
  C   C330      1.0  0.10932  0.56732  0.40045  1.0000
  C   C331      1.0  0.10296  0.55085  0.40049  1.0000
  H   H327      1.0  0.07264  0.55106  0.43878  1.0000
  H   H328      1.0  0.08549  0.57889  0.43991  1.0000
  H   H329      1.0  0.11882  0.57231  0.38929  1.0000
  H   H330      1.0  0.10803  0.54291  0.38960  1.0000
  C   C332      1.0  0.15642  0.53446  0.33811  1.0000
  C   C333      1.0  0.17095  0.54477  0.33367  1.0000
  C   C334      1.0  0.18902  0.53649  0.33426  1.0000
  S   S128      1.0  0.48930  0.63815  0.26103  1.0000
  S   S129      1.0  0.10964  0.50742  0.37025  1.0000
  N   N25       1.0  0.47177  0.75435  0.45046  1.0000
  H   H331      1.0  0.16818  0.55927  0.32998  1.0000
  H   H332      1.0  0.20003  0.54460  0.33101  1.0000
  H   H333      1.0  0.14919  0.50758  0.34609  1.0000
  H   H334      1.0  0.49466  0.59532  0.26752  1.0000
  C   C335      1.0  0.26478  0.63224  0.39043  1.0000
  C   C336      1.0  0.06377  0.62378  0.40196  1.0000
  C   C337      1.0  0.02225  0.52880  0.32229  1.0000
  C   C338      1.0  0.02255  0.53552  0.33850  1.0000
  S   S130      1.0  0.21518  0.50646  0.33967  1.0000
  N   N26       1.0  0.24696  0.63287  0.38834  1.0000
  H   H335      1.0  0.22816  0.62380  0.37441  1.0000
  C   C339      1.0  0.03569  0.60307  0.40596  1.0000
  H   H336      1.0  0.31467  0.73013  0.47006  1.0000
  C   C340      1.0  0.07894  0.52329  0.46558  1.0000
  C   C341      1.0  0.37041  0.83861  0.46702  1.0000
  C   C342      1.0  0.38997  0.82784  0.49632  1.0000
  C   C343      1.0  0.38483  0.81475  0.48744  1.0000
  C   C344      1.0  0.37469  0.82004  0.47297  1.0000
  H   H337      1.0  0.23033  0.54414  0.28677  1.0000
  C   C345      1.0  0.10784  0.53031  0.48095  1.0000
  C   C346      1.0  0.45915  0.59671  0.27815  1.0000
  H   H338      1.0  0.38804  0.80057  0.49238  1.0000
  H   H339      1.0  0.18963  0.57419  0.36922  1.0000
  C   C347      1.0  0.18499  0.56102  0.37279  1.0000
  C   C348      1.0  0.45672  0.95105  0.40676  1.0000
  C   C349      1.0  0.44031  0.95838  0.40035  1.0000
  C   C350      1.0  0.42459  0.95041  0.40711  1.0000
  C   C351      1.0  0.42522  0.93549  0.42068  1.0000
  C   C352      1.0  0.44170  0.92796  0.42685  1.0000
  C   C353      1.0  0.45752  0.93561  0.41972  1.0000
  H   H340      1.0  0.43973  0.97031  0.39028  1.0000
  H   H341      1.0  0.41183  0.95627  0.40237  1.0000
  H   H342      1.0  0.44225  0.91630  0.43723  1.0000
  H   H343      1.0  0.47021  0.92997  0.42472  1.0000
  H   H344      1.0  0.26525  0.51192  0.40551  1.0000
  C   C354      1.0  0.23917  0.53134  0.28743  1.0000
  S   S131      1.0  0.49481  0.77338  0.33243  1.0000
  H   H345      1.0  0.37165  0.86599  0.47157  1.0000
  H   H346      1.0  0.21957  0.64500  0.39546  1.0000
  H   H347      1.0  0.10382  0.50531  0.43629  1.0000
  N   N27       1.0  0.44540  0.90553  0.39056  1.0000
  C   C355      1.0  0.45640  0.89351  0.40100  1.0000
  C   C356      1.0  0.42707  0.90521  0.39326  1.0000
  C   C357      1.0  0.44903  0.88130  0.41511  1.0000
  C   C358      1.0  0.41926  0.89308  0.40715  1.0000
  C   C359      1.0  0.43031  0.88120  0.41826  1.0000
  C   C360      1.0  0.45341  0.91843  0.37609  1.0000
  H   H348      1.0  0.47096  0.89350  0.39857  1.0000
  H   H349      1.0  0.41831  0.91477  0.38507  1.0000
  C   C361      1.0  0.02396  0.66008  0.44546  1.0000
  H   H350      1.0  0.40464  0.89344  0.40976  1.0000
  H   H351      1.0  0.42432  0.87209  0.42938  1.0000
  H   H352      1.0  0.48947  0.73519  0.30144  1.0000
  S   S132      1.0  0.09125  0.51997  0.33197  1.0000
  H   H353      1.0  0.45801  0.91189  0.36366  1.0000
  H   H354      1.0  0.08032  0.60100  0.39155  1.0000
  S   S133      1.0  0.50383  0.91254  0.39594  1.0000
  S   S134      1.0  0.06522  0.50985  0.37089  1.0000
  H   H355      1.0  0.05253  0.56779  0.40632  1.0000
  H   H356      1.0  0.47759  0.72174  0.27828  1.0000
  H   H357      1.0  0.47175  0.78764  0.40588  1.0000
  C   C362      1.0  0.02661  0.62500  0.49305  1.0000
  S   S135      1.0  0.46322  0.88757  0.49134  1.0000
  C   C363      1.0  0.09091  0.54049  0.48435  1.0000
  H   H358      1.0  0.02464  0.59502  0.40766  1.0000
  H   H359      1.0  0.42946  0.83016  0.50286  1.0000
  H   H360      1.0  0.25185  0.60691  0.35468  1.0000
  C   C364      1.0  0.41558  0.97804  0.48825  1.0000
  H   H361      1.0  0.49204  0.82300  0.35359  1.0000
  C   C365      1.0  0.28339  0.50668  0.42575  1.0000
  C   C366      1.0  0.16125  0.54267  0.37807  1.0000
  C   C367      1.0  0.37567  0.85174  0.47583  1.0000
  C   C368      1.0  0.45715  0.76728  0.44798  1.0000
  C   C369      1.0  0.50157  0.86570  0.35471  1.0000
  C   C370      1.0  0.48450  0.93388  0.48838  1.0000
  H   H362      1.0  0.21188  0.54727  0.37599  1.0000
  H   H363      1.0  0.10676  0.68681  0.43000  1.0000
  H   H364      1.0  0.49786  0.74272  0.43895  1.0000
  Fe  Fe65      1.0  0.43556  0.89999  0.48547  1.0000
  H   H365      1.0  0.34639  0.79682  0.50052  1.0000
  C   C371      1.0  0.17358  0.52716  0.38195  1.0000
  C   C372      1.0  0.39304  0.97081  0.45391  1.0000
  H   H366      1.0  0.43092  0.99757  0.47100  1.0000
  S   S136      1.0  0.38836  0.86218  0.50471  1.0000
  N   N28       1.0  0.39600  0.70876  0.43408  1.0000
  C   C373      1.0  0.41064  0.71303  0.42189  1.0000
  C   C374      1.0  0.37880  0.71569  0.43058  1.0000
  C   C375      1.0  0.40834  0.72516  0.40610  1.0000
  C   C376      1.0  0.37599  0.72793  0.41495  1.0000
  C   C377      1.0  0.39090  0.73278  0.40273  1.0000
  C   C378      1.0  0.39887  0.69623  0.45065  1.0000
  H   H367      1.0  0.42427  0.70747  0.42463  1.0000
  H   H368      1.0  0.36714  0.71207  0.44005  1.0000
  H   H369      1.0  0.42006  0.72897  0.39678  1.0000
  H   H370      1.0  0.36235  0.73376  0.41251  1.0000
  H   H371      1.0  0.38898  0.74250  0.39070  1.0000
  H   H372      1.0  0.38676  0.69722  0.46110  1.0000
  H   H373      1.0  0.40191  0.68210  0.44755  1.0000
  H   H374      1.0  0.41029  0.69954  0.45676  1.0000
  H   H375      1.0  0.38044  0.97798  0.46068  1.0000
  N   N29       1.0  0.16713  0.55925  0.37309  1.0000
  S   S137      1.0  0.05931  0.58235  0.49383  1.0000
  C   C379      1.0  0.48678  0.76542  0.42127  1.0000
  N   N30       1.0  0.09562  0.51338  0.46229  1.0000
  H   H376      1.0  0.06757  0.52059  0.45961  1.0000
  H   H377      1.0  0.48770  0.94516  0.47820  1.0000
  H   H378      1.0  0.07500  0.63155  0.40065  1.0000
  H   H379      1.0  0.50376  0.76339  0.27627  1.0000
  C   C380      1.0  0.48823  0.58688  0.26072  1.0000
  H   H380      1.0  0.44750  0.57466  0.25927  1.0000
  H   H381      1.0  0.00987  0.57873  0.33452  1.0000
  H   H382      1.0  0.29249  0.62172  0.38173  1.0000
  H   H383      1.0  0.26697  0.69739  0.49851  1.0000
  H   H384      1.0  0.44514  0.76759  0.45799  1.0000
  H   H385      1.0  0.25158  0.68192  0.49808  1.0000
  N   N31       1.0  0.12028  0.67919  0.47166  1.0000
  C   C381      1.0  0.38511  0.84639  0.49082  1.0000
  S   S138      1.0  0.49739  0.93841  0.35779  1.0000
  H   H386      1.0  0.27797  0.59420  0.49822  1.0000
  C   C382      1.0  0.27382  0.61387  0.36631  1.0000
  H   H387      1.0  0.28424  0.60590  0.35817  1.0000
  C   C383      1.0  0.15413  0.57528  0.36849  1.0000
  C   C384      1.0  0.11000  0.51681  0.46972  1.0000
  C   C385      1.0  0.47303  0.90504  0.49691  1.0000
  H   H388      1.0  0.23689  0.58108  0.49401  1.0000
  C   C386      1.0  0.47666  0.91982  0.48384  1.0000
  C   C387      1.0  0.17826  0.50739  0.34294  1.0000
  C   C388      1.0  0.42381  0.97607  0.44065  1.0000
  C   C389      1.0  0.04634  0.63092  0.40889  1.0000
  Fe  Fe66      1.0  0.38666  0.74911  0.50399  1.0000
  H   H389      1.0  0.30937  0.55836  0.26218  1.0000
  C   C390      1.0  0.47197  0.77866  0.41862  1.0000
  H   H390      1.0  0.23656  0.65505  0.40303  1.0000
  Fe  Fe67      1.0  0.49778  0.94216  0.38654  1.0000
  C   C391      1.0  0.23284  0.64197  0.40075  1.0000
  H   H391      1.0  0.21820  0.51591  0.30103  1.0000
  H   H392      1.0  0.44476  0.59991  0.27564  1.0000
  H   H393      1.0  0.02556  0.63961  0.48742  1.0000
  H   H394      1.0  0.01854  0.62606  0.41608  1.0000
  H   H395      1.0  0.23098  0.63326  0.41405  1.0000
  C   C392      1.0  0.25563  0.61451  0.36430  1.0000
  H   H396      1.0  0.48479  0.73682  0.47111  1.0000
  H   H397      1.0  0.04386  0.64439  0.41292  1.0000
  C   C393      1.0  0.19192  0.52876  0.38104  1.0000
  H   H398      1.0  0.47852  0.85168  0.36535  1.0000
  C   C394      1.0  0.00826  0.60034  0.50275  1.0000
  C   C395      1.0  0.47116  0.74075  0.46666  1.0000
  C   C396      1.0  0.31817  0.54613  0.26625  1.0000
  C   C397      1.0  0.07634  0.53700  0.47663  1.0000
  Fe  Fe68      1.0  0.25107  0.62611  0.48551  1.0000
  C   C398      1.0  0.45707  0.77968  0.43208  1.0000
  H   H399      1.0  0.02514  0.63127  0.45380  1.0000
  H   H400      1.0  0.42779  0.96155  0.44227  1.0000
  H   H401      1.0  0.28659  0.71979  0.46415  1.0000
  C   C399      1.0  0.13633  0.67911  0.48053  1.0000
  H   H402      1.0  0.25848  0.55271  0.49772  1.0000
  N   N32       1.0  0.05282  0.59618  0.39919  1.0000
  C   C400      1.0  0.27846  0.62279  0.37944  1.0000
  C   C401      1.0  0.05609  0.57778  0.39428  1.0000
  H   H403      1.0  0.07056  0.57380  0.38917  1.0000
  H   H404      1.0  0.28325  0.51394  0.27729  1.0000
  C   C402      1.0  0.06674  0.60635  0.39700  1.0000
  H   H405      1.0  0.44363  0.93073  0.37294  1.0000
  H   H406      1.0  0.45777  0.87214  0.42365  1.0000
  H   H407      1.0  0.42397  0.96650  0.48315  1.0000
  C   C403      1.0  0.03216  0.62057  0.41080  1.0000
  C   C404      1.0  0.24228  0.62405  0.37556  1.0000
  H   H408      1.0  0.06314  0.54488  0.47926  1.0000
  C   C405      1.0  0.23242  0.51530  0.29551  1.0000
  S   S139      1.0  0.50269  0.78215  0.37192  1.0000
  H   H409      1.0  0.13674  0.66833  0.49243  1.0000
  H   H410      1.0  0.29143  0.51727  0.41930  1.0000
  H   H411      1.0  0.47369  0.92028  0.47016  1.0000
  H   H412      1.0  0.26851  0.63845  0.40110  1.0000
  C   C406      1.0  0.08848  0.67702  0.47386  1.0000
  C   C407      1.0  0.34603  0.52552  0.25978  1.0000
  H   H413      1.0  0.10346  0.67272  0.49657  1.0000
  H   H414      1.0  0.46619  0.72855  0.46367  1.0000
  C   C408      1.0  0.10415  0.67621  0.48199  1.0000
  H   H415      1.0  0.46406  0.61001  0.27738  1.0000
  H   H416      1.0  0.36254  0.84287  0.45586  1.0000
  H   H417      1.0  0.34007  0.82062  0.49749  1.0000
  H   H418      1.0  0.04795  0.57676  0.38346  1.0000
  C   C409      1.0  0.25751  0.53079  0.28064  1.0000
  H   H419      1.0  0.14906  0.67605  0.47128  1.0000
  H   H420      1.0  0.46186  0.74597  0.47818  1.0000
  N   N33       1.0  0.00903  0.61819  0.49607  1.0000
  H   H421      1.0  0.03618  0.61737  0.48331  1.0000
  H   H422      1.0  0.49827  0.76422  0.41076  1.0000
  H   H423      1.0  0.13615  0.69244  0.48504  1.0000
  C   C410      1.0  0.48643  0.75325  0.43731  1.0000
  H   H424      1.0  0.01841  0.68854  0.43600  1.0000
  C   C411      1.0  0.01305  0.67573  0.43897  1.0000
  H   H425      1.0  0.16172  0.63272  0.49523  1.0000
  C   C412      1.0  0.00706  0.53557  0.35152  1.0000
  H   H426      1.0  0.07578  0.67430  0.48202  1.0000
  H   H427      1.0  0.07732  0.68158  0.44862  1.0000
  H   H428      1.0  0.20173  0.51676  0.38335  1.0000
  C   C413      1.0  0.00654  0.52263  0.31894  1.0000
  H   H429      1.0  0.00700  0.54109  0.36393  1.0000
  S   S140      1.0  0.26853  0.50443  0.33333  1.0000
  H   H430      1.0  0.29684  0.68671  0.50526  1.0000
  H   H431      1.0  0.46135  0.96434  0.50514  1.0000
  H   H432      1.0  0.46496  0.72823  0.70281  1.0000
  C   C414      1.0  0.49317  0.72149  0.64613  1.0000
  S   S141      1.0  0.46917  0.95422  0.55763  1.0000
  S   S142      1.0  0.08332  0.51603  0.55646  1.0000
  C   C415      1.0  0.03359  0.50893  0.57912  1.0000
  Fe  Fe69      1.0  0.47961  0.93097  0.57768  1.0000
  H   H433      1.0  0.45924  0.99716  0.50601  1.0000
  Fe  Fe70      1.0  0.48220  0.97242  0.57117  1.0000
  C   C416      1.0  0.49819  0.69741  0.67165  1.0000
  H   H434      1.0  0.35227  0.52004  0.62683  1.0000
  C   C417      1.0  0.22149  0.57518  0.52034  1.0000
  C   C418      1.0  0.23992  0.51860  0.64588  1.0000
  S   S143      1.0  0.12515  0.52142  0.56048  1.0000
  S   S144      1.0  0.49610  0.63659  0.70606  1.0000
  H   H435      1.0  0.47167  0.84330  0.55649  1.0000
  S   S145      1.0  0.49252  0.61620  0.74818  1.0000
  N   N34       1.0  0.21972  0.56328  0.53601  1.0000
  H   H436      1.0  0.50066  0.00256  0.59007  1.0000
  Fe  Fe71      1.0  0.09686  0.53223  0.57154  1.0000
  S   S146      1.0  0.08709  0.56194  0.57012  1.0000
  C   C419      1.0  0.07969  0.58659  0.51967  1.0000
  H   H437      1.0  0.19875  0.55566  0.55677  1.0000
  H   H438      1.0  0.32333  0.51659  0.61655  1.0000
  H   H439      1.0  0.34720  0.83912  0.51819  1.0000
  Fe  Fe72      1.0  0.24411  0.52002  0.59004  1.0000
  H   H440      1.0  0.08589  0.51110  0.52051  1.0000
  S   S147      1.0  0.21502  0.53365  0.59046  1.0000
  H   H441      1.0  0.01536  0.51540  0.64224  1.0000
  S   S148      1.0  0.46917  0.00156  0.57230  1.0000
  H   H442      1.0  0.48974  0.84649  0.58717  1.0000
  Fe  Fe73      1.0  0.28061  0.52531  0.56822  1.0000
  S   S149      1.0  0.29323  0.54201  0.54336  1.0000
  C   C420      1.0  0.05041  0.54201  0.60140  1.0000
  S   S150      1.0  0.26575  0.53643  0.59306  1.0000
  C   C421      1.0  0.24731  0.55544  0.50826  1.0000
  Fe  Fe74      1.0  0.38953  0.54977  0.70663  1.0000
  C   C422      1.0  0.04270  0.52775  0.61250  1.0000
  S   S151      1.0  0.39182  0.57929  0.70664  1.0000
  H   H443      1.0  0.46539  0.73320  0.64511  1.0000
  C   C423      1.0  0.30726  0.65856  0.51050  1.0000
  S   S152      1.0  0.39984  0.53503  0.68278  1.0000
  S   S153      1.0  0.36284  0.52106  0.66167  1.0000
  Fe  Fe75      1.0  0.47841  0.80045  0.59794  1.0000
  H   H444      1.0  0.29791  0.51212  0.67173  1.0000
  S   S154      1.0  0.46269  0.82460  0.61032  1.0000
  Fe  Fe76      1.0  0.47701  0.77524  0.57071  1.0000
  H   H445      1.0  0.38530  0.81503  0.55479  1.0000
  S   S155      1.0  0.46550  0.77313  0.54513  1.0000
  H   H446      1.0  0.36764  0.84245  0.53973  1.0000
  C   C424      1.0  0.47667  0.90452  0.51461  1.0000
  S   S156      1.0  0.46046  0.91041  0.58991  1.0000
  S   S157      1.0  0.46534  0.77495  0.60015  1.0000
  S   S158      1.0  0.48812  0.80163  0.56839  1.0000
  Fe  Fe77      1.0  0.48126  0.66160  0.71718  1.0000
  S   S159      1.0  0.45986  0.64632  0.73511  1.0000
  S   S160      1.0  0.47077  0.68782  0.69941  1.0000
  H   H447      1.0  0.28163  0.62415  0.51760  1.0000
  C   C425      1.0  0.24548  0.54347  0.52433  1.0000
  Fe  Fe78      1.0  0.47598  0.62139  0.72522  1.0000
  S   S161      1.0  0.46910  0.59510  0.71884  1.0000
  H   H448      1.0  0.48904  0.88020  0.57943  1.0000
  H   H449      1.0  0.45624  0.56306  0.71352  1.0000
  C   C426      1.0  0.21255  0.51487  0.63577  1.0000
  H   H450      1.0  0.32947  0.58702  0.70652  1.0000
  S   S162      1.0  0.24536  0.61448  0.51493  1.0000
  C   C427      1.0  0.47460  0.72327  0.65239  1.0000
  N   N35       1.0  0.43801  0.96094  0.52462  1.0000
  C   C428      1.0  0.47967  0.69941  0.67813  1.0000
  S   S163      1.0  0.50275  0.73580  0.62699  1.0000
  Fe  Fe79      1.0  0.49638  0.94886  0.54168  1.0000
  H   H451      1.0  0.47074  0.78581  0.64138  1.0000
  C   C429      1.0  0.36606  0.82903  0.53720  1.0000
  H   H452      1.0  0.04472  0.51639  0.57333  1.0000
  C   C430      1.0  0.28509  0.63784  0.51494  1.0000
  C   C431      1.0  0.41194  0.75590  0.53656  1.0000
  C   C432      1.0  0.35332  0.58695  0.68658  1.0000
  H   H453      1.0  0.44858  0.93413  0.53438  1.0000
  C   C433      1.0  0.44488  0.76599  0.54262  1.0000
  C   C434      1.0  0.43121  0.76305  0.55713  1.0000
  C   C435      1.0  0.41476  0.75802  0.55409  1.0000
  H   H454      1.0  0.05155  0.51604  0.61790  1.0000
  H   H455      1.0  0.43328  0.76465  0.57064  1.0000
  H   H456      1.0  0.40423  0.75571  0.56534  1.0000
  C   C436      1.0  0.41326  0.58384  0.70999  1.0000
  C   C437      1.0  0.41573  0.60144  0.71209  1.0000
  C   C438      1.0  0.43280  0.60521  0.71476  1.0000
  C   C439      1.0  0.44746  0.59137  0.71526  1.0000
  C   C440      1.0  0.44495  0.57382  0.71316  1.0000
  C   C441      1.0  0.42793  0.57005  0.71055  1.0000
  H   H457      1.0  0.40443  0.61218  0.71163  1.0000
  H   H458      1.0  0.43463  0.61881  0.71630  1.0000
  Fe  Fe80      1.0  0.41016  0.51237  0.70318  1.0000
  H   H459      1.0  0.42625  0.55649  0.70879  1.0000
  H   H460      1.0  0.01308  0.53140  0.57270  1.0000
  H   H461      1.0  0.36175  0.78181  0.52606  1.0000
  C   C442      1.0  0.43676  0.85078  0.51604  1.0000
  C   C443      1.0  0.34172  0.51801  0.65522  1.0000
  H   H462      1.0  0.44544  0.93785  0.51067  1.0000
  C   C444      1.0  0.27158  0.65260  0.51236  1.0000
  H   H463      1.0  0.33269  0.55317  0.66501  1.0000
  C   C445      1.0  0.33830  0.56279  0.67110  1.0000
  S   S164      1.0  0.09596  0.51274  0.59739  1.0000
  C   C446      1.0  0.25936  0.59487  0.52290  1.0000
  C   C447      1.0  0.25490  0.58612  0.54049  1.0000
  C   C448      1.0  0.26523  0.56991  0.54688  1.0000
  C   C449      1.0  0.28033  0.56257  0.53584  1.0000
  C   C450      1.0  0.36278  0.79515  0.52918  1.0000
  H   H464      1.0  0.50101  0.76991  0.64783  1.0000
  H   H465      1.0  0.24324  0.59174  0.54911  1.0000
  H   H466      1.0  0.26154  0.56312  0.56036  1.0000
  N   N36       1.0  0.47502  0.74947  0.68348  1.0000
  S   S165      1.0  0.25812  0.51079  0.56416  1.0000
  C   C451      1.0  0.07833  0.56877  0.54950  1.0000
  C   C452      1.0  0.06469  0.56008  0.54531  1.0000
  C   C453      1.0  0.05866  0.56453  0.52828  1.0000
  C   C454      1.0  0.01313  0.54296  0.60900  1.0000
  H   H467      1.0  0.38214  0.78458  0.54783  1.0000
  C   C455      1.0  0.08561  0.58225  0.53679  1.0000
  H   H468      1.0  0.05883  0.54985  0.55517  1.0000
  N   N37       1.0  0.22484  0.52576  0.63783  1.0000
  H   H469      1.0  0.45319  0.83472  0.57191  1.0000
  H   H470      1.0  0.09623  0.58891  0.53996  1.0000
  C   C456      1.0  0.44827  0.87882  0.60560  1.0000
  C   C457      1.0  0.43503  0.83299  0.51440  1.0000
  N   N38       1.0  0.02427  0.52828  0.61602  1.0000
  C   C458      1.0  0.19711  0.52075  0.59127  1.0000
  C   C459      1.0  0.17979  0.52974  0.58850  1.0000
  C   C460      1.0  0.16505  0.51996  0.58984  1.0000
  H   H471      1.0  0.17766  0.54434  0.58548  1.0000
  H   H472      1.0  0.15174  0.52705  0.58783  1.0000
  C   C461      1.0  0.23518  0.57134  0.50616  1.0000
  Fe  Fe81      1.0  0.37589  0.51687  0.72908  1.0000
  C   C462      1.0  0.44774  0.82295  0.54235  1.0000
  C   C463      1.0  0.46274  0.88633  0.59467  1.0000
  H   H473      1.0  0.22401  0.55333  0.64127  1.0000
  C   C464      1.0  0.44874  0.86004  0.61010  1.0000
  C   C465      1.0  0.46355  0.84819  0.60352  1.0000
  C   C466      1.0  0.47812  0.85549  0.59224  1.0000
  C   C467      1.0  0.47776  0.87459  0.58790  1.0000
  S   S166      1.0  0.28726  0.51174  0.63671  1.0000
  H   H474      1.0  0.48665  0.91844  0.53299  1.0000
  H   H475      1.0  0.43745  0.85468  0.61882  1.0000
  S   S167      1.0  0.40201  0.52811  0.72661  1.0000
  C   C468      1.0  0.32400  0.51636  0.63082  1.0000
  H   H476      1.0  0.42625  0.93645  0.52767  1.0000
  H   H477      1.0  0.42391  0.75680  0.50873  1.0000
  S   S168      1.0  0.48977  0.94987  0.59319  1.0000
  H   H478      1.0  0.21232  0.57131  0.56208  1.0000
  C   C469      1.0  0.45668  0.84438  0.55956  1.0000
  H   H479      1.0  0.45224  0.81189  0.55242  1.0000
  C   C470      1.0  0.44937  0.98940  0.51451  1.0000
  C   C471      1.0  0.01561  0.51742  0.57875  1.0000
  C   C472      1.0  0.45649  0.77126  0.66485  1.0000
  S   S169      1.0  0.49861  0.65909  0.73981  1.0000
  N   N39       1.0  0.35322  0.81030  0.52090  1.0000
  H   H480      1.0  0.23249  0.54785  0.61871  1.0000
  N   N40       1.0  0.36243  0.58013  0.67144  1.0000
  H   H481      1.0  0.43660  0.88766  0.61088  1.0000
  H   H482      1.0  0.01155  0.56872  0.59174  1.0000
  H   H483      1.0  0.47356  0.89323  0.52480  1.0000
  C   C473      1.0  0.37439  0.79663  0.54153  1.0000
  C   C474      1.0  0.34045  0.51829  0.63673  1.0000
  C   C475      1.0  0.32890  0.56970  0.68647  1.0000
  H   H484      1.0  0.44322  0.77797  0.66202  1.0000
  C   C476      1.0  0.30976  0.51388  0.66186  1.0000
  C   C477      1.0  0.03921  0.55684  0.59387  1.0000
  C   C478      1.0  0.22235  0.54510  0.63080  1.0000
  H   H485      1.0  0.44622  0.75468  0.68895  1.0000
  H   H486      1.0  0.45257  0.76605  0.51390  1.0000
  S   S170      1.0  0.36235  0.53975  0.71068  1.0000
  H   H487      1.0  0.04517  0.56780  0.58499  1.0000
  H   H488      1.0  0.37909  0.98876  0.51892  1.0000
  C   C479      1.0  0.43541  0.99790  0.52589  1.0000
  H   H489      1.0  0.45359  0.71408  0.67315  1.0000
  C   C480      1.0  0.27447  0.58759  0.51183  1.0000
  H   H490      1.0  0.23025  0.53845  0.55074  1.0000
  C   C481      1.0  0.30305  0.64086  0.51385  1.0000
  C   C482      1.0  0.20584  0.56761  0.55113  1.0000
  H   H491      1.0  0.20079  0.52043  0.62900  1.0000
  H   H492      1.0  0.40120  0.50879  0.65060  1.0000
  C   C483      1.0  0.45829  0.75810  0.68003  1.0000
  C   C484      1.0  0.02043  0.55737  0.59769  1.0000
  C   C485      1.0  0.44068  0.81894  0.52755  1.0000
  H   H493      1.0  0.20870  0.54959  0.62651  1.0000
  H   H494      1.0  0.06500  0.54156  0.59845  1.0000
  H   H495      1.0  0.43977  0.80497  0.52628  1.0000
  C   C486      1.0  0.48820  0.93334  0.50609  1.0000
  H   H496      1.0  0.25435  0.68836  0.51959  1.0000
  C   C487      1.0  0.47194  0.77567  0.65326  1.0000
  Fe  Fe82      1.0  0.49253  0.75979  0.60651  1.0000
  C   C488      1.0  0.23147  0.54761  0.53813  1.0000
  H   H497      1.0  0.45131  0.85818  0.56300  1.0000
  H   H498      1.0  0.32689  0.51551  0.68205  1.0000
  C   C489      1.0  0.30850  0.51412  0.64335  1.0000
  C   C490      1.0  0.44396  0.85431  0.53097  1.0000
  H   H499      1.0  0.48893  0.72598  0.69783  1.0000
  C   C491      1.0  0.42446  0.96910  0.53608  1.0000
  N   N41       1.0  0.44900  0.84050  0.54407  1.0000
  C   C492      1.0  0.46794  0.71236  0.66830  1.0000
  H   H500      1.0  0.36269  0.56206  0.65222  1.0000
  C   C493      1.0  0.35451  0.82706  0.52497  1.0000
  H   H501      1.0  0.41454  0.96129  0.54442  1.0000
  C   C494      1.0  0.38032  0.58517  0.66371  1.0000
  H   H502      1.0  0.38290  0.59758  0.66862  1.0000
  H   H503      1.0  0.39103  0.57410  0.66785  1.0000
  H   H504      1.0  0.38155  0.58782  0.64869  1.0000
  H   H505      1.0  0.31595  0.56540  0.69245  1.0000
  C   C495      1.0  0.29339  0.67301  0.50812  1.0000
  C   C496      1.0  0.48894  0.76690  0.65697  1.0000
  C   C497      1.0  0.28502  0.57154  0.51837  1.0000
  S   S171      1.0  0.50318  0.75823  0.57702  1.0000
  C   C498      1.0  0.35525  0.56800  0.66384  1.0000
  H   H506      1.0  0.25523  0.53138  0.52632  1.0000
  H   H507      1.0  0.35921  0.59617  0.69295  1.0000
  Fe  Fe83      1.0  0.37356  0.52300  0.68820  1.0000
  C   C499      1.0  0.42571  0.75873  0.52217  1.0000
  C   C500      1.0  0.43969  0.94137  0.52434  1.0000
  C   C501      1.0  0.33645  0.58184  0.69433  1.0000
  S   S172      1.0  0.39097  0.75019  0.53291  1.0000
  C   C502      1.0  0.01644  0.51330  0.62786  1.0000
  C   C503      1.0  0.44202  0.76386  0.52517  1.0000
  H   H508      1.0  0.03247  0.62311  0.50599  1.0000
  C   C504      1.0  0.45049  0.97080  0.51407  1.0000
  H   H509      1.0  0.04829  0.55759  0.52502  1.0000
  C   C505      1.0  0.06630  0.57764  0.51539  1.0000
  Fe  Fe84      1.0  0.27908  0.51112  0.60859  1.0000
  H   H510      1.0  0.21271  0.58799  0.51887  1.0000
  H   H511      1.0  0.43491  0.50552  0.64638  1.0000
  C   C506      1.0  0.42288  0.98771  0.53680  1.0000
  C   C507      1.0  0.48410  0.91878  0.51925  1.0000
  C   C508      1.0  0.37609  0.81369  0.54548  1.0000
  H   H512      1.0  0.19545  0.57899  0.54690  1.0000
  S   S173      1.0  0.50443  0.78543  0.60654  1.0000
  S   S174      1.0  0.41415  0.90077  0.50940  1.0000
  H   H513      1.0  0.44450  0.60354  0.75158  1.0000
  H   H514      1.0  0.24998  0.52710  0.64700  1.0000
  H   H515      1.0  0.44548  0.86819  0.53195  1.0000
  H   H516      1.0  0.08574  0.59665  0.50972  1.0000
  C   C509      1.0  0.32622  0.51579  0.66778  1.0000
  H   H517      1.0  0.31366  0.62949  0.51557  1.0000
  H   H518      1.0  0.32739  0.80664  0.51524  1.0000
  H   H519      1.0  0.29669  0.56590  0.50979  1.0000
  C   C510      1.0  0.26146  0.68516  0.50625  1.0000
  H   H520      1.0  0.42347  0.58142  0.75061  1.0000
  N   N42       1.0  0.27587  0.66989  0.50872  1.0000
  H   H521      1.0  0.25765  0.65010  0.51316  1.0000
  H   H522      1.0  0.32119  0.66112  0.50946  1.0000
  H   H523      1.0  0.50281  0.59928  0.69438  1.0000
  C   C511      1.0  0.49025  0.75380  0.67225  1.0000
  C   C512      1.0  0.47665  0.73612  0.69974  1.0000
  H   H524      1.0  0.41189  0.99420  0.54559  1.0000
  S   S175      1.0  0.49798  0.95086  0.51168  1.0000
  C   C513      1.0  0.39049  0.99062  0.50849  1.0000
  H   H525      1.0  0.47733  0.74298  0.71155  1.0000
  S   S176      1.0  0.39482  0.95347  0.51015  1.0000
  H   H526      1.0  0.39710  0.82352  0.50798  1.0000
  C   C514      1.0  0.34108  0.80851  0.50801  1.0000
  H   H527      1.0  0.50350  0.74679  0.67478  1.0000
  C   C515      1.0  0.50486  0.70840  0.65582  1.0000
  H   H528      1.0  0.02052  0.59140  0.50569  1.0000
  H   H529      1.0  0.43262  0.86177  0.50576  1.0000
  H   H530      1.0  0.39453  0.53007  0.79779  1.0000
  Fe  Fe85      1.0  0.42445  0.55280  0.84523  1.0000
  S   S177      1.0  0.40149  0.54167  0.86420  1.0000
  S   S178      1.0  0.42827  0.58207  0.83871  1.0000
  C   C516      1.0  0.42022  0.52146  0.95618  1.0000
  C   C517      1.0  0.45909  0.55148  0.91871  1.0000
  C   C518      1.0  0.38417  0.52212  0.79644  1.0000
  C   C519      1.0  0.46153  0.53343  0.91582  1.0000
  H   H531      1.0  0.45190  0.67692  0.97057  1.0000
  H   H532      1.0  0.48973  0.59390  0.78289  1.0000
  Fe  Fe86      1.0  0.46472  0.60937  0.91269  1.0000
  S   S179      1.0  0.46681  0.63850  0.90225  1.0000
  S   S180      1.0  0.43868  0.59816  0.91534  1.0000
  C   C520      1.0  0.45611  0.66348  0.99722  1.0000
  Fe  Fe87      1.0  0.48198  0.63706  0.92618  1.0000
  C   C521      1.0  0.45919  0.66553  0.97828  1.0000
  C   C522      1.0  0.47844  0.63679  0.99866  1.0000
  C   C523      1.0  0.38060  0.52003  0.77902  1.0000
  H   H533      1.0  0.40999  0.56407  0.93480  1.0000
  H   H534      1.0  0.39480  0.59608  0.81908  1.0000
  C   C524      1.0  0.46544  0.51976  0.92999  1.0000
  C   C525      1.0  0.43480  0.59995  0.76333  1.0000
  H   H535      1.0  0.47290  0.53563  0.97606  1.0000
  S   S181      1.0  0.37738  0.51592  0.83434  1.0000
  C   C526      1.0  0.47169  0.65319  0.96923  1.0000
  H   H536      1.0  0.47311  0.55876  0.96622  1.0000
  Fe  Fe88      1.0  0.40219  0.52369  0.84284  1.0000
  H   H537      1.0  0.38306  0.58605  0.80502  1.0000
  H   H538      1.0  0.46676  0.50567  0.92803  1.0000
  Fe  Fe89      1.0  0.41829  0.53905  0.00089  1.0000
  C   C527      1.0  0.47690  0.64039  0.80625  1.0000
  S   S182      1.0  0.41223  0.55269  0.97284  1.0000
  S   S183      1.0  0.42664  0.50919  0.90467  1.0000
  H   H539      1.0  0.45307  0.63463  0.82482  1.0000
  C   C528      1.0  0.39655  0.58628  0.80914  1.0000
  S   S184      1.0  0.44644  0.53353  0.85764  1.0000
  C   C529      1.0  0.50306  0.64271  0.82076  1.0000
  C   C530      1.0  0.37408  0.51402  0.81203  1.0000
  Fe  Fe90      1.0  0.42345  0.52116  0.87536  1.0000
  H   H540      1.0  0.46751  0.58232  0.82923  1.0000
  C   C531      1.0  0.48116  0.63855  0.97946  1.0000
  H   H541      1.0  0.43188  0.60020  0.99378  1.0000
  C   C532      1.0  0.42121  0.52138  0.92355  1.0000
  C   C533      1.0  0.41628  0.54016  0.92147  1.0000
  S   S185      1.0  0.47621  0.65811  0.94536  1.0000
  H   H542      1.0  0.41488  0.54745  0.90811  1.0000
  C   C534      1.0  0.42307  0.51209  0.94100  1.0000
  C   C535      1.0  0.42954  0.58889  0.85956  1.0000
  C   C536      1.0  0.41854  0.58215  0.87502  1.0000
  C   C537      1.0  0.42081  0.58581  0.89208  1.0000
  C   C538      1.0  0.43440  0.59582  0.89376  1.0000
  C   C539      1.0  0.44510  0.60307  0.87828  1.0000
  C   C540      1.0  0.44251  0.59977  0.86112  1.0000
  H   H543      1.0  0.40819  0.57416  0.87388  1.0000
  H   H544      1.0  0.41230  0.58051  0.90398  1.0000
  H   H545      1.0  0.45544  0.61109  0.87951  1.0000
  H   H546      1.0  0.45093  0.60518  0.84920  1.0000
  C   C541      1.0  0.47535  0.63564  0.83940  1.0000
  H   H547      1.0  0.46076  0.60266  0.81440  1.0000
  H   H548      1.0  0.48398  0.51848  0.83955  1.0000
  C   C542      1.0  0.42299  0.58756  0.76280  1.0000
  H   H549      1.0  0.44314  0.61746  0.77955  1.0000
  C   C543      1.0  0.41550  0.54028  0.95410  1.0000
  C   C544      1.0  0.41351  0.54954  0.93666  1.0000
  S   S186      1.0  0.49015  0.59817  0.89625  1.0000
  S   S187      1.0  0.42314  0.53670  0.82306  1.0000
  N   N43       1.0  0.41174  0.60823  0.95565  1.0000
  C   C545      1.0  0.41577  0.60034  0.97243  1.0000
  C   C546      1.0  0.41992  0.62272  0.94678  1.0000
  C   C547      1.0  0.42863  0.60665  0.98056  1.0000
  C   C548      1.0  0.43287  0.62938  0.95450  1.0000
  C   C549      1.0  0.43722  0.62126  0.97150  1.0000
  C   C550      1.0  0.39791  0.60174  0.94749  1.0000
  H   H550      1.0  0.40908  0.58903  0.97960  1.0000
  H   H551      1.0  0.41681  0.62889  0.93341  1.0000
  H   H552      1.0  0.49943  0.56355  0.91946  1.0000
  H   H553      1.0  0.43965  0.64063  0.94725  1.0000
  H   H554      1.0  0.44726  0.62628  0.97758  1.0000
  H   H555      1.0  0.40202  0.60171  0.93269  1.0000
  H   H556      1.0  0.39601  0.58756  0.95335  1.0000
  H   H557      1.0  0.38478  0.61054  0.94974  1.0000
  N   N44       1.0  0.46464  0.54219  0.94957  1.0000
  C   C551      1.0  0.46057  0.55565  0.93581  1.0000
  C   C552      1.0  0.46685  0.52441  0.94692  1.0000
  C   C553      1.0  0.49492  0.64350  0.80493  1.0000
  H   H558      1.0  0.44636  0.67323  0.00391  1.0000
  H   H559      1.0  0.46704  0.58122  0.80584  1.0000
  C   C554      1.0  0.47017  0.58977  0.81536  1.0000
  H   H560      1.0  0.45968  0.53003  0.90282  1.0000
  H   H561      1.0  0.46944  0.51372  0.95800  1.0000
  Fe  Fe91      1.0  0.44285  0.51625  0.83720  1.0000
  H   H562      1.0  0.49071  0.67976  0.98722  1.0000
  S   S188      1.0  0.46614  0.64029  0.78681  1.0000
  Fe  Fe92      1.0  0.50331  0.60092  0.92023  1.0000
  N   N45       1.0  0.48895  0.59363  0.81127  1.0000
  S   S189      1.0  0.47747  0.60882  0.93765  1.0000
  H   H563      1.0  0.42119  0.60907  0.80633  1.0000
  C   C555      1.0  0.49346  0.63843  0.83808  1.0000
  H   H564      1.0  0.49111  0.59583  0.83872  1.0000
  C   C556      1.0  0.46563  0.54693  0.96748  1.0000
  C   C557      1.0  0.43408  0.60775  0.77906  1.0000
  C   C558      1.0  0.42150  0.60306  0.79409  1.0000
  H   H565      1.0  0.46769  0.63261  0.85260  1.0000
  H   H566      1.0  0.49096  0.62898  0.97260  1.0000
  N   N46       1.0  0.40973  0.59114  0.79335  1.0000
  C   C559      1.0  0.46711  0.63675  0.82359  1.0000
  H   H567      1.0  0.45819  0.56970  0.93808  1.0000
  C   C560      1.0  0.41050  0.58323  0.77805  1.0000
  C   C561      1.0  0.50242  0.67191  0.99276  1.0000
  H   H568      1.0  0.40136  0.57357  0.77755  1.0000
  H   H569      1.0  0.45551  0.56217  0.90794  1.0000
  H   H570      1.0  0.50060  0.53129  0.91555  1.0000
  H   H571      1.0  0.38832  0.52625  0.76702  1.0000
  H   H572      1.0  0.45172  0.55022  0.97453  1.0000
  H   H573      1.0  0.40130  0.57274  0.81623  1.0000
  Fe  Fe93      1.0  0.49330  0.62748  0.88701  1.0000
  S   S190      1.0  0.43787  0.51359  0.00331  1.0000
  H   H574      1.0  0.42156  0.51407  0.96950  1.0000
  H   H575      1.0  0.50259  0.64649  0.79172  1.0000
  C   C562      1.0  0.36717  0.50959  0.77728  1.0000
  C   C563      1.0  0.49705  0.59554  0.79369  1.0000
  Fe  Fe94      1.0  0.47829  0.64223  0.75687  1.0000
  C   C564      1.0  0.49788  0.59637  0.82489  1.0000
  H   H576      1.0  0.50418  0.67560  0.95786  1.0000
  S   S191      1.0  0.50500  0.63557  0.85748  1.0000
  S   S192      1.0  0.36263  0.50504  0.75622  1.0000
  C   C565      1.0  0.49011  0.50451  0.83998  1.0000
  H   H577      1.0  0.54953  0.46037  0.06525  1.0000
  C   C566      1.0  0.61845  0.49590  0.13215  1.0000
  C   C567      1.0  0.53638  0.40078  0.11079  1.0000
  H   H578      1.0  0.54922  0.39730  0.15308  1.0000
  C   C568      1.0  0.55378  0.47051  0.10096  1.0000
  S   S193      1.0  0.64399  0.49438  0.22445  1.0000
  Fe  Fe95      1.0  0.51775  0.44365  0.03662  1.0000
  S   S194      1.0  0.52254  0.47126  0.02284  1.0000
  S   S195      1.0  0.54195  0.42246  0.03652  1.0000
  C   C569      1.0  0.55725  0.33495  0.20598  1.0000
  C   C570      1.0  0.52668  0.46286  0.21887  1.0000
  C   C571      1.0  0.51608  0.50000  0.06474  1.0000
  N   N47       1.0  0.53745  0.33669  0.21017  1.0000
  C   C572      1.0  0.56562  0.47087  0.11348  1.0000
  S   S196      1.0  0.60705  0.49572  0.02384  1.0000
  Fe  Fe96      1.0  0.55203  0.41101  0.21160  1.0000
  S   S197      1.0  0.57670  0.42557  0.20247  1.0000
  H   H579      1.0  0.53189  0.44930  0.22564  1.0000
  S   S198      1.0  0.55131  0.38277  0.20583  1.0000
  H   H580      1.0  0.61163  0.47196  0.21253  1.0000
  C   C573      1.0  0.59041  0.46728  0.23466  1.0000
  C   C574      1.0  0.57639  0.45688  0.24184  1.0000
  C   C575      1.0  0.57237  0.44370  0.23234  1.0000
  C   C576      1.0  0.58241  0.44076  0.21562  1.0000
  C   C577      1.0  0.59679  0.45079  0.20871  1.0000
  C   C578      1.0  0.60075  0.46407  0.21815  1.0000
  C   C579      1.0  0.56750  0.44091  0.09590  1.0000
  H   H581      1.0  0.56143  0.43591  0.23790  1.0000
  C   C580      1.0  0.54054  0.39749  0.14286  1.0000
  C   C581      1.0  0.52656  0.48414  0.03871  1.0000
  C   C582      1.0  0.52668  0.34647  0.19801  1.0000
  H   H582      1.0  0.62140  0.49322  0.17736  1.0000
  Fe  Fe97      1.0  0.52891  0.41134  0.06420  1.0000
  H   H583      1.0  0.56312  0.33919  0.21708  1.0000
  C   C583      1.0  0.51289  0.48894  0.05255  1.0000
  H   H584      1.0  0.51730  0.46107  0.20944  1.0000
  C   C584      1.0  0.56531  0.47496  0.18381  1.0000
  C   C585      1.0  0.61459  0.49112  0.15097  1.0000
  C   C586      1.0  0.51105  0.33022  0.23107  1.0000
  H   H585      1.0  0.55400  0.48652  0.02639  1.0000
  Fe  Fe98      1.0  0.52487  0.40661  0.02466  1.0000
  N   N48       1.0  0.55471  0.45555  0.09252  1.0000
  C   C587      1.0  0.51169  0.39389  0.13459  1.0000
  C   C588      1.0  0.54738  0.40076  0.12431  1.0000
  H   H586      1.0  0.54601  0.45611  0.18750  1.0000
  C   C589      1.0  0.57844  0.45584  0.11728  1.0000
  C   C590      1.0  0.51839  0.39760  0.11605  1.0000
  H   H587      1.0  0.56135  0.40304  0.12042  1.0000
  H   H588      1.0  0.56860  0.42927  0.08882  1.0000
  S   S199      1.0  0.59393  0.48481  0.24618  1.0000
  Fe  Fe99      1.0  0.52466  0.39395  0.19589  1.0000
  H   H589      1.0  0.53926  0.44187  0.07898  1.0000
  Fe  Fe100     1.0  0.53553  0.37815  0.23388  1.0000
  C   C591      1.0  0.57165  0.48817  0.19129  1.0000
  H   H590      1.0  0.52974  0.46452  0.08173  1.0000
  Fe  Fe101     1.0  0.61461  0.50342  0.23319  1.0000
  C   C592      1.0  0.57941  0.44075  0.10846  1.0000
  H   H591      1.0  0.58787  0.45603  0.12677  1.0000
  S   S200      1.0  0.54588  0.35187  0.25162  1.0000
  C   C593      1.0  0.54813  0.48482  0.21670  1.0000
  C   C594      1.0  0.52270  0.39377  0.14810  1.0000
  C   C595      1.0  0.56304  0.49315  0.20785  1.0000
  S   S201      1.0  0.51397  0.38762  0.17120  1.0000
  S   S202      1.0  0.51449  0.39286  0.05231  1.0000
  H   H592      1.0  0.50739  0.36662  0.02404  1.0000
  H   H593      1.0  0.54407  0.48237  0.09781  1.0000
  S   S203      1.0  0.58529  0.49448  0.07282  1.0000
  C   C596      1.0  0.54274  0.45564  0.07893  1.0000
  C   C597      1.0  0.55034  0.46694  0.19301  1.0000
  C   C598      1.0  0.52987  0.32835  0.22638  1.0000
  H   H594      1.0  0.60468  0.44853  0.19582  1.0000
  H   H595      1.0  0.58947  0.42907  0.11116  1.0000
  S   S204      1.0  0.52660  0.42244  0.19946  1.0000
  H   H596      1.0  0.60416  0.48263  0.15632  1.0000
  S   S205      1.0  0.54585  0.40404  0.08759  1.0000
  H   H597      1.0  0.53843  0.32071  0.23606  1.0000
  H   H598      1.0  0.56521  0.48290  0.11981  1.0000
  H   H599      1.0  0.57244  0.47032  0.17141  1.0000
  C   C599      1.0  0.50780  0.34842  0.20216  1.0000
  S   S206      1.0  0.53826  0.40586  0.24007  1.0000
  C   C600      1.0  0.54666  0.50098  0.04943  1.0000
  H   H600      1.0  0.53261  0.35310  0.18511  1.0000
  S   S207      1.0  0.60612  0.48797  0.11762  1.0000
  H   H601      1.0  0.56167  0.34372  0.19328  1.0000
  H   H602      1.0  0.51849  0.47060  0.22937  1.0000
  N   N49       1.0  0.54184  0.47205  0.20914  1.0000
  H   H603      1.0  0.56283  0.32068  0.20451  1.0000
  C   C601      1.0  0.62436  0.49706  0.16288  1.0000
  C   C602      1.0  0.54343  0.49015  0.03714  1.0000
  H   H604      1.0  0.50977  0.39750  0.10584  1.0000
  H   H605      1.0  0.54202  0.48821  0.22992  1.0000
  S   S208      1.0  0.50596  0.43419  0.06509  1.0000
  H   H606      1.0  0.56844  0.50272  0.21424  1.0000
  S   S209      1.0  0.50857  0.38739  0.22348  1.0000
  Fe  Fe102     1.0  0.51256  0.41542  0.22750  1.0000
  H   H607      1.0  0.58369  0.49396  0.18469  1.0000
  H   H608      1.0  0.56842  0.45922  0.25466  1.0000
  H   H609      1.0  0.50519  0.32409  0.24423  1.0000
  H   H610      1.0  0.50547  0.50390  0.07533  1.0000
  H   H611      1.0  0.63415  0.46152  0.00537  1.0000
  C   C603      1.0  0.72309  0.42600  0.40485  1.0000
  Fe  Fe103     1.0  0.92955  0.41414  0.45352  1.0000
  S   S210      1.0  0.92962  0.38634  0.46952  1.0000
  S   S211      1.0  0.93738  0.42094  0.42357  1.0000
  Fe  Fe104     1.0  0.91729  0.43307  0.48587  1.0000
  H   H612      1.0  0.99414  0.47837  0.38901  1.0000
  Fe  Fe105     1.0  0.94311  0.39804  0.48897  1.0000
  C   C604      1.0  0.72018  0.41744  0.42271  1.0000
  Fe  Fe106     1.0  0.90289  0.39809  0.48396  1.0000
  H   H613      1.0  0.50706  0.08290  0.42200  1.0000
  S   S212      1.0  0.94502  0.42481  0.47182  1.0000
  S   S213      1.0  0.90181  0.42480  0.46626  1.0000
  C   C605      1.0  0.90040  0.45065  0.37312  1.0000
  Fe  Fe107     1.0  0.52545  0.10417  0.35778  1.0000
  C   C606      1.0  0.62758  0.08243  0.41468  1.0000
  Fe  Fe108     1.0  0.60437  0.11259  0.47085  1.0000
  S   S214      1.0  0.57607  0.12508  0.46666  1.0000
  S   S215      1.0  0.61012  0.08298  0.48315  1.0000
  Fe  Fe109     1.0  0.61908  0.14939  0.46035  1.0000
  S   S216      1.0  0.59193  0.16436  0.45558  1.0000
  S   S217      1.0  0.64151  0.16692  0.45330  1.0000
  C   C607      1.0  0.69756  0.27304  0.42514  1.0000
  Fe  Fe110     1.0  0.58940  0.14102  0.44186  1.0000
  S   S218      1.0  0.57897  0.14744  0.41510  1.0000
  S   S219      1.0  0.60888  0.13399  0.48699  1.0000
  S   S220      1.0  0.61745  0.12680  0.44463  1.0000
  H   H614      1.0  0.53913  0.01573  0.43044  1.0000
  C   C608      1.0  0.99538  0.40197  0.49418  1.0000
  S   S221      1.0  0.51622  0.13382  0.34737  1.0000
  C   C609      1.0  0.51809  0.07515  0.49038  1.0000
  H   H615      1.0  0.65638  0.47372  0.25991  1.0000
  H   H616      1.0  0.66417  0.28807  0.39875  1.0000
  Fe  Fe111     1.0  0.55139  0.07607  0.37732  1.0000
  S   S222      1.0  0.57608  0.07207  0.39110  1.0000
  S   S223      1.0  0.55092  0.08667  0.34790  1.0000
  Fe  Fe112     1.0  0.65558  0.29812  0.46674  1.0000
  S   S224      1.0  0.63240  0.31504  0.45382  1.0000
  S   S225      1.0  0.68202  0.30721  0.47162  1.0000
  Fe  Fe113     1.0  0.63458  0.26474  0.47672  1.0000
  S   S226      1.0  0.61016  0.27954  0.46484  1.0000
  C   C610      1.0  0.60727  0.49392  0.28592  1.0000
  Fe  Fe114     1.0  0.62992  0.28999  0.44183  1.0000
  S   S227      1.0  0.62657  0.28835  0.41270  1.0000
  H   H617      1.0  0.68720  0.31706  0.43171  1.0000
  S   S228      1.0  0.65450  0.27373  0.45296  1.0000
  S   S229      1.0  0.51478  0.29524  0.31759  1.0000
  H   H618      1.0  0.84400  0.49696  0.33799  1.0000
  Fe  Fe115     1.0  0.51174  0.07263  0.38446  1.0000
  Fe  Fe116     1.0  0.53924  0.23176  0.35241  1.0000
  H   H619      1.0  0.62506  0.09685  0.41007  1.0000
  S   S230      1.0  0.55426  0.20333  0.35022  1.0000
  Fe  Fe117     1.0  0.53941  0.26208  0.37488  1.0000
  S   S231      1.0  0.50782  0.08313  0.35563  1.0000
  S   S232      1.0  0.54997  0.27280  0.39723  1.0000
  S   S233      1.0  0.51287  0.24417  0.34242  1.0000
  Fe  Fe118     1.0  0.52391  0.27107  0.33859  1.0000
  H   H620      1.0  0.73419  0.44786  0.37504  1.0000
  S   S234      1.0  0.52939  0.23505  0.38141  1.0000
  S   S235      1.0  0.55144  0.25825  0.34633  1.0000
  C   C611      1.0  0.51839  0.17037  0.34289  1.0000
  Fe  Fe119     1.0  0.53348  0.06462  0.34886  1.0000
  S   S236      1.0  0.75781  0.47876  0.36268  1.0000
  Fe  Fe120     1.0  0.77963  0.40165  0.46456  1.0000
  S   S237      1.0  0.77276  0.42747  0.47661  1.0000
  S   S238      1.0  0.80888  0.39634  0.45163  1.0000
  Fe  Fe121     1.0  0.73951  0.39415  0.47023  1.0000
  S   S239      1.0  0.73043  0.41963  0.48329  1.0000
  S   S240      1.0  0.71606  0.38182  0.46217  1.0000
  Fe  Fe122     1.0  0.74917  0.43305  0.46095  1.0000
  S   S241      1.0  0.74039  0.46143  0.44773  1.0000
  C   C612      1.0  0.51772  0.14097  0.49317  1.0000
  S   S242      1.0  0.75713  0.40839  0.44703  1.0000
  S   S243      1.0  0.76298  0.38521  0.48677  1.0000
  C   C613      1.0  0.58122  0.25286  0.50098  1.0000
  C   C614      1.0  0.75455  0.47465  0.38646  1.0000
  C   C615      1.0  0.74438  0.48767  0.39654  1.0000
  C   C616      1.0  0.74045  0.48358  0.41543  1.0000
  C   C617      1.0  0.74679  0.46655  0.42430  1.0000
  C   C618      1.0  0.75731  0.45370  0.41425  1.0000
  C   C619      1.0  0.76112  0.45772  0.39535  1.0000
  H   H621      1.0  0.77574  0.49771  0.41042  1.0000
  H   H622      1.0  0.73212  0.49347  0.42315  1.0000
  H   H623      1.0  0.76237  0.44060  0.42100  1.0000
  H   H624      1.0  0.76901  0.44762  0.38759  1.0000
  C   C620      1.0  0.53685  0.33639  0.27002  1.0000
  C   C621      1.0  0.53663  0.31205  0.36419  1.0000
  H   H625      1.0  0.88928  0.45562  0.43275  1.0000
  H   H626      1.0  0.51210  0.13388  0.31036  1.0000
  C   C622      1.0  0.54218  0.30894  0.29201  1.0000
  C   C623      1.0  0.54863  0.32178  0.27765  1.0000
  C   C624      1.0  0.71207  0.42765  0.43640  1.0000
  H   H627      1.0  0.62255  0.02543  0.40581  1.0000
  H   H628      1.0  0.55145  0.29787  0.29771  1.0000
  C   C625      1.0  0.98796  0.38708  0.50465  1.0000
  C   C626      1.0  0.70676  0.36091  0.46534  1.0000
  C   C627      1.0  0.69052  0.36051  0.45832  1.0000
  C   C628      1.0  0.68268  0.34433  0.46018  1.0000
  C   C629      1.0  0.69102  0.32822  0.46907  1.0000
  C   C630      1.0  0.70724  0.32859  0.47607  1.0000
  C   C631      1.0  0.71503  0.34479  0.47429  1.0000
  H   H629      1.0  0.68398  0.37285  0.45135  1.0000
  H   H630      1.0  0.69836  0.49482  0.28114  1.0000
  H   H631      1.0  0.85553  0.42535  0.50214  1.0000
  H   H632      1.0  0.72752  0.34477  0.47973  1.0000
  C   C632      1.0  0.60546  0.28338  0.40847  1.0000
  C   C633      1.0  0.58995  0.28584  0.42106  1.0000
  C   C634      1.0  0.57320  0.28238  0.41734  1.0000
  C   C635      1.0  0.57169  0.27631  0.40104  1.0000
  C   C636      1.0  0.58721  0.27361  0.38843  1.0000
  C   C637      1.0  0.60402  0.27726  0.39210  1.0000
  H   H633      1.0  0.59072  0.29088  0.43352  1.0000
  H   H634      1.0  0.56125  0.28460  0.42713  1.0000
  H   H635      1.0  0.58624  0.26892  0.37581  1.0000
  H   H636      1.0  0.61595  0.27535  0.38225  1.0000
  C   C638      1.0  0.83100  0.44298  0.49649  1.0000
  S   S244      1.0  0.51262  0.27620  0.36709  1.0000
  C   C639      1.0  0.52734  0.15289  0.34780  1.0000
  C   C640      1.0  0.54459  0.15110  0.35311  1.0000
  C   C641      1.0  0.55272  0.16665  0.35359  1.0000
  C   C642      1.0  0.54361  0.18414  0.34905  1.0000
  C   C643      1.0  0.52640  0.18591  0.34364  1.0000
  H   H637      1.0  0.60116  0.03943  0.40996  1.0000
  H   H638      1.0  0.55169  0.13776  0.35678  1.0000
  H   H639      1.0  0.56611  0.16511  0.35763  1.0000
  C   C644      1.0  0.57839  0.12663  0.40808  1.0000
  C   C645      1.0  0.58330  0.11065  0.41938  1.0000
  C   C646      1.0  0.58253  0.09392  0.41406  1.0000
  C   C647      1.0  0.57700  0.09310  0.39744  1.0000
  C   C648      1.0  0.57196  0.10906  0.38613  1.0000
  C   C649      1.0  0.57282  0.12588  0.39140  1.0000
  H   H640      1.0  0.58761  0.11112  0.43226  1.0000
  H   H641      1.0  0.58601  0.08157  0.42287  1.0000
  H   H642      1.0  0.56767  0.10842  0.37322  1.0000
  H   H643      1.0  0.56918  0.13825  0.38261  1.0000
  C   C650      1.0  0.63242  0.21848  0.48034  1.0000
  C   C651      1.0  0.64348  0.21777  0.46370  1.0000
  C   C652      1.0  0.64616  0.20193  0.45541  1.0000
  C   C653      1.0  0.63738  0.18696  0.46343  1.0000
  C   C654      1.0  0.62570  0.18800  0.47963  1.0000
  C   C655      1.0  0.62349  0.20358  0.48821  1.0000
  H   H644      1.0  0.65051  0.22914  0.45760  1.0000
  H   H645      1.0  0.65523  0.20117  0.44288  1.0000
  H   H646      1.0  0.61887  0.17654  0.48590  1.0000
  H   H647      1.0  0.64018  0.08561  0.43763  1.0000
  C   C656      1.0  0.93439  0.44461  0.41888  1.0000
  C   C657      1.0  0.93751  0.45330  0.40110  1.0000
  C   C658      1.0  0.93328  0.47219  0.39739  1.0000
  C   C659      1.0  0.92573  0.48228  0.41143  1.0000
  C   C660      1.0  0.92316  0.47361  0.42921  1.0000
  C   C661      1.0  0.92765  0.45488  0.43292  1.0000
  H   H648      1.0  0.94285  0.44542  0.39019  1.0000
  H   H649      1.0  0.93568  0.47882  0.38370  1.0000
  H   H650      1.0  0.91726  0.48125  0.44013  1.0000
  H   H651      1.0  0.92533  0.44845  0.44668  1.0000
  C   C662      1.0  0.85846  0.38840  0.48230  1.0000
  C   C663      1.0  0.52736  0.14689  0.39936  1.0000
  C   C664      1.0  0.82724  0.38362  0.48121  1.0000
  C   C665      1.0  0.82736  0.39410  0.46416  1.0000
  C   C666      1.0  0.84309  0.40174  0.45625  1.0000
  C   C667      1.0  0.85847  0.39915  0.46539  1.0000
  Fe  Fe123     1.0  0.58145  0.14736  0.48073  1.0000
  H   H652      1.0  0.65143  0.45631  0.27874  1.0000
  H   H653      1.0  0.84339  0.40958  0.44293  1.0000
  H   H654      1.0  0.87045  0.40514  0.45918  1.0000
  C   C668      1.0  0.60565  0.06389  0.47428  1.0000
  H   H655      1.0  0.59149  0.07912  0.45300  1.0000
  C   C669      1.0  0.52817  0.09067  0.30529  1.0000
  C   C670      1.0  0.52377  0.31047  0.29892  1.0000
  H   H656      1.0  0.61563  0.04380  0.38888  1.0000
  C   C671      1.0  0.63609  0.07613  0.43009  1.0000
  H   H657      1.0  0.54335  0.14606  0.47768  1.0000
  C   C672      1.0  0.70983  0.45430  0.41407  1.0000
  C   C673      1.0  0.00155  0.48249  0.36005  1.0000
  H   H658      1.0  0.72444  0.40303  0.42607  1.0000
  H   H659      1.0  0.88116  0.48108  0.41004  1.0000
  S   S245      1.0  0.56221  0.16066  0.50186  1.0000
  C   C674      1.0  0.53307  0.16360  0.39947  1.0000
  H   H660      1.0  0.87383  0.44223  0.42644  1.0000
  C   C675      1.0  0.54023  0.15510  0.50382  1.0000
  C   C676      1.0  0.88837  0.48012  0.38153  1.0000
  C   C677      1.0  0.51212  0.11976  0.30905  1.0000
  S   S246      1.0  0.53692  0.04702  0.32657  1.0000
  C   C678      1.0  0.63267  0.04559  0.42674  1.0000
  S   S247      1.0  0.87737  0.38492  0.49446  1.0000
  N   N50       1.0  0.50688  0.17875  0.38607  1.0000
  H   H661      1.0  0.54799  0.12462  0.29320  1.0000
  C   C679      1.0  0.59436  0.05028  0.45175  1.0000
  C   C680      1.0  0.66222  0.32052  0.40926  1.0000
  H   H662      1.0  0.65968  0.32989  0.41965  1.0000
  H   H663      1.0  0.66826  0.32761  0.39623  1.0000
  H   H664      1.0  0.64878  0.31712  0.40754  1.0000
  N   N51       1.0  0.71795  0.44421  0.40074  1.0000
  H   H665      1.0  0.99298  0.39258  0.44810  1.0000
  C   C681      1.0  0.89814  0.44334  0.39145  1.0000
  H   H666      1.0  0.52726  0.19242  0.39264  1.0000
  C   C682      1.0  0.56639  0.26653  0.50190  1.0000
  C   C683      1.0  0.53263  0.32731  0.33475  1.0000
  C   C684      1.0  0.53243  0.01267  0.34623  1.0000
  N   N52       1.0  0.58552  0.20536  0.40320  1.0000
  C   C685      1.0  0.59837  0.19326  0.41130  1.0000
  C   C686      1.0  0.58265  0.22305  0.40628  1.0000
  C   C687      1.0  0.60854  0.19873  0.42302  1.0000
  C   C688      1.0  0.59252  0.22893  0.41804  1.0000
  C   C689      1.0  0.60551  0.21664  0.42649  1.0000
  C   C690      1.0  0.57549  0.19958  0.39040  1.0000
  H   H667      1.0  0.60075  0.17924  0.40882  1.0000
  H   H668      1.0  0.57265  0.23276  0.39968  1.0000
  H   H669      1.0  0.61865  0.18908  0.42947  1.0000
  H   H670      1.0  0.59013  0.24293  0.42056  1.0000
  H   H671      1.0  0.61325  0.22094  0.43570  1.0000
  H   H672      1.0  0.58218  0.20280  0.37630  1.0000
  H   H673      1.0  0.57478  0.18475  0.39316  1.0000
  H   H674      1.0  0.56134  0.20652  0.39131  1.0000
  C   C691      1.0  0.72050  0.45269  0.38180  1.0000
  H   H675      1.0  0.89685  0.47501  0.35399  1.0000
  C   C692      1.0  0.52259  0.17950  0.39277  1.0000
  C   C693      1.0  0.53464  0.14730  0.49029  1.0000
  C   C694      1.0  0.61551  0.03952  0.40368  1.0000
  H   H676      1.0  0.58777  0.05186  0.43971  1.0000
  H   H677      1.0  0.59371  0.49303  0.28321  1.0000
  H   H678      1.0  0.51602  0.03184  0.41140  1.0000
  C   C695      1.0  0.51843  0.33790  0.27691  1.0000
  H   H679      1.0  0.71966  0.46766  0.38069  1.0000
  N   N53       1.0  0.89116  0.45420  0.40446  1.0000
  S   S248      1.0  0.53620  0.05285  0.37748  1.0000
  C   C696      1.0  0.53701  0.02314  0.32944  1.0000
  C   C697      1.0  0.51963  0.01732  0.41177  1.0000
  C   C698      1.0  0.54522  0.11575  0.30625  1.0000
  C   C699      1.0  0.59649  0.06574  0.45918  1.0000
  N   N54       1.0  0.67433  0.30411  0.41486  1.0000
  H   H680      1.0  0.61896  0.04480  0.49409  1.0000
  C   C700      1.0  0.61191  0.04639  0.48235  1.0000
  N   N55       1.0  0.52812  0.10846  0.30702  1.0000
  C   C701      1.0  0.69828  0.28913  0.43176  1.0000
  N   N56       1.0  0.62393  0.05192  0.41192  1.0000
  H   H681      1.0  0.55683  0.10481  0.30762  1.0000
  H   H682      1.0  0.51934  0.19926  0.33983  1.0000
  C   C702      1.0  0.68660  0.30467  0.42633  1.0000
  H   H683      1.0  0.98766  0.48486  0.35704  1.0000
  H   H684      1.0  0.65597  0.49780  0.29332  1.0000
  H   H685      1.0  0.57733  0.31361  0.33778  1.0000
  H   H686      1.0  0.56289  0.32037  0.27240  1.0000
  C   C703      1.0  0.67381  0.28850  0.40797  1.0000
  C   C704      1.0  0.54598  0.08820  0.48163  1.0000
  H   H687      1.0  0.71004  0.44947  0.37438  1.0000
  S   S249      1.0  0.92469  0.50217  0.35408  1.0000
  C   C705      1.0  0.62193  0.48176  0.27952  1.0000
  H   H688      1.0  0.68448  0.26023  0.40798  1.0000
  H   H689      1.0  0.80424  0.45704  0.49303  1.0000
  H   H690      1.0  0.90217  0.42896  0.39524  1.0000
  H   H691      1.0  0.94168  0.48097  0.49946  1.0000
  C   C706      1.0  0.68532  0.27271  0.41307  1.0000
  H   H692      1.0  0.70751  0.28955  0.44140  1.0000
  C   C707      1.0  0.70688  0.44619  0.43210  1.0000
  H   H693      1.0  0.61536  0.01761  0.48084  1.0000
  H   H694      1.0  0.70122  0.45434  0.44277  1.0000
  H   H695      1.0  0.65911  0.34401  0.49568  1.0000
  H   H696      1.0  0.51368  0.13429  0.48303  1.0000
  H   H697      1.0  0.70631  0.26082  0.42953  1.0000
  H   H698      1.0  0.83804  0.45395  0.48913  1.0000
  S   S250      1.0  0.63022  0.23728  0.49217  1.0000
  C   C708      1.0  0.60133  0.03282  0.45933  1.0000
  C   C709      1.0  0.60976  0.03092  0.47495  1.0000
  C   C710      1.0  0.56279  0.31580  0.34179  1.0000
  H   H699      1.0  0.67027  0.34438  0.45462  1.0000
  H   H700      1.0  0.64497  0.05258  0.44834  1.0000
  C   C711      1.0  0.93017  0.50291  0.47072  1.0000
  Fe  Fe124     1.0  0.61478  0.30261  0.47808  1.0000
  H   H701      1.0  0.61949  0.47150  0.27191  1.0000
  C   C712      1.0  0.55542  0.30941  0.35932  1.0000
  H   H702      1.0  0.64705  0.33270  0.48284  1.0000
  H   H703      1.0  0.53107  0.30674  0.37780  1.0000
  C   C713      1.0  0.88772  0.44608  0.42343  1.0000
  S   S251      1.0  0.96589  0.38206  0.50376  1.0000
  C   C714      1.0  0.63884  0.05758  0.43608  1.0000
  S   S252      1.0  0.91642  0.40726  0.50485  1.0000
  H   H704      1.0  0.50881  0.06652  0.48770  1.0000
  H   H705      1.0  0.98716  0.41157  0.48554  1.0000
  H   H706      1.0  0.66717  0.47173  0.27979  1.0000
  H   H707      1.0  0.81540  0.37728  0.48720  1.0000
  S   S253      1.0  0.60184  0.01424  0.44731  1.0000
  H   H708      1.0  0.99330  0.36513  0.47079  1.0000
  C   C715      1.0  0.65426  0.47052  0.27493  1.0000
  H   H709      1.0  0.89758  0.43375  0.42636  1.0000
  C   C716      1.0  0.64608  0.33890  0.49543  1.0000
  C   C717      1.0  0.64228  0.49642  0.29145  1.0000
  C   C718      1.0  0.62158  0.07004  0.40569  1.0000
  H   H710      1.0  0.73908  0.50070  0.38975  1.0000
  C   C719      1.0  0.88637  0.47239  0.39973  1.0000
  C   C720      1.0  0.89532  0.46914  0.36817  1.0000
  C   C721      1.0  0.55135  0.32487  0.32940  1.0000
  H   H711      1.0  0.61439  0.07508  0.39410  1.0000
  H   H712      1.0  0.54527  0.02237  0.30094  1.0000
  H   H713      1.0  0.88462  0.49456  0.37775  1.0000
  C   C722      1.0  0.54153  0.09788  0.49637  1.0000
  C   C723      1.0  0.84081  0.42702  0.50388  1.0000
  S   S254      1.0  0.52718  0.09493  0.38732  1.0000
  C   C724      1.0  0.54170  0.01452  0.31394  1.0000
  H   H714      1.0  0.55848  0.08963  0.47252  1.0000
  H   H715      1.0  0.56414  0.30229  0.36907  1.0000
  C   C725      1.0  0.51124  0.14627  0.39265  1.0000
  H   H716      1.0  0.70608  0.46880  0.41094  1.0000
  H   H717      1.0  0.54080  0.08160  0.30368  1.0000
  N   N57       1.0  0.63914  0.48308  0.28238  1.0000
  H   H718      1.0  0.50690  0.13334  0.39205  1.0000
  H   H719      1.0  0.71008  0.42122  0.45035  1.0000
  C   C726      1.0  0.51197  0.32501  0.29121  1.0000
  N   N58       1.0  0.52549  0.32083  0.35190  1.0000
  S   S255      1.0  0.63792  0.28724  0.49164  1.0000
  H   H720      1.0  0.63528  0.35073  0.49505  1.0000
  C   C727      1.0  0.84284  0.38050  0.49004  1.0000
  H   H721      1.0  0.54446  0.12379  0.31759  1.0000
  H   H722      1.0  0.80435  0.49670  0.38934  1.0000
  H   H723      1.0  0.55686  0.32974  0.31564  1.0000
  H   H724      1.0  0.54566  0.16421  0.40447  1.0000
  S   S256      1.0  0.90857  0.45928  0.49670  1.0000
  H   H725      1.0  0.53727  0.06955  0.46686  1.0000
  H   H726      1.0  0.90603  0.44205  0.36284  1.0000
  C   C728      1.0  0.50576  0.32315  0.35679  1.0000
  H   H727      1.0  0.55037  0.10714  0.49867  1.0000
  H   H728      1.0  0.53553  0.13445  0.40425  1.0000
  H   H729      1.0  0.56503  0.27708  0.49042  1.0000
  C   C729      1.0  0.53266  0.00829  0.42262  1.0000
  C   C730      1.0  0.93711  0.49520  0.50188  1.0000
  H   H730      1.0  0.52890  0.01916  0.35830  1.0000
  H   H731      1.0  0.52377  0.33404  0.32494  1.0000
  H   H732      1.0  0.59115  0.25264  0.48896  1.0000
  C   C731      1.0  0.51186  0.08370  0.30600  1.0000
  H   H733      1.0  0.72963  0.41801  0.39433  1.0000
  C   C732      1.0  0.81210  0.44471  0.49863  1.0000
  H   H734      1.0  0.63414  0.03127  0.43197  1.0000
  H   H735      1.0  0.51198  0.06948  0.30498  1.0000
  C   C733      1.0  0.53413  0.07686  0.47850  1.0000
  N   N59       1.0  0.51157  0.00800  0.40176  1.0000
  H   H736      1.0  0.61502  0.20395  0.50110  1.0000
  H   H737      1.0  0.92442  0.49031  0.47229  1.0000
  Fe  Fe125     1.0  0.75491  0.41189  0.49786  1.0000
  S   S257      1.0  0.59165  0.31773  0.49461  1.0000
  H   H738      1.0  0.71391  0.31624  0.48292  1.0000
  H   H739      1.0  0.84282  0.37189  0.50295  1.0000
  H   H740      1.0  0.50916  0.34899  0.27123  1.0000
  N   N60       1.0  0.51406  0.08435  0.50506  1.0000
  C   C734      1.0  0.93801  0.40600  0.56394  1.0000
  C   C735      1.0  0.91286  0.41949  0.58460  1.0000
  Fe  Fe126     1.0  0.93628  0.48138  0.57556  1.0000
  S   S258      1.0  0.94034  0.45248  0.57020  1.0000
  C   C736      1.0  0.53470  0.38590  0.64549  1.0000
  H   H741      1.0  0.66977  0.31268  0.50955  1.0000
  S   S259      1.0  0.51642  0.15631  0.58147  1.0000
  C   C737      1.0  0.52738  0.32926  0.65795  1.0000
  S   S260      1.0  0.50763  0.41916  0.72493  1.0000
  H   H742      1.0  0.57239  0.22976  0.54308  1.0000
  C   C738      1.0  0.53588  0.47405  0.73198  1.0000
  H   H743      1.0  0.55899  0.35967  0.65909  1.0000
  H   H744      1.0  0.59150  0.10876  0.52023  1.0000
  H   H745      1.0  0.52841  0.31055  0.63860  1.0000
  H   H746      1.0  0.56963  0.42077  0.66701  1.0000
  H   H747      1.0  0.59005  0.39385  0.67869  1.0000
  C   C739      1.0  0.71668  0.47017  0.58197  1.0000
  H   H748      1.0  0.99320  0.36332  0.52398  1.0000
  S   S261      1.0  0.91172  0.49991  0.56777  1.0000
  H   H749      1.0  0.94606  0.49865  0.51092  1.0000
  C   C740      1.0  0.55550  0.12481  0.55864  1.0000
  Fe  Fe127     1.0  0.53311  0.27837  0.57978  1.0000
  S   S262      1.0  0.56276  0.27272  0.56894  1.0000
  H   H750      1.0  0.52867  0.48563  0.72440  1.0000
  Fe  Fe128     1.0  0.52453  0.41647  0.69821  1.0000
  S   S263      1.0  0.53808  0.44070  0.68466  1.0000
  S   S264      1.0  0.52682  0.35274  0.68279  1.0000
  S   S265      1.0  0.75699  0.41492  0.52689  1.0000
  C   C741      1.0  0.67058  0.50254  0.74720  1.0000
  C   C742      1.0  0.51737  0.34389  0.66619  1.0000
  S   S266      1.0  0.74411  0.49499  0.54718  1.0000
  H   H751      1.0  0.54361  0.41683  0.65236  1.0000
  S   S267      1.0  0.81161  0.49517  0.59313  1.0000
  H   H752      1.0  0.90269  0.41315  0.59489  1.0000
  C   C743      1.0  0.56080  0.46073  0.74846  1.0000
  S   S268      1.0  0.76042  0.48877  0.59727  1.0000
  H   H753      1.0  0.94721  0.41324  0.56889  1.0000
  C   C744      1.0  0.86463  0.49871  0.59495  1.0000
  C   C745      1.0  0.57592  0.37496  0.66944  1.0000
  Fe  Fe129     1.0  0.60831  0.48369  0.72403  1.0000
  N   N61       1.0  0.55408  0.26688  0.51725  1.0000
  S   S269      1.0  0.60315  0.45521  0.72251  1.0000
  S   S270      1.0  0.51584  0.30528  0.57556  1.0000
  S   S271      1.0  0.51435  0.26314  0.56960  1.0000
  S   S272      1.0  0.63545  0.48912  0.72937  1.0000
  H   H754      1.0  0.54956  0.09721  0.56436  1.0000
  C   C746      1.0  0.80330  0.43028  0.50790  1.0000
  C   C747      1.0  0.57898  0.39219  0.67168  1.0000
  H   H755      1.0  0.54228  0.29421  0.51021  1.0000
  H   H756      1.0  0.53304  0.18875  0.57778  1.0000
  H   H757      1.0  0.71659  0.50178  0.70937  1.0000
  H   H758      1.0  0.54917  0.16017  0.55683  1.0000
  H   H759      1.0  0.66839  0.49115  0.68226  1.0000
  N   N62       1.0  0.55526  0.44405  0.75002  1.0000
  C   C748      1.0  0.75412  0.43726  0.53224  1.0000
  C   C749      1.0  0.74701  0.45186  0.52040  1.0000
  C   C750      1.0  0.74433  0.46947  0.52510  1.0000
  C   C751      1.0  0.74906  0.47273  0.54148  1.0000
  C   C752      1.0  0.75670  0.45820  0.55311  1.0000
  C   C753      1.0  0.75905  0.44049  0.54857  1.0000
  C   C754      1.0  0.80337  0.39947  0.52381  1.0000
  H   H760      1.0  0.76058  0.46056  0.56568  1.0000
  H   H761      1.0  0.76467  0.42927  0.55774  1.0000
  C   C755      1.0  0.55646  0.44472  0.69477  1.0000
  C   C756      1.0  0.56598  0.43070  0.70544  1.0000
  C   C757      1.0  0.58070  0.43401  0.71326  1.0000
  C   C758      1.0  0.58568  0.45147  0.71097  1.0000
  C   C759      1.0  0.57620  0.46552  0.70028  1.0000
  C   C760      1.0  0.56178  0.46208  0.69200  1.0000
  H   H762      1.0  0.56212  0.41726  0.70760  1.0000
  H   H763      1.0  0.58806  0.42306  0.72140  1.0000
  H   H764      1.0  0.58000  0.47901  0.69838  1.0000
  H   H765      1.0  0.55455  0.47296  0.68366  1.0000
  C   C761      1.0  0.57076  0.10085  0.54186  1.0000
  H   H766      1.0  0.70617  0.49636  0.55591  1.0000
  H   H767      1.0  0.74320  0.44955  0.50776  1.0000
  C   C762      1.0  0.51361  0.20857  0.59061  1.0000
  H   H768      1.0  0.87751  0.49151  0.59001  1.0000
  C   C763      1.0  0.83144  0.50250  0.59803  1.0000
  C   C764      1.0  0.56797  0.31232  0.52583  1.0000
  C   C765      1.0  0.56147  0.30253  0.54239  1.0000
  C   C766      1.0  0.57074  0.28570  0.54856  1.0000
  C   C767      1.0  0.58650  0.27873  0.53808  1.0000
  C   C768      1.0  0.59263  0.28821  0.52126  1.0000
  H   H769      1.0  0.56085  0.32542  0.52123  1.0000
  H   H770      1.0  0.54940  0.30811  0.55043  1.0000
  H   H771      1.0  0.59374  0.26571  0.54274  1.0000
  H   H772      1.0  0.55608  0.48907  0.73753  1.0000
  H   H773      1.0  0.92380  0.42211  0.59183  1.0000
  H   H774      1.0  0.83933  0.40059  0.51883  1.0000
  C   C769      1.0  0.67602  0.50079  0.67331  1.0000
  C   C770      1.0  0.52536  0.09586  0.50795  1.0000
  C   C771      1.0  0.62113  0.31147  0.53437  1.0000
  C   C772      1.0  0.51169  0.15125  0.52259  1.0000
  C   C773      1.0  0.65610  0.31257  0.51667  1.0000
  H   H775      1.0  0.53248  0.16411  0.52996  1.0000
  H   H776      1.0  0.58452  0.36304  0.67477  1.0000
  C   C774      1.0  0.56344  0.15568  0.55136  1.0000
  H   H777      1.0  0.53542  0.01324  0.52247  1.0000
  N   N63       1.0  0.55021  0.38808  0.65420  1.0000
  C   C775      1.0  0.94479  0.39511  0.55036  1.0000
  C   C776      1.0  0.90822  0.39943  0.56368  1.0000
  H   H778      1.0  0.99322  0.48309  0.60138  1.0000
  H   H779      1.0  0.66362  0.28862  0.53517  1.0000
  C   C777      1.0  0.93085  0.45276  0.55035  1.0000
  C   C778      1.0  0.91359  0.46216  0.54849  1.0000
  S   S273      1.0  0.95577  0.49950  0.55982  1.0000
  N   N64       1.0  0.91996  0.40784  0.57058  1.0000
  C   C779      1.0  0.55589  0.25356  0.53170  1.0000
  C   C780      1.0  0.94072  0.44421  0.53607  1.0000
  H   H780      1.0  0.90541  0.46769  0.55987  1.0000
  C   C781      1.0  0.52053  0.32179  0.64474  1.0000
  S   S274      1.0  0.72167  0.49817  0.63603  1.0000
  H   H781      1.0  0.95407  0.43689  0.53744  1.0000
  C   C782      1.0  0.56143  0.37314  0.66055  1.0000
  H   H782      1.0  0.53375  0.28392  0.53213  1.0000
  C   C783      1.0  0.84841  0.49338  0.59177  1.0000
  H   H783      1.0  0.53544  0.42892  0.74469  1.0000
  H   H784      1.0  0.84901  0.48212  0.58431  1.0000
  S   S275      1.0  0.51024  0.06651  0.58116  1.0000
  H   H785      1.0  0.56358  0.41550  0.75460  1.0000
  Fe  Fe130     1.0  0.51739  0.37729  0.69823  1.0000
  C   C784      1.0  0.70115  0.49950  0.56949  1.0000
  H   H786      1.0  0.51627  0.02835  0.59361  1.0000
  C   C785      1.0  0.69164  0.49465  0.66177  1.0000
  S   S276      1.0  0.52193  0.27157  0.60924  1.0000
  H   H787      1.0  0.81276  0.38698  0.52734  1.0000
  H   H788      1.0  0.50925  0.28352  0.66840  1.0000
  C   C786      1.0  0.55125  0.47597  0.73936  1.0000
  H   H789      1.0  0.90526  0.38171  0.54468  1.0000
  H   H790      1.0  0.56659  0.16497  0.53864  1.0000
  H   H791      1.0  0.73844  0.48063  0.51601  1.0000
  C   C787      1.0  0.58344  0.23958  0.51584  1.0000
  N   N65       1.0  0.56573  0.13684  0.54784  1.0000
  Fe  Fe131     1.0  0.52146  0.39155  0.73393  1.0000
  H   H792      1.0  0.53214  0.39716  0.63440  1.0000
  N   N66       1.0  0.81303  0.41455  0.51478  1.0000
  N   N67       1.0  0.64231  0.32532  0.51121  1.0000
  H   H793      1.0  0.52240  0.38556  0.65567  1.0000
  C   C788      1.0  0.91458  0.38829  0.55025  1.0000
  C   C789      1.0  0.90673  0.46424  0.53196  1.0000
  H   H794      1.0  0.92310  0.49614  0.50920  1.0000
  C   C790      1.0  0.55288  0.40500  0.65671  1.0000
  H   H795      1.0  0.54054  0.32362  0.66186  1.0000
  H   H796      1.0  0.61386  0.33444  0.51498  1.0000
  C   C791      1.0  0.51946  0.19153  0.58471  1.0000
  H   H797      1.0  0.69585  0.48025  0.66199  1.0000
  H   H798      1.0  0.51834  0.45539  0.72802  1.0000
  H   H799      1.0  0.73082  0.47147  0.58357  1.0000
  H   H800      1.0  0.89384  0.40138  0.56850  1.0000
  H   H801      1.0  0.94135  0.43933  0.50858  1.0000
  N   N68       1.0  0.70514  0.48736  0.58431  1.0000
  H   H802      1.0  0.89356  0.47191  0.53044  1.0000
  H   H803      1.0  0.90648  0.43279  0.57829  1.0000
  C   C792      1.0  0.53008  0.45707  0.73402  1.0000
  H   H804      1.0  0.63215  0.28770  0.55105  1.0000
  H   H805      1.0  0.57269  0.08683  0.53945  1.0000
  C   C793      1.0  0.55782  0.10666  0.55580  1.0000
  H   H806      1.0  0.52715  0.27730  0.51235  1.0000
  C   C794      1.0  0.52847  0.15764  0.51967  1.0000
  H   H807      1.0  0.95904  0.39390  0.54480  1.0000
  H   H808      1.0  0.53698  0.37301  0.63955  1.0000
  C   C795      1.0  0.57067  0.23985  0.53131  1.0000
  H   H809      1.0  0.78862  0.43165  0.50945  1.0000
  C   C796      1.0  0.91680  0.45616  0.51753  1.0000
  C   C797      1.0  0.93300  0.38605  0.54368  1.0000
  C   C798      1.0  0.69937  0.49162  0.60141  1.0000
  H   H810      1.0  0.54538  0.12927  0.56949  1.0000
  S   S277      1.0  0.93569  0.49148  0.60220  1.0000
  C   C799      1.0  0.56749  0.40732  0.66517  1.0000
  C   C800      1.0  0.70321  0.50341  0.70443  1.0000
  H   H811      1.0  0.58704  0.14064  0.52603  1.0000
  H   H812      1.0  0.79436  0.39622  0.51470  1.0000
  H   H813      1.0  0.71678  0.46638  0.56828  1.0000
  C   C801      1.0  0.58134  0.11313  0.53110  1.0000
  H   H814      1.0  0.69052  0.48328  0.73454  1.0000
  C   C802      1.0  0.63508  0.29839  0.54001  1.0000
  H   H815      1.0  0.60445  0.28237  0.51311  1.0000
  H   H816      1.0  0.54629  0.25387  0.54393  1.0000
  S   S278      1.0  0.53947  0.38946  0.70743  1.0000
  H   H817      1.0  0.59519  0.22925  0.51540  1.0000
  H   H818      1.0  0.52268  0.21874  0.58821  1.0000
  H   H819      1.0  0.71193  0.45898  0.59212  1.0000
  H   H820      1.0  0.60732  0.31104  0.54100  1.0000
  C   C803      1.0  0.65271  0.29891  0.53113  1.0000
  C   C804      1.0  0.57876  0.13114  0.53445  1.0000
  C   C805      1.0  0.53854  0.28122  0.51797  1.0000
  C   C806      1.0  0.83153  0.41296  0.51324  1.0000
  H   H821      1.0  0.79480  0.40327  0.53636  1.0000
  C   C807      1.0  0.62496  0.32478  0.51971  1.0000
  H   H822      1.0  0.57240  0.15708  0.56129  1.0000
  S   S279      1.0  0.51077  0.11707  0.55765  1.0000
  C   C808      1.0  0.00438  0.49021  0.59477  1.0000
  C   C809      1.0  0.93357  0.44570  0.51971  1.0000
  C   C810      1.0  0.54459  0.00647  0.53195  1.0000
  H   H823      1.0  0.52177  0.10375  0.51914  1.0000
  S   S280      1.0  0.59299  0.49708  0.74729  1.0000
  C   C811      1.0  0.58351  0.30514  0.51517  1.0000
  H   H824      1.0  0.93805  0.37761  0.53311  1.0000
  H   H825      1.0  0.70306  0.48226  0.61316  1.0000
  C   C812      1.0  0.99874  0.37483  0.51583  1.0000
  C   C813      1.0  0.50797  0.17801  0.58795  1.0000
  H   H826      1.0  0.57314  0.46220  0.75356  1.0000
  H   H827      1.0  0.51850  0.25230  0.66034  1.0000
  C   C814      1.0  0.53989  0.44214  0.74332  1.0000
  H   H828      1.0  0.56850  0.00698  0.51217  1.0000
  C   C815      1.0  0.68402  0.49719  0.73337  1.0000
  H   H829      1.0  0.70101  0.49034  0.70061  1.0000
  C   C816      1.0  0.50655  0.14240  0.50964  1.0000
  C   C817      1.0  0.50582  0.26001  0.65688  1.0000
  C   C818      1.0  0.50563  0.03055  0.58505  1.0000
  N   N69       1.0  0.63069  0.47418  0.96076  1.0000
  C   C819      1.0  0.63737  0.49039  0.95827  1.0000
  H   H830      1.0  0.51729  0.35171  0.78078  1.0000
  Fe  Fe132     1.0  0.54948  0.40453  0.87693  1.0000
  S   S281      1.0  0.57714  0.38966  0.87950  1.0000
  S   S282      1.0  0.52436  0.39088  0.88322  1.0000
  C   C820      1.0  0.52605  0.39569  0.77941  1.0000
  H   H831      1.0  0.61994  0.47938  0.93553  1.0000
  Fe  Fe133     1.0  0.59356  0.47383  0.90891  1.0000
  S   S283      1.0  0.60877  0.44600  0.91471  1.0000
  S   S284      1.0  0.57745  0.48517  0.93309  1.0000
  H   H832      1.0  0.55745  0.41759  0.93200  1.0000
  S   S285      1.0  0.52734  0.50045  0.92348  1.0000
  C   C821      1.0  0.63552  0.46946  0.99203  1.0000
  H   H833      1.0  0.57160  0.46241  0.85716  1.0000
  S   S286      1.0  0.53934  0.42592  0.89493  1.0000
  H   H834      1.0  0.56139  0.42716  0.77414  1.0000
  Fe  Fe134     1.0  0.52905  0.44179  0.87018  1.0000
  C   C822      1.0  0.53713  0.39686  0.79247  1.0000
  S   S287      1.0  0.54190  0.42179  0.85147  1.0000
  H   H835      1.0  0.53204  0.39263  0.93462  1.0000
  H   H836      1.0  0.59120  0.48238  0.99718  1.0000
  C   C823      1.0  0.50593  0.46837  0.84109  1.0000
  H   H837      1.0  0.64567  0.49110  0.00123  1.0000
  C   C824      1.0  0.58857  0.40490  0.88715  1.0000
  C   C825      1.0  0.58493  0.42340  0.88103  1.0000
  C   C826      1.0  0.59210  0.43598  0.88872  1.0000
  C   C827      1.0  0.60257  0.43018  0.90283  1.0000
  C   C828      1.0  0.60692  0.41162  0.90842  1.0000
  C   C829      1.0  0.59998  0.39895  0.90051  1.0000
  H   H838      1.0  0.57636  0.42800  0.87050  1.0000
  H   H839      1.0  0.58939  0.45015  0.88383  1.0000
  H   H840      1.0  0.61513  0.40704  0.91926  1.0000
  H   H841      1.0  0.60278  0.38464  0.90527  1.0000
  C   C830      1.0  0.56566  0.42821  0.75931  1.0000
  H   H842      1.0  0.52264  0.46091  0.98768  1.0000
  H   H843      1.0  0.53819  0.40071  0.82007  1.0000
  C   C831      1.0  0.53113  0.45467  0.97675  1.0000
  C   C832      1.0  0.52950  0.40049  0.80998  1.0000
  C   C833      1.0  0.51067  0.40260  0.81469  1.0000
  H   H844      1.0  0.56503  0.43870  0.92123  1.0000
  Fe  Fe135     1.0  0.51579  0.40998  0.85886  1.0000
  H   H845      1.0  0.58045  0.42918  0.75631  1.0000
  H   H846      1.0  0.54645  0.38469  0.96290  1.0000
  Fe  Fe136     1.0  0.51360  0.41373  0.89954  1.0000
  C   C834      1.0  0.53696  0.35163  0.79875  1.0000
  H   H847      1.0  0.53961  0.45937  0.93087  1.0000
  C   C835      1.0  0.57797  0.47083  0.84514  1.0000
  C   C836      1.0  0.53388  0.39384  0.96278  1.0000
  H   H848      1.0  0.57765  0.42453  0.93749  1.0000
  C   C837      1.0  0.62475  0.46785  0.94550  1.0000
  H   H849      1.0  0.56281  0.41852  0.96964  1.0000
  H   H850      1.0  0.53627  0.37283  0.84506  1.0000
  H   H851      1.0  0.58999  0.46270  0.83851  1.0000
  H   H852      1.0  0.62472  0.45074  0.97927  1.0000
  H   H853      1.0  0.58282  0.48215  0.85000  1.0000
  S   S288      1.0  0.52986  0.47161  0.86372  1.0000
  S   S289      1.0  0.57164  0.48296  0.89095  1.0000
  C   C838      1.0  0.55759  0.49530  0.83010  1.0000
  C   C839      1.0  0.56368  0.42936  0.93418  1.0000
  C   C840      1.0  0.59463  0.49570  0.99148  1.0000
  N   N70       1.0  0.52494  0.35814  0.82879  1.0000
  C   C841      1.0  0.52578  0.39838  0.94672  1.0000
  H   H854      1.0  0.55171  0.39425  0.78924  1.0000
  H   H855      1.0  0.63340  0.48642  0.81654  1.0000
  N   N71       1.0  0.55268  0.43836  0.94882  1.0000
  C   C842      1.0  0.54075  0.45359  0.94484  1.0000
  C   C843      1.0  0.55388  0.43099  0.96645  1.0000
  C   C844      1.0  0.52986  0.46200  0.95874  1.0000
  C   C845      1.0  0.54324  0.43910  0.98066  1.0000
  C   C846      1.0  0.52567  0.40079  0.97873  1.0000
  H   H856      1.0  0.63606  0.45917  0.93847  1.0000
  H   H857      1.0  0.52746  0.49368  0.80133  1.0000
  C   C847      1.0  0.62998  0.46360  0.97729  1.0000
  C   C848      1.0  0.54439  0.50148  0.81857  1.0000
  N   N72       1.0  0.56470  0.47740  0.83248  1.0000
  H   H858      1.0  0.55317  0.35369  0.81923  1.0000
  C   C849      1.0  0.55875  0.46524  0.82386  1.0000
  H   H859      1.0  0.54406  0.43306  0.99461  1.0000
  C   C850      1.0  0.53820  0.48916  0.80975  1.0000
  Fe  Fe137     1.0  0.55722  0.49683  0.91420  1.0000
  H   H860      1.0  0.54022  0.46112  0.80612  1.0000
  C   C851      1.0  0.61235  0.50164  0.83306  1.0000
  H   H861      1.0  0.53534  0.34916  0.85383  1.0000
  C   C852      1.0  0.53950  0.35424  0.81612  1.0000
  S   S290      1.0  0.53620  0.38804  0.75874  1.0000
  S   S291      1.0  0.53576  0.39396  0.99896  1.0000
  H   H862      1.0  0.56397  0.45098  0.82627  1.0000
  S   S292      1.0  0.60871  0.49774  0.89918  1.0000
  C   C853      1.0  0.54539  0.47090  0.81240  1.0000
  H   H863      1.0  0.52047  0.47410  0.95554  1.0000
  H   H864      1.0  0.58884  0.49359  0.96483  1.0000
  C   C854      1.0  0.64308  0.49663  0.97271  1.0000
  H   H865      1.0  0.61322  0.45990  0.95009  1.0000
  H   H866      1.0  0.54848  0.34936  0.78843  1.0000
  C   C855      1.0  0.62167  0.49670  0.81647  1.0000
  C   C856      1.0  0.51941  0.35292  0.79445  1.0000
  H   H867      1.0  0.63772  0.49891  0.94523  1.0000
  H   H868      1.0  0.61692  0.49514  0.84571  1.0000
  H   H869      1.0  0.51184  0.36033  0.99222  1.0000
  H   H870      1.0  0.51183  0.48159  0.90125  1.0000
  S   S293      1.0  0.62906  0.49919  0.77927  1.0000
  C   C857      1.0  0.64206  0.48610  0.98969  1.0000
  C   C858      1.0  0.59336  0.50202  0.97306  1.0000
  H   H871      1.0  0.53653  0.49826  0.99218  1.0000
  C   C859      1.0  0.51263  0.48005  0.85033  1.0000
  C   C860      1.0  0.52809  0.36148  0.84663  1.0000
  C   C861      1.0  0.50723  0.39894  0.78376  1.0000
  H   H872      1.0  0.51194  0.45438  0.84149  1.0000
  C   C862      1.0  0.50945  0.41261  0.97830  1.0000
  C   C863      1.0  0.50919  0.40965  0.94658  1.0000
  H   H873      1.0  0.51520  0.36551  0.85527  1.0000
  H   H874      1.0  0.66655  0.49290  0.75888  1.0000
  C   C864      1.0  0.50766  0.35927  0.82474  1.0000
  H   H875      1.0  0.52799  0.65100  0.14209  1.0000
  C   C865      1.0  0.55219  0.54796  0.01455  1.0000
  Fe  Fe138     1.0  0.51774  0.62901  0.06199  1.0000
  S   S294      1.0  0.54587  0.63556  0.05284  1.0000
  Fe  Fe139     1.0  0.50738  0.64872  0.21009  1.0000
  H   H876      1.0  0.58351  0.63335  0.05563  1.0000
  S   S295      1.0  0.58137  0.53555  0.04949  1.0000
  C   C866      1.0  0.51770  0.65970  0.01878  1.0000
  S   S296      1.0  0.58163  0.52983  0.09386  1.0000
  C   C867      1.0  0.63229  0.50648  0.12527  1.0000
  C   C868      1.0  0.61178  0.54628  0.15305  1.0000
  Fe  Fe140     1.0  0.59821  0.54203  0.06914  1.0000
  S   S297      1.0  0.60598  0.56931  0.06996  1.0000
  S   S298      1.0  0.61921  0.51750  0.06695  1.0000
  H   H877      1.0  0.53214  0.54341  0.03796  1.0000
  C   C869      1.0  0.54799  0.68652  0.21016  1.0000
  C   C870      1.0  0.51400  0.57553  0.11923  1.0000
  H   H878      1.0  0.63161  0.57039  0.10692  1.0000
  H   H879      1.0  0.54331  0.64320  0.01318  1.0000
  H   H880      1.0  0.60912  0.54946  0.10796  1.0000
  H   H881      1.0  0.55712  0.58017  0.10188  1.0000
  Fe  Fe141     1.0  0.61869  0.54318  0.22209  1.0000
  C   C871      1.0  0.56164  0.57671  0.25329  1.0000
  H   H882      1.0  0.51324  0.57784  0.24459  1.0000
  S   S299      1.0  0.64857  0.53718  0.21297  1.0000
  Fe  Fe142     1.0  0.51481  0.62563  0.24550  1.0000
  S   S300      1.0  0.52336  0.65232  0.23206  1.0000
  H   H883      1.0  0.62984  0.57551  0.16973  1.0000
  H   H884      1.0  0.56184  0.68006  0.21071  1.0000
  H   H885      1.0  0.59660  0.53354  0.13764  1.0000
  C   C872      1.0  0.63046  0.56083  0.16904  1.0000
  H   H886      1.0  0.60669  0.53891  0.16589  1.0000
  C   C873      1.0  0.63137  0.56646  0.13607  1.0000
  C   C874      1.0  0.52917  0.52854  0.01661  1.0000
  S   S301      1.0  0.62005  0.52488  0.24862  1.0000
  H   H887      1.0  0.64152  0.57535  0.13553  1.0000
  C   C875      1.0  0.63847  0.50731  0.15598  1.0000
  C   C876      1.0  0.53888  0.68472  0.19589  1.0000
  C   C877      1.0  0.54421  0.58208  0.11044  1.0000
  C   C878      1.0  0.59329  0.60503  0.06200  1.0000
  C   C879      1.0  0.58448  0.57938  0.22688  1.0000
  C   C880      1.0  0.51431  0.64775  0.14592  1.0000
  C   C881      1.0  0.60599  0.54322  0.13714  1.0000
  C   C882      1.0  0.55178  0.59311  0.24663  1.0000
  C   C883      1.0  0.55814  0.60247  0.22993  1.0000
  C   C884      1.0  0.57453  0.59570  0.22017  1.0000
  C   C885      1.0  0.52100  0.70403  0.22322  1.0000
  H   H888      1.0  0.63549  0.51005  0.11079  1.0000
  S   S302      1.0  0.51091  0.61130  0.08800  1.0000
  H   H889      1.0  0.57956  0.60317  0.20742  1.0000
  S   S303      1.0  0.60525  0.57165  0.21448  1.0000
  C   C886      1.0  0.61313  0.55199  0.12047  1.0000
  C   C887      1.0  0.62588  0.56371  0.11990  1.0000
  C   C888      1.0  0.52484  0.59768  0.13331  1.0000
  H   H890      1.0  0.52342  0.55030  0.09835  1.0000
  Fe  Fe143     1.0  0.60079  0.50989  0.04904  1.0000
  C   C889      1.0  0.53726  0.54043  0.02432  1.0000
  H   H891      1.0  0.55236  0.60243  0.12358  1.0000
  H   H892      1.0  0.60701  0.60738  0.06250  1.0000
  C   C890      1.0  0.64243  0.51194  0.13715  1.0000
  C   C891      1.0  0.56223  0.61683  0.05758  1.0000
  H   H893      1.0  0.62195  0.55518  0.18137  1.0000
  C   C892      1.0  0.51091  0.58811  0.13157  1.0000
  C   C893      1.0  0.58897  0.58735  0.06503  1.0000
  C   C894      1.0  0.57119  0.58436  0.06433  1.0000
  C   C895      1.0  0.55775  0.59914  0.06079  1.0000
  H   H894      1.0  0.56782  0.57070  0.06658  1.0000
  H   H895      1.0  0.54405  0.59685  0.06023  1.0000
  Fe  Fe144     1.0  0.64047  0.51531  0.20001  1.0000
  N   N73       1.0  0.53053  0.57261  0.10895  1.0000
  Fe  Fe145     1.0  0.64957  0.51709  0.23840  1.0000
  H   H896      1.0  0.55061  0.61510  0.22468  1.0000
  H   H897      1.0  0.54583  0.69753  0.23526  1.0000
  C   C896      1.0  0.57790  0.56977  0.24337  1.0000
  C   C897      1.0  0.58002  0.61971  0.05809  1.0000
  S   S304      1.0  0.53728  0.51946  0.07852  1.0000
  H   H898      1.0  0.55868  0.55708  0.02044  1.0000
  Fe  Fe146     1.0  0.56704  0.52056  0.07415  1.0000
  H   H899      1.0  0.51790  0.52233  0.02450  1.0000
  S   S305      1.0  0.61068  0.52243  0.20772  1.0000
  H   H900      1.0  0.64460  0.55409  0.16965  1.0000
  H   H901      1.0  0.54553  0.67684  0.18528  1.0000
  H   H902      1.0  0.52252  0.60768  0.14261  1.0000
  N   N74       1.0  0.62420  0.55791  0.15237  1.0000
  S   S306      1.0  0.51843  0.65334  0.18020  1.0000
  C   C898      1.0  0.54160  0.59470  0.12267  1.0000
  H   H903      1.0  0.51104  0.64397  0.11876  1.0000
  H   H904      1.0  0.54696  0.55264  0.09432  1.0000
  C   C899      1.0  0.52081  0.69252  0.19572  1.0000
  H   H905      1.0  0.51834  0.65820  0.03322  1.0000
  H   H906      1.0  0.58552  0.55722  0.24865  1.0000
  H   H907      1.0  0.53116  0.56823  0.08176  1.0000
  Fe  Fe147     1.0  0.60131  0.50482  0.09077  1.0000
  S   S307      1.0  0.65128  0.51476  0.17039  1.0000
  H   H908      1.0  0.51410  0.71154  0.23400  1.0000
  H   H909      1.0  0.51376  0.69077  0.18472  1.0000
  C   C900      1.0  0.53319  0.56038  0.09522  1.0000
  C   C901      1.0  0.53903  0.69629  0.22391  1.0000
  H   H910      1.0  0.65337  0.51981  0.13174  1.0000
  N   N75       1.0  0.51200  0.70171  0.20948  1.0000
  H   H911      1.0  0.55963  0.50581  0.04785  1.0000
  C   C902      1.0  0.50623  0.64770  0.16402  1.0000
  C   C903      1.0  0.53299  0.50598  0.06319  1.0000
  C   C904      1.0  0.53179  0.65131  0.00746  1.0000
  H   H912      1.0  0.70863  0.62516  0.42174  1.0000
  Fe  Fe148     1.0  0.53283  0.91704  0.38946  1.0000
  S   S308      1.0  0.55223  0.90378  0.40883  1.0000
  S   S309      1.0  0.53598  0.91179  0.36063  1.0000
  Fe  Fe149     1.0  0.57132  0.96032  0.47094  1.0000
  S   S310      1.0  0.59082  0.96549  0.44584  1.0000
  S   S311      1.0  0.54329  0.95739  0.46673  1.0000
  H   H913      1.0  0.55677  0.56943  0.26621  1.0000
  S   S312      1.0  0.62160  0.96350  0.47189  1.0000
  H   H914      1.0  0.53288  0.74614  0.28378  1.0000
  Fe  Fe150     1.0  0.60031  0.98515  0.46084  1.0000
  H   H915      1.0  0.64917  0.92551  0.47408  1.0000
  Fe  Fe151     1.0  0.60938  0.94323  0.45990  1.0000
  S   S313      1.0  0.62529  0.91906  0.44703  1.0000
  S   S314      1.0  0.57927  0.98130  0.48505  1.0000
  S   S315      1.0  0.58923  0.93728  0.48434  1.0000
  Fe  Fe152     1.0  0.92402  0.62512  0.48109  1.0000
  S   S316      1.0  0.92019  0.65360  0.46666  1.0000
  C   C905      1.0  0.82389  0.52057  0.33493  1.0000
  Fe  Fe153     1.0  0.92731  0.60822  0.44712  1.0000
  S   S317      1.0  0.92418  0.63509  0.42973  1.0000
  S   S318      1.0  0.92990  0.58102  0.43779  1.0000
  Fe  Fe154     1.0  0.94321  0.64296  0.44659  1.0000
  S   S319      1.0  0.96608  0.65902  0.43342  1.0000
  Fe  Fe155     1.0  0.90142  0.64297  0.45132  1.0000
  S   S320      1.0  0.87481  0.65570  0.44086  1.0000
  S   S321      1.0  0.94810  0.61531  0.46211  1.0000
  S   S322      1.0  0.90349  0.61545  0.46755  1.0000
  Fe  Fe156     1.0  0.91628  0.55353  0.35479  1.0000
  S   S323      1.0  0.92036  0.54151  0.32879  1.0000
  S   S324      1.0  0.91470  0.58288  0.35747  1.0000
  H   H916      1.0  0.74489  0.54149  0.27227  1.0000
  C   C906      1.0  0.51611  0.69233  0.28229  1.0000
  C   C907      1.0  0.78097  0.51028  0.40458  1.0000
  H   H917      1.0  0.92562  0.59016  0.48774  1.0000
  S   S325      1.0  0.93995  0.53631  0.36612  1.0000
  S   S326      1.0  0.89585  0.53573  0.36914  1.0000
  H   H918      1.0  0.56597  0.83211  0.43892  1.0000
  S   S327      1.0  0.53420  0.74871  0.39951  1.0000
  C   C908      1.0  0.73522  0.67821  0.39862  1.0000
  Fe  Fe157     1.0  0.73903  0.54530  0.36339  1.0000
  S   S328      1.0  0.74653  0.55939  0.33540  1.0000
  S   S329      1.0  0.72798  0.55785  0.38891  1.0000
  H   H919      1.0  0.87207  0.58284  0.41289  1.0000
  H   H920      1.0  0.89155  0.59741  0.43845  1.0000
  Fe  Fe158     1.0  0.77245  0.53994  0.33533  1.0000
  S   S330      1.0  0.79923  0.55151  0.32826  1.0000
  S   S331      1.0  0.53165  0.60171  0.25949  1.0000
  C   C909      1.0  0.70293  0.53624  0.29134  1.0000
  Fe  Fe159     1.0  0.76948  0.64474  0.46708  1.0000
  S   S332      1.0  0.75708  0.65966  0.44244  1.0000
  S   S333      1.0  0.79466  0.64641  0.47988  1.0000
  Fe  Fe160     1.0  0.74089  0.61931  0.47685  1.0000
  S   S334      1.0  0.72648  0.63170  0.45304  1.0000
  H   H921      1.0  0.55544  0.74287  0.30567  1.0000
  Fe  Fe161     1.0  0.75402  0.63173  0.43711  1.0000
  S   S335      1.0  0.76163  0.62309  0.40916  1.0000
  Fe  Fe162     1.0  0.72993  0.65887  0.46011  1.0000
  S   S336      1.0  0.70291  0.67787  0.45827  1.0000
  S   S337      1.0  0.76820  0.61717  0.46021  1.0000
  S   S338      1.0  0.74253  0.64610  0.48531  1.0000
  Fe  Fe163     1.0  0.61397  0.81065  0.46389  1.0000
  S   S339      1.0  0.63136  0.80103  0.43932  1.0000
  S   S340      1.0  0.60560  0.83887  0.47249  1.0000
  Fe  Fe164     1.0  0.60044  0.77368  0.47582  1.0000
  S   S341      1.0  0.61633  0.76134  0.45193  1.0000
  H   H922      1.0  0.64478  0.87761  0.48136  1.0000
  Fe  Fe165     1.0  0.63912  0.77483  0.45750  1.0000
  S   S342      1.0  0.66842  0.76106  0.45872  1.0000
  Fe  Fe166     1.0  0.60730  0.78806  0.43581  1.0000
  S   S343      1.0  0.59656  0.79321  0.40870  1.0000
  S   S344      1.0  0.62359  0.78568  0.48254  1.0000
  S   S345      1.0  0.58956  0.79908  0.45921  1.0000
  C   C910      1.0  0.69423  0.70139  0.45693  1.0000
  C   C911      1.0  0.67602  0.70683  0.45410  1.0000
  C   C912      1.0  0.66802  0.72504  0.45417  1.0000
  C   C913      1.0  0.67813  0.73812  0.45714  1.0000
  C   C914      1.0  0.69642  0.73271  0.45974  1.0000
  C   C915      1.0  0.70444  0.71450  0.45961  1.0000
  H   H923      1.0  0.66794  0.69685  0.45200  1.0000
  H   H924      1.0  0.65397  0.72892  0.45210  1.0000
  H   H925      1.0  0.70441  0.74268  0.46203  1.0000
  H   H926      1.0  0.71844  0.71060  0.46187  1.0000
  C   C916      1.0  0.62797  0.50894  0.29782  1.0000
  C   C917      1.0  0.55773  0.75693  0.29968  1.0000
  C   C918      1.0  0.96486  0.57803  0.34841  1.0000
  H   H927      1.0  0.55604  0.85482  0.44189  1.0000
  C   C919      1.0  0.53250  0.99370  0.34728  1.0000
  H   H928      1.0  0.50914  0.98216  0.39495  1.0000
  C   C920      1.0  0.73757  0.57593  0.39431  1.0000
  C   C921      1.0  0.73272  0.58124  0.41162  1.0000
  C   C922      1.0  0.74033  0.59539  0.41649  1.0000
  C   C923      1.0  0.75266  0.60452  0.40396  1.0000
  C   C924      1.0  0.75758  0.59916  0.38666  1.0000
  C   C925      1.0  0.75015  0.58484  0.38187  1.0000
  H   H929      1.0  0.72308  0.57433  0.42135  1.0000
  H   H930      1.0  0.73656  0.59929  0.42990  1.0000
  H   H931      1.0  0.76716  0.60613  0.37691  1.0000
  H   H932      1.0  0.75404  0.58081  0.36852  1.0000
  C   C926      1.0  0.55197  0.76063  0.40178  1.0000
  C   C927      1.0  0.56082  0.77071  0.38678  1.0000
  C   C928      1.0  0.57478  0.78028  0.38898  1.0000
  C   C929      1.0  0.57985  0.78003  0.40619  1.0000
  C   C930      1.0  0.57112  0.76981  0.42116  1.0000
  C   C931      1.0  0.55728  0.76009  0.41893  1.0000
  H   H933      1.0  0.55704  0.77097  0.37347  1.0000
  H   H934      1.0  0.58179  0.78775  0.37726  1.0000
  H   H935      1.0  0.57497  0.76943  0.43448  1.0000
  H   H936      1.0  0.55060  0.75220  0.43057  1.0000
  C   C932      1.0  0.75083  0.56552  0.28096  1.0000
  H   H937      1.0  0.74332  0.52555  0.41159  1.0000
  C   C933      1.0  0.87621  0.59913  0.38697  1.0000
  S   S346      1.0  0.97123  0.51604  0.32629  1.0000
  C   C934      1.0  0.87831  0.60475  0.43499  1.0000
  H   H938      1.0  0.86741  0.59644  0.44108  1.0000
  H   H939      1.0  0.88750  0.63460  0.41366  1.0000
  H   H940      1.0  0.88253  0.61793  0.36304  1.0000
  H   H941      1.0  0.99414  0.64363  0.48688  1.0000
  C   C935      1.0  0.94425  0.53540  0.46668  1.0000
  H   H942      1.0  0.81274  0.54482  0.28899  1.0000
  C   C936      1.0  0.82071  0.53951  0.33238  1.0000
  C   C937      1.0  0.83520  0.54930  0.33216  1.0000
  C   C938      1.0  0.85275  0.54031  0.33424  1.0000
  C   C939      1.0  0.88117  0.61552  0.37773  1.0000
  H   H943      1.0  0.79857  0.55490  0.38183  1.0000
  H   H944      1.0  0.83289  0.56394  0.33015  1.0000
  H   H945      1.0  0.86381  0.54804  0.33379  1.0000
  C   C940      1.0  0.98791  0.65876  0.43962  1.0000
  H   H946      1.0  0.56326  0.76268  0.31005  1.0000
  H   H947      1.0  0.95445  0.58093  0.35960  1.0000
  Fe  Fe167     1.0  0.52125  0.75600  0.37370  1.0000
  C   C941      1.0  0.78086  0.56372  0.28907  1.0000
  C   C942      1.0  0.99129  0.52942  0.34815  1.0000
  H   H948      1.0  0.98010  0.55067  0.29844  1.0000
  H   H949      1.0  0.54543  0.79127  0.30478  1.0000
  C   C943      1.0  0.52297  0.70020  0.29524  1.0000
  H   H950      1.0  0.98733  0.68726  0.43035  1.0000
  C   C944      1.0  0.92543  0.58223  0.41547  1.0000
  C   C945      1.0  0.92821  0.59744  0.40263  1.0000
  C   C946      1.0  0.92468  0.59789  0.38479  1.0000
  C   C947      1.0  0.91851  0.58304  0.37981  1.0000
  C   C948      1.0  0.91561  0.56798  0.39274  1.0000
  C   C949      1.0  0.91902  0.56758  0.41049  1.0000
  H   H951      1.0  0.93355  0.60864  0.40627  1.0000
  H   H952      1.0  0.92701  0.60957  0.37483  1.0000
  H   H953      1.0  0.91060  0.55657  0.38919  1.0000
  H   H954      1.0  0.91652  0.55589  0.42035  1.0000
  C   C950      1.0  0.85284  0.65161  0.45166  1.0000
  C   C951      1.0  0.84958  0.64510  0.47012  1.0000
  C   C952      1.0  0.83174  0.64335  0.47847  1.0000
  C   C953      1.0  0.81701  0.64759  0.46840  1.0000
  C   C954      1.0  0.82036  0.65342  0.44979  1.0000
  C   C955      1.0  0.83815  0.65562  0.44153  1.0000
  H   H955      1.0  0.86071  0.64209  0.47811  1.0000
  H   H956      1.0  0.82933  0.63897  0.49288  1.0000
  H   H957      1.0  0.80918  0.65686  0.44189  1.0000
  H   H958      1.0  0.84050  0.66073  0.42726  1.0000
  C   C956      1.0  0.52753  0.91286  0.49177  1.0000
  N   N76       1.0  0.71653  0.64833  0.40434  1.0000
  C   C957      1.0  0.88512  0.62840  0.38742  1.0000
  H   H959      1.0  0.87540  0.61741  0.44132  1.0000
  Fe  Fe168     1.0  0.51361  0.74719  0.33703  1.0000
  C   C958      1.0  0.93710  0.53082  0.45230  1.0000
  H   H960      1.0  0.87386  0.58876  0.37946  1.0000
  H   H961      1.0  0.62108  0.74346  0.49226  1.0000
  C   C959      1.0  0.61892  0.89690  0.45267  1.0000
  C   C960      1.0  0.60288  0.89364  0.46393  1.0000
  C   C961      1.0  0.59892  0.87581  0.46942  1.0000
  C   C962      1.0  0.61078  0.86097  0.46358  1.0000
  C   C963      1.0  0.62658  0.86418  0.45183  1.0000
  C   C964      1.0  0.63061  0.88209  0.44640  1.0000
  H   H962      1.0  0.59357  0.90480  0.46860  1.0000
  H   H963      1.0  0.58663  0.87350  0.47846  1.0000
  H   H964      1.0  0.63587  0.85288  0.44727  1.0000
  H   H965      1.0  0.64303  0.88443  0.43761  1.0000
  C   C965      1.0  0.54929  0.91758  0.42596  1.0000
  C   C966      1.0  0.53238  0.92752  0.43066  1.0000
  C   C967      1.0  0.53036  0.93941  0.44361  1.0000
  C   C968      1.0  0.54536  0.94168  0.45147  1.0000
  C   C969      1.0  0.56209  0.93135  0.44712  1.0000
  C   C970      1.0  0.56405  0.91928  0.43445  1.0000
  H   H966      1.0  0.52087  0.92619  0.42423  1.0000
  H   H967      1.0  0.51733  0.94719  0.44714  1.0000
  H   H968      1.0  0.57369  0.93280  0.45326  1.0000
  H   H969      1.0  0.57722  0.91193  0.43073  1.0000
  S   S347      1.0  0.71515  0.54741  0.30384  1.0000
  S   S348      1.0  0.52662  0.94717  0.38306  1.0000
  H   H970      1.0  0.88931  0.64107  0.38040  1.0000
  C   C971      1.0  0.85610  0.52140  0.33614  1.0000
  N   N77       1.0  0.58401  0.85204  0.43094  1.0000
  C   C972      1.0  0.58499  0.87023  0.42822  1.0000
  C   C973      1.0  0.59778  0.84030  0.42349  1.0000
  C   C974      1.0  0.59985  0.87716  0.41744  1.0000
  C   C975      1.0  0.61292  0.84674  0.41275  1.0000
  C   C976      1.0  0.61391  0.86531  0.40972  1.0000
  C   C977      1.0  0.56860  0.84501  0.44276  1.0000
  H   H971      1.0  0.57431  0.87949  0.43452  1.0000
  H   H972      1.0  0.59719  0.82584  0.42590  1.0000
  H   H973      1.0  0.60061  0.89161  0.41541  1.0000
  H   H974      1.0  0.62388  0.83731  0.40707  1.0000
  H   H975      1.0  0.62568  0.87052  0.40166  1.0000
  H   H976      1.0  0.77015  0.55534  0.40316  1.0000
  H   H977      1.0  0.00154  0.56685  0.30869  1.0000
  H   H978      1.0  0.57157  0.84243  0.45702  1.0000
  S   S349      1.0  0.72491  0.52502  0.35381  1.0000
  C   C978      1.0  0.78483  0.59946  0.50440  1.0000
  C   C979      1.0  0.84155  0.51159  0.33659  1.0000
  C   C980      1.0  0.53098  0.84601  0.38492  1.0000
  H   H979      1.0  0.53838  0.80365  0.39415  1.0000
  C   C981      1.0  0.77238  0.53855  0.27859  1.0000
  C   C982      1.0  0.97683  0.62295  0.49529  1.0000
  H   H980      1.0  0.94992  0.52716  0.49401  1.0000
  C   C983      1.0  0.55551  0.86281  0.38594  1.0000
  S   S350      1.0  0.76543  0.52727  0.36377  1.0000
  C   C984      1.0  0.69601  0.50935  0.28096  1.0000
  H   H981      1.0  0.67141  0.54697  0.26151  1.0000
  H   H982      1.0  0.96546  0.57179  0.29337  1.0000
  C   C985      1.0  0.51345  0.71567  0.30237  1.0000
  C   C986      1.0  0.80266  0.53598  0.28754  1.0000
  N   N78       1.0  0.87890  0.60868  0.41527  1.0000
  C   C987      1.0  0.87531  0.59584  0.40585  1.0000
  C   C988      1.0  0.88403  0.62467  0.40629  1.0000
  H   H983      1.0  0.95701  0.55273  0.30815  1.0000
  C   C989      1.0  0.53706  0.86238  0.38600  1.0000
  C   C990      1.0  0.53743  0.98517  0.33159  1.0000
  H   H984      1.0  0.68835  0.56131  0.28000  1.0000
  C   C991      1.0  0.52648  0.84804  0.33801  1.0000
  H   H985      1.0  0.54591  0.98938  0.30287  1.0000
  Fe  Fe169     1.0  0.73434  0.53769  0.32547  1.0000
  H   H986      1.0  0.73485  0.63900  0.38218  1.0000
  H   H987      1.0  0.92497  0.55735  0.49425  1.0000
  C   C992      1.0  0.52944  0.76003  0.28656  1.0000
  N   N79       1.0  0.63905  0.90311  0.49135  1.0000
  H   H988      1.0  0.56794  0.75642  0.28744  1.0000
  H   H989      1.0  0.69159  0.69956  0.49672  1.0000
  H   H990      1.0  0.76030  0.58692  0.29126  1.0000
  H   H991      1.0  0.56040  0.87550  0.38649  1.0000
  Fe  Fe170     1.0  0.90150  0.52205  0.34426  1.0000
  H   H992      1.0  0.78421  0.61062  0.49344  1.0000
  H   H993      1.0  0.52905  0.98565  0.36017  1.0000
  H   H994      1.0  0.52211  0.81561  0.37975  1.0000
  C   C993      1.0  0.80367  0.52574  0.38454  1.0000
  H   H995      1.0  0.71248  0.62247  0.39827  1.0000
  H   H996      1.0  0.52752  0.87470  0.38658  1.0000
  H   H997      1.0  0.73727  0.57269  0.28001  1.0000
  N   N80       1.0  0.66297  0.70747  0.49838  1.0000
  H   H998      1.0  0.80116  0.52630  0.30025  1.0000
  H   H999      1.0  0.67636  0.72925  0.50226  1.0000
  Fe  Fe171     1.0  0.51518  0.78660  0.34309  1.0000
  H   H1000     1.0  0.69236  0.63639  0.40687  1.0000
  C   C994      1.0  0.63198  0.71529  0.49269  1.0000
  H   H1001     1.0  0.77762  0.58068  0.48871  1.0000
  Fe  Fe172     1.0  0.52682  0.94198  0.35472  1.0000
  C   C995      1.0  0.53730  0.98959  0.42329  1.0000
  N   N81       1.0  0.78501  0.54649  0.28468  1.0000
  H   H1002     1.0  0.53571  0.69412  0.29988  1.0000
  H   H1003     1.0  0.66583  0.90991  0.48576  1.0000
  H   H1004     1.0  0.99312  0.63021  0.44906  1.0000
  C   C996      1.0  0.74016  0.66462  0.38754  1.0000
  C   C997      1.0  0.73049  0.64978  0.39049  1.0000
  C   C998      1.0  0.67869  0.69373  0.50120  1.0000
  C   C999      1.0  0.99087  0.52319  0.33169  1.0000
  C   C1000     1.0  0.76372  0.57347  0.28729  1.0000
  C   C1001     1.0  0.56760  0.84689  0.38504  1.0000
  S   S351      1.0  0.87831  0.50959  0.33706  1.0000
  S   S352      1.0  0.52671  0.81288  0.33226  1.0000
  H   H1005     1.0  0.59918  0.51749  0.29957  1.0000
  C   C1002     1.0  0.96881  0.56039  0.30406  1.0000
  C   C1003     1.0  0.99587  0.57701  0.33425  1.0000
  H   H1006     1.0  0.58198  0.84703  0.38500  1.0000
  C   C1004     1.0  0.99108  0.57021  0.31968  1.0000
  C   C1005     1.0  0.64879  0.73831  0.49780  1.0000
  C   C1006     1.0  0.71151  0.66168  0.41518  1.0000
  N   N82       1.0  0.54300  0.83057  0.38352  1.0000
  C   C1007     1.0  0.64727  0.70242  0.49494  1.0000
  H   H1007     1.0  0.54437  0.80778  0.36978  1.0000
  H   H1008     1.0  0.94659  0.56936  0.33336  1.0000
  H   H1009     1.0  0.71684  0.68728  0.42120  1.0000
  H   H1010     1.0  0.52358  0.68037  0.27713  1.0000
  H   H1011     1.0  0.65713  0.90421  0.46653  1.0000
  H   H1012     1.0  0.57057  0.81849  0.38313  1.0000
  H   H1013     1.0  0.81592  0.52547  0.37484  1.0000
  N   N83       1.0  0.54073  0.76760  0.29491  1.0000
  C   C1008     1.0  0.69052  0.54675  0.28038  1.0000
  C   C1009     1.0  0.77782  0.54243  0.40050  1.0000
  H   H1014     1.0  0.52642  0.87575  0.34234  1.0000
  C   C1010     1.0  0.78140  0.58249  0.50157  1.0000
  C   C1011     1.0  0.98267  0.58079  0.34876  1.0000
  Fe  Fe173     1.0  0.92001  0.51726  0.37801  1.0000
  H   H1015     1.0  0.94937  0.54830  0.46536  1.0000
  C   C1012     1.0  0.70700  0.63234  0.40792  1.0000
  H   H1016     1.0  0.97942  0.52978  0.35819  1.0000
  H   H1017     1.0  0.67919  0.68255  0.49303  1.0000
  H   H1018     1.0  0.53245  0.96569  0.41356  1.0000
  H   H1019     1.0  0.70057  0.66049  0.42630  1.0000
  C   C1013     1.0  0.51893  0.86428  0.34487  1.0000
  H   H1020     1.0  0.75174  0.66524  0.37709  1.0000
  C   C1014     1.0  0.68085  0.53865  0.26985  1.0000
  N   N84       1.0  0.97362  0.56724  0.31959  1.0000
  H   H1021     1.0  0.74279  0.68964  0.39671  1.0000
  C   C1015     1.0  0.75395  0.52695  0.41982  1.0000
  S   S353      1.0  0.73252  0.59392  0.49420  1.0000
  S   S354      1.0  0.53508  0.76112  0.34527  1.0000
  H   H1022     1.0  0.80823  0.52839  0.27600  1.0000
  C   C1016     1.0  0.72071  0.67685  0.41242  1.0000
  Fe  Fe174     1.0  0.94301  0.52290  0.34134  1.0000
  C   C1017     1.0  0.52024  0.79539  0.29382  1.0000
  H   H1023     1.0  0.74999  0.53994  0.42552  1.0000
  Fe  Fe175     1.0  0.59983  0.95880  0.49528  1.0000
  S   S355      1.0  0.76119  0.51952  0.32282  1.0000
  C   C1018     1.0  0.52887  0.98020  0.41317  1.0000
  C   C1019     1.0  0.75514  0.54796  0.27656  1.0000
  C   C1020     1.0  0.70555  0.51743  0.29161  1.0000
  H   H1024     1.0  0.79067  0.56989  0.29435  1.0000
  C   C1021     1.0  0.99862  0.64293  0.44645  1.0000
  C   C1022     1.0  0.63278  0.73333  0.49416  1.0000
  S   S356      1.0  0.58196  0.75724  0.49608  1.0000
  N   N85       1.0  0.77155  0.52656  0.40838  1.0000
  C   C1023     1.0  0.56107  0.83078  0.38388  1.0000
  C   C1024     1.0  0.96051  0.57136  0.33355  1.0000
  H   H1025     1.0  0.77542  0.52469  0.27569  1.0000
  C   C1025     1.0  0.53662  0.81359  0.38180  1.0000
  C   C1026     1.0  0.68362  0.51987  0.26997  1.0000
  H   H1026     1.0  0.71507  0.50913  0.29987  1.0000
  C   C1027     1.0  0.99535  0.67503  0.43584  1.0000
  C   C1028     1.0  0.50836  0.78758  0.28586  1.0000
  C   C1029     1.0  0.51688  0.83304  0.34115  1.0000
  S   S357      1.0  0.53860  0.96143  0.33157  1.0000
  Fe  Fe176     1.0  0.50633  0.90884  0.36665  1.0000
  H   H1027     1.0  0.64661  0.68844  0.49363  1.0000
  C   C1030     1.0  0.63649  0.88559  0.49111  1.0000
  H   H1028     1.0  0.53981  0.84713  0.33020  1.0000
  C   C1031     1.0  0.54204  0.99576  0.31503  1.0000
  H   H1029     1.0  0.81289  0.51285  0.33507  1.0000
  H   H1030     1.0  0.52878  0.92490  0.48204  1.0000
  S   S358      1.0  0.52336  0.72544  0.31805  1.0000
  C   C1032     1.0  0.65360  0.91102  0.47890  1.0000
  C   C1033     1.0  0.94441  0.52342  0.48286  1.0000
  C   C1034     1.0  0.53647  0.78515  0.29827  1.0000
  H   H1031     1.0  0.51664  0.84586  0.38485  1.0000
  H   H1032     1.0  0.98625  0.58573  0.36032  1.0000
  C   C1035     1.0  0.51583  0.98963  0.40255  1.0000
  H   H1033     1.0  0.93698  0.53999  0.43969  1.0000
  C   C1036     1.0  0.52017  0.89862  0.48705  1.0000
  H   H1034     1.0  0.51600  0.89968  0.47372  1.0000
  C   C1037     1.0  0.79395  0.54227  0.38849  1.0000
  H   H1035     1.0  0.54733  0.98236  0.43169  1.0000
  H   H1036     1.0  0.64977  0.75241  0.49834  1.0000
  H   H1037     1.0  0.53791  0.93947  0.50353  1.0000
  C   C1038     1.0  0.66383  0.72513  0.49994  1.0000
  C   C1039     1.0  0.92998  0.51451  0.45428  1.0000
  H   H1038     1.0  0.63065  0.51982  0.30448  1.0000
  H   H1039     1.0  0.96454  0.63188  0.49236  1.0000
  C   C1040     1.0  0.51298  0.76978  0.28216  1.0000
  H   H1040     1.0  0.62045  0.86411  0.50241  1.0000
  H   H1041     1.0  0.92424  0.51099  0.44315  1.0000
  C   C1041     1.0  0.92596  0.56482  0.50507  1.0000
  H   H1042     1.0  0.51672  0.80916  0.29699  1.0000
  H   H1043     1.0  0.51111  0.87267  0.49658  1.0000
  H   H1044     1.0  0.75421  0.51577  0.43135  1.0000
  Fe  Fe177     1.0  0.75228  0.50829  0.35179  1.0000
  C   C1042     1.0  0.99360  0.62949  0.49231  1.0000
  C   C1043     1.0  0.51743  0.88351  0.49989  1.0000
  C   C1044     1.0  0.79719  0.50961  0.39268  1.0000
  H   H1045     1.0  0.61962  0.71140  0.48962  1.0000
  S   S359      1.0  0.91845  0.50552  0.40727  1.0000
  C   C1045     1.0  0.61036  0.50764  0.29504  1.0000
  N   N86       1.0  0.93748  0.50739  0.48469  1.0000
  C   C1046     1.0  0.97594  0.60478  0.50212  1.0000
  C   C1047     1.0  0.92601  0.58355  0.50142  1.0000
  H   H1046     1.0  0.96302  0.59956  0.50448  1.0000
  S   S360      1.0  0.67209  0.50871  0.25681  1.0000
  C   C1048     1.0  0.62276  0.87785  0.50306  1.0000
  C   C1049     1.0  0.62861  0.91312  0.50370  1.0000
  H   H1047     1.0  0.63082  0.92693  0.50408  1.0000
  C   C1050     1.0  0.84715  0.52200  0.61139  1.0000
  S   S361      1.0  0.54255  0.94011  0.58447  1.0000
  N   N87       1.0  0.86975  0.54568  0.56670  1.0000
  C   C1051     1.0  0.87945  0.52675  0.54328  1.0000
  H   H1048     1.0  0.53789  0.54916  0.69066  1.0000
  C   C1052     1.0  0.54234  0.73199  0.58746  1.0000
  H   H1049     1.0  0.55915  0.75107  0.61306  1.0000
  C   C1053     1.0  0.52970  0.89720  0.52138  1.0000
  S   S362      1.0  0.92988  0.53218  0.57951  1.0000
  C   C1054     1.0  0.56940  0.74118  0.55974  1.0000
  Fe  Fe178     1.0  0.75464  0.54052  0.58390  1.0000
  S   S363      1.0  0.75240  0.57065  0.57412  1.0000
  Fe  Fe179     1.0  0.59103  0.52232  0.72710  1.0000
  H   H1050     1.0  0.83542  0.52402  0.56069  1.0000
  S   S364      1.0  0.56252  0.53719  0.72731  1.0000
  S   S365      1.0  0.54104  0.79156  0.56483  1.0000
  S   S366      1.0  0.54154  0.62179  0.72763  1.0000
  C   C1055     1.0  0.55093  0.78373  0.54428  1.0000
  C   C1056     1.0  0.54334  0.77112  0.53705  1.0000
  H   H1051     1.0  0.57883  0.56833  0.69024  1.0000
  C   C1057     1.0  0.70189  0.50690  0.65002  1.0000
  C   C1058     1.0  0.56752  0.78914  0.53583  1.0000
  C   C1059     1.0  0.56949  0.76855  0.51368  1.0000
  H   H1052     1.0  0.57345  0.79891  0.54135  1.0000
  C   C1060     1.0  0.55726  0.56035  0.72981  1.0000
  C   C1061     1.0  0.57068  0.57166  0.72806  1.0000
  C   C1062     1.0  0.56575  0.59047  0.72792  1.0000
  C   C1063     1.0  0.54742  0.59802  0.72960  1.0000
  C   C1064     1.0  0.53409  0.58656  0.73190  1.0000
  C   C1065     1.0  0.53899  0.56784  0.73205  1.0000
  H   H1053     1.0  0.58483  0.56601  0.72632  1.0000
  H   H1054     1.0  0.57616  0.59924  0.72616  1.0000
  H   H1055     1.0  0.51999  0.59211  0.73280  1.0000
  H   H1056     1.0  0.80411  0.62385  0.51544  1.0000
  C   C1066     1.0  0.74521  0.57749  0.55258  1.0000
  C   C1067     1.0  0.74052  0.56489  0.54296  1.0000
  H   H1057     1.0  0.57963  0.74532  0.54871  1.0000
  C   C1068     1.0  0.74528  0.59557  0.54446  1.0000
  H   H1058     1.0  0.74046  0.55092  0.54906  1.0000
  H   H1059     1.0  0.54728  0.77023  0.59996  1.0000
  H   H1060     1.0  0.74883  0.60539  0.55186  1.0000
  H   H1061     1.0  0.53321  0.89666  0.53491  1.0000
  H   H1062     1.0  0.78571  0.56009  0.54379  1.0000
  C   C1069     1.0  0.54878  0.59135  0.68584  1.0000
  C   C1070     1.0  0.57472  0.99399  0.53845  1.0000
  N   N88       1.0  0.55095  0.57292  0.68653  1.0000
  S   S367      1.0  0.97923  0.52096  0.59138  1.0000
  H   H1063     1.0  0.54709  0.75320  0.51671  1.0000
  C   C1071     1.0  0.53147  0.60112  0.68854  1.0000
  H   H1064     1.0  0.57283  0.76131  0.57566  1.0000
  Fe  Fe180     1.0  0.75188  0.50465  0.57162  1.0000
  H   H1065     1.0  0.00274  0.51218  0.62467  1.0000
  H   H1066     1.0  0.65983  0.54627  0.72888  1.0000
  Fe  Fe181     1.0  0.78176  0.50753  0.59413  1.0000
  C   C1072     1.0  0.61183  0.88807  0.51548  1.0000
  H   H1067     1.0  0.85956  0.51121  0.53801  1.0000
  S   S368      1.0  0.65164  0.52805  0.68853  1.0000
  C   C1073     1.0  0.92772  0.58464  0.53297  1.0000
  C   C1074     1.0  0.92811  0.56575  0.53656  1.0000
  N   N89       1.0  0.55197  0.74567  0.58852  1.0000
  C   C1075     1.0  0.73683  0.58818  0.51690  1.0000
  H   H1068     1.0  0.92835  0.59230  0.54379  1.0000
  H   H1069     1.0  0.92915  0.55899  0.55009  1.0000
  H   H1070     1.0  0.70384  0.53510  0.64099  1.0000
  Fe  Fe182     1.0  0.93109  0.51907  0.55469  1.0000
  H   H1071     1.0  0.53508  0.75278  0.61258  1.0000
  C   C1076     1.0  0.74131  0.60088  0.52658  1.0000
  C   C1077     1.0  0.54821  0.75536  0.60435  1.0000
  H   H1072     1.0  0.67751  0.53400  0.59087  1.0000
  H   H1073     1.0  0.53053  0.76689  0.54343  1.0000
  C   C1078     1.0  0.88293  0.53912  0.55390  1.0000
  C   C1079     1.0  0.56057  0.94269  0.56707  1.0000
  C   C1080     1.0  0.57813  0.94126  0.57150  1.0000
  C   C1081     1.0  0.59260  0.94439  0.55789  1.0000
  C   C1082     1.0  0.58954  0.94887  0.53980  1.0000
  C   C1083     1.0  0.57205  0.94995  0.53525  1.0000
  C   C1084     1.0  0.55753  0.94694  0.54894  1.0000
  H   H1074     1.0  0.58050  0.93796  0.58552  1.0000
  H   H1075     1.0  0.60613  0.94354  0.56141  1.0000
  C   C1085     1.0  0.83088  0.51692  0.60784  1.0000
  H   H1076     1.0  0.54399  0.94815  0.54551  1.0000
  C   C1086     1.0  0.85268  0.54092  0.56867  1.0000
  C   C1087     1.0  0.54201  0.98672  0.58085  1.0000
  C   C1088     1.0  0.68912  0.50833  0.60403  1.0000
  C   C1089     1.0  0.51864  0.57317  0.69257  1.0000
  C   C1090     1.0  0.55274  0.76335  0.52194  1.0000
  H   H1077     1.0  0.79139  0.59033  0.54818  1.0000
  C   C1091     1.0  0.54567  0.72292  0.57222  1.0000
  C   C1092     1.0  0.66684  0.53255  0.73047  1.0000
  H   H1078     1.0  0.67656  0.54601  0.66145  1.0000
  C   C1093     1.0  0.78195  0.56817  0.51574  1.0000
  S   S369      1.0  0.88435  0.52054  0.60858  1.0000
  H   H1079     1.0  0.79160  0.62144  0.53798  1.0000
  S   S370      1.0  0.73154  0.52444  0.58609  1.0000
  H   H1080     1.0  0.53328  0.93066  0.52676  1.0000
  C   C1094     1.0  0.73617  0.57027  0.52526  1.0000
  C   C1095     1.0  0.56924  0.56308  0.68316  1.0000
  H   H1081     1.0  0.56048  0.59856  0.68371  1.0000
  H   H1082     1.0  0.56962  0.95353  0.52129  1.0000
  H   H1083     1.0  0.87186  0.57241  0.57082  1.0000
  H   H1084     1.0  0.56962  0.54843  0.68846  1.0000
  N   N90       1.0  0.53214  0.91206  0.50875  1.0000
  H   H1085     1.0  0.50743  0.68767  0.67908  1.0000
  C   C1096     1.0  0.53792  0.00107  0.55004  1.0000
  H   H1086     1.0  0.78001  0.63055  0.51877  1.0000
  H   H1087     1.0  0.68837  0.52615  0.55980  1.0000
  C   C1097     1.0  0.51632  0.59194  0.69191  1.0000
  H   H1088     1.0  0.77854  0.55514  0.51400  1.0000
  H   H1089     1.0  0.99109  0.57923  0.51125  1.0000
  H   H1090     1.0  0.55479  0.92317  0.51386  1.0000
  C   C1098     1.0  0.78911  0.58816  0.53488  1.0000
  H   H1091     1.0  0.53898  0.99868  0.58822  1.0000
  N   N91       1.0  0.68875  0.50927  0.71848  1.0000
  C   C1099     1.0  0.69103  0.51639  0.57161  1.0000
  Fe  Fe183     1.0  0.91193  0.51138  0.59318  1.0000
  C   C1100     1.0  0.84874  0.52846  0.55839  1.0000
  H   H1092     1.0  0.52989  0.61565  0.68861  1.0000
  S   S371      1.0  0.61672  0.53095  0.73256  1.0000
  S   S372      1.0  0.76357  0.52731  0.61077  1.0000
  C   C1101     1.0  0.86230  0.52121  0.54575  1.0000
  C   C1102     1.0  0.69617  0.52546  0.64990  1.0000
  C   C1103     1.0  0.57668  0.78174  0.52044  1.0000
  H   H1093     1.0  0.86518  0.55736  0.59128  1.0000
  Fe  Fe184     1.0  0.74138  0.50977  0.61188  1.0000
  C   C1104     1.0  0.56312  0.00291  0.52617  1.0000
  S   S373      1.0  0.60764  0.95388  0.52323  1.0000
  H   H1094     1.0  0.73267  0.56040  0.51787  1.0000
  H   H1095     1.0  0.52943  0.98049  0.58156  1.0000
  H   H1096     1.0  0.88806  0.55494  0.58099  1.0000
  C   C1105     1.0  0.92709  0.55586  0.52261  1.0000
  C   C1106     1.0  0.87384  0.55835  0.57791  1.0000
  Fe  Fe185     1.0  0.63069  0.51484  0.71007  1.0000
  C   C1107     1.0  0.68047  0.52681  0.71699  1.0000
  H   H1097     1.0  0.53167  0.72831  0.59821  1.0000
  H   H1098     1.0  0.89014  0.52125  0.53349  1.0000
  C   C1108     1.0  0.92655  0.59356  0.51538  1.0000
  N   N92       1.0  0.78832  0.60218  0.52096  1.0000
  H   H1099     1.0  0.81792  0.52393  0.61293  1.0000
  H   H1100     1.0  0.52853  0.55919  0.73332  1.0000
  C   C1109     1.0  0.56549  0.75017  0.57502  1.0000
  H   H1101     1.0  0.99851  0.54325  0.61157  1.0000
  H   H1102     1.0  0.89637  0.54316  0.55211  1.0000
  C   C1110     1.0  0.68066  0.53161  0.66156  1.0000
  H   H1103     1.0  0.67813  0.68802  0.51573  1.0000
  C   C1111     1.0  0.67048  0.51936  0.67340  1.0000
  S   S374      1.0  0.77412  0.52204  0.56743  1.0000
  C   C1112     1.0  0.56757  0.98871  0.55643  1.0000
  H   H1104     1.0  0.60648  0.91390  0.52555  1.0000
  Fe  Fe186     1.0  0.51324  0.78463  0.57684  1.0000
  H   H1105     1.0  0.55160  0.97627  0.58794  1.0000
  Fe  Fe187     1.0  0.51559  0.94474  0.57436  1.0000
  C   C1113     1.0  0.55924  0.72764  0.55824  1.0000
  C   C1114     1.0  0.68499  0.52079  0.58901  1.0000
  N   N93       1.0  0.54935  0.99209  0.56195  1.0000
  H   H1106     1.0  0.74171  0.61474  0.52028  1.0000
  H   H1107     1.0  0.84217  0.54621  0.57872  1.0000
  S   S375      1.0  0.92712  0.53233  0.52655  1.0000
  H   H1108     1.0  0.53755  0.71254  0.57116  1.0000
  H   H1109     1.0  0.50689  0.56595  0.69560  1.0000
  C   C1115     1.0  0.99172  0.59337  0.50589  1.0000
  Fe  Fe188     1.0  0.51166  0.63278  0.72982  1.0000
  H   H1110     1.0  0.84658  0.53300  0.61918  1.0000
  C   C1116     1.0  0.52225  0.88273  0.51718  1.0000
  C   C1117     1.0  0.78602  0.57093  0.53245  1.0000
  H   H1111     1.0  0.57405  0.56454  0.66841  1.0000
  Fe  Fe189     1.0  0.95373  0.51118  0.58569  1.0000
  H   H1112     1.0  0.58959  0.78583  0.51417  1.0000
  S   S376      1.0  0.92622  0.61711  0.51064  1.0000
  C   C1118     1.0  0.53616  0.56380  0.68975  1.0000
  H   H1113     1.0  0.56166  0.72112  0.54609  1.0000
  H   H1114     1.0  0.57667  0.98155  0.56582  1.0000
  S   S377      1.0  0.60442  0.50833  0.70330  1.0000
  S   S378      1.0  0.50876  0.96850  0.55360  1.0000
  H   H1115     1.0  0.60107  0.88227  0.52475  1.0000
  H   H1116     1.0  0.68493  0.51175  0.61763  1.0000
  H   H1117     1.0  0.51925  0.70685  0.65117  1.0000
  C   C1119     1.0  0.79120  0.62033  0.52354  1.0000
  H   H1118     1.0  0.58912  0.99080  0.53400  1.0000
  H   H1119     1.0  0.68387  0.53632  0.70502  1.0000
  C   C1120     1.0  0.86413  0.51307  0.60478  1.0000
  C   C1121     1.0  0.61482  0.90579  0.51591  1.0000
  H   H1120     1.0  0.51996  0.87114  0.52735  1.0000
  H   H1121     1.0  0.70355  0.51331  0.69181  1.0000
  C   C1122     1.0  0.00093  0.50831  0.58706  1.0000
  C   C1123     1.0  0.54004  0.92700  0.51346  1.0000
  C   C1124     1.0  0.66194  0.52033  0.74569  1.0000
  H   H1122     1.0  0.52350  0.00393  0.55446  1.0000
  S   S379      1.0  0.50612  0.92440  0.56050  1.0000
  Fe  Fe190     1.0  0.61951  0.50457  0.75133  1.0000
  H   H1123     1.0  0.51431  0.65251  0.95810  1.0000
  S   S380      1.0  0.52461  0.58157  0.93346  1.0000
  C   C1125     1.0  0.58792  0.56309  0.90961  1.0000
  H   H1124     1.0  0.59216  0.56321  0.92271  1.0000
  H   H1125     1.0  0.52099  0.60183  0.77535  1.0000
  H   H1126     1.0  0.61369  0.54997  0.89837  1.0000
  H   H1127     1.0  0.54181  0.64676  0.98010  1.0000
  H   H1128     1.0  0.57175  0.56057  0.86406  1.0000
  S   S381      1.0  0.56960  0.52228  0.90465  1.0000
  C   C1126     1.0  0.60001  0.55565  0.89593  1.0000
  C   C1127     1.0  0.55054  0.53141  0.99006  1.0000
  H   H1129     1.0  0.53728  0.56420  0.89339  1.0000
  H   H1130     1.0  0.52841  0.67049  0.95450  1.0000
  C   C1128     1.0  0.59421  0.55505  0.87935  1.0000
  H   H1131     1.0  0.55602  0.52771  0.97678  1.0000
  H   H1132     1.0  0.64765  0.50982  0.97091  1.0000
  Fe  Fe191     1.0  0.58585  0.50763  0.88242  1.0000
  H   H1133     1.0  0.60333  0.54886  0.86875  1.0000
  N   N94       1.0  0.56454  0.56916  0.89021  1.0000
  C   C1129     1.0  0.59189  0.52364  0.81651  1.0000
  H   H1134     1.0  0.60910  0.54230  0.97039  1.0000
  H   H1135     1.0  0.59657  0.52507  0.78727  1.0000
  C   C1130     1.0  0.54555  0.57527  0.88770  1.0000
  C   C1131     1.0  0.60574  0.52319  0.99480  1.0000
  C   C1132     1.0  0.52299  0.55871  0.93340  1.0000
  C   C1133     1.0  0.53620  0.54564  0.94062  1.0000
  C   C1134     1.0  0.53662  0.52744  0.93872  1.0000
  C   C1135     1.0  0.52387  0.52227  0.92957  1.0000
  H   H1136     1.0  0.51059  0.50740  0.85609  1.0000
  C   C1136     1.0  0.60116  0.50607  0.00237  1.0000
  H   H1137     1.0  0.54660  0.54969  0.94697  1.0000
  H   H1138     1.0  0.54739  0.51752  0.94357  1.0000
  C   C1137     1.0  0.59892  0.51868  0.96522  1.0000
  S   S382      1.0  0.50887  0.62929  0.90996  1.0000
  C   C1138     1.0  0.51583  0.66571  0.96211  1.0000
  H   H1139     1.0  0.56073  0.57514  0.91738  1.0000
  H   H1140     1.0  0.58049  0.53427  0.81638  1.0000
  H   H1141     1.0  0.61109  0.53119  0.00295  1.0000
  H   H1142     1.0  0.54395  0.57936  0.87316  1.0000
  H   H1143     1.0  0.54010  0.58724  0.89476  1.0000
  H   H1144     1.0  0.52234  0.60354  0.83188  1.0000
  C   C1139     1.0  0.57012  0.56976  0.90653  1.0000
  H   H1145     1.0  0.51703  0.64507  0.81956  1.0000
  S   S383      1.0  0.58574  0.52269  0.85360  1.0000
  C   C1140     1.0  0.52749  0.51137  0.99195  1.0000
  C   C1141     1.0  0.51470  0.60000  0.78937  1.0000
  C   C1142     1.0  0.60097  0.51841  0.79995  1.0000
  C   C1143     1.0  0.60473  0.52940  0.97628  1.0000
  N   N95       1.0  0.53574  0.52428  0.99965  1.0000
  C   C1144     1.0  0.59753  0.51532  0.83315  1.0000
  H   H1146     1.0  0.57068  0.54901  0.98971  1.0000
  H   H1147     1.0  0.53749  0.60656  0.79997  1.0000
  Fe  Fe192     1.0  0.59088  0.50979  0.92236  1.0000
  C   C1145     1.0  0.57628  0.56178  0.87675  1.0000
  C   C1146     1.0  0.52400  0.60259  0.80320  1.0000
  C   C1147     1.0  0.51559  0.60070  0.82110  1.0000
  S   S384      1.0  0.60018  0.52591  0.94152  1.0000
  H   H1148     1.0  0.65126  0.52453  0.75618  1.0000
  C   C1148     1.0  0.53086  0.65342  0.98883  1.0000
  H   H1149     1.0  0.52500  0.51677  0.97785  1.0000
  N   N96       1.0  0.51638  0.66376  0.98170  1.0000
  H   H1150     1.0  0.51421  0.50868  0.99989  1.0000
  H   H1151     1.0  0.53863  0.51562  0.81694  1.0000
  C   C1149     1.0  0.55892  0.54343  0.99731  1.0000
  C   C1150     1.0  0.51011  0.53520  0.92311  1.0000
  C   C1151     1.0  0.50962  0.55347  0.92508  1.0000
  C   C1152     1.0  0.61610  0.50508  0.79982  1.0000
  H   H1152     1.0  0.56176  0.50482  0.83748  1.0000
