data_image0
_chemical_formula_structural       FeS2FeS2FeCFeS3FeHFeS2FeS2FeCFeS3FeSNC5H2C6H5C6H4C3H2C6H5CNCH5CHC4HSH3CH2SH2CHCH3CS2CH5CH3SFeHS2NH2FeC5H2C7H3NFeSHFeSHC6H2CH2C6H3SC2HNH2CH2SCHCH3CNHCH3SC5H2CHCHSHC3HC2HC4H2NH3NCH4CFeS2FeS2FeSFeS3FeS2CFeS2FeS2FeSFeS2CHSC5H2C6H4C6H4C3NHC6H4C6NCH7C2HNHCH3CH2C2H3C2HC2H4NH2CHCHCNCH2FeH5SH2SCH2CHCHCFeS2FeS2FeSFeS3CSHFeHS3C2HCHCFeHSCHCH2C2H2C6H7C3H2CNHC2HCSHSCFeH5CH2C5NHCSCHFeC2HC4H4CHNC2HFeS2FeS2Fe2S2CHSC3H2C2H2C4H2SC5H3NFeS2FeS4HSHC3H2C4H2C2H2C5H3C2NC3H5CFeC2HSHC2HNH3FeH3CHNCH2CHCHC3HC2H3CHCHC3HCH2CSH6CHC2H3FeS2FeS2FeHFeS3C2SHS2HFeSCH2SHCHCHC2H4CFeH2C6H4SH2C3H2C7NCH2NHFeSCHCSCNCH3C2FeCHC2H5CHC2H4CH3C2HCFeS2FeS2FeSFeS3HCSCFeSNHC3HSC3H2C3HC8H4C2SHCH3C2H2CHCFeH2CHNH3CHCH3CH4C2HCNFeSCHC4HSHSH2CHCH2C3HCHC2H2C2HNCH2FeSFeS2FeS3CH2C6H2C3H2C6H4S2FeS2FeSFeS2C6H4C3H2C6H3CH2C2H2CHSNC6H9C3HNC2H2NCH3C2H3C2HCH2C2H4CH2CHFeS2FeS2FeSFeS3NHNCHFeS2H4CHSHFeNCSH2SCHC7H4C2FeHCH2C2SHFeCHC2H2CSC2HCHC2HCHC3HCH2C2HCHC2H3CHCNH4CSCHC2HFeS2FeS2FeCFeS3FeS2FeSHFeSFeS3FeCSH2FeHSC6H5CHC4HC6H4C6H9NCH2CH3CHCNC2HSHC2H4SH2C3H3CSH2CH2SNCHNFeCH3FeS2FeS2C6H4C5NH4FeS2CHFeS2C7H2SC3HC2HC2H2CHCNCHC2HNFeH2CH3C2SH2C2H2C2H3C2HC3HCH2FeHC3HCHNCNH2CH2CHC2H3SH2SCFeS2FeS2FeSFeS3FeSCFeS2FeSFeS3C2FeSHFeSHC6H6C3H3C6H4C6H3NC6H6CH3CH2NC4H7CNC5H2CH3CNHCSCHC4HCH4C2H3SHNH
_chemical_formula_sum              "Fe96 S192 C576 H576 N48"
_cell_length_a       47.7725
_cell_length_b       47.9489
_cell_length_c       45.6248
_cell_angle_alpha    90.1491
_cell_angle_beta     89.0464
_cell_angle_gamma    119.879

_space_group_name_H-M_alt    "P 1"
_space_group_IT_number       1

loop_
  _space_group_symop_operation_xyz
  'x, y, z'

loop_
  _atom_site_type_symbol
  _atom_site_label
  _atom_site_symmetry_multiplicity
  _atom_site_fract_x
  _atom_site_fract_y
  _atom_site_fract_z
  _atom_site_occupancy
  Fe  Fe1       1.0  0.14094  0.32011  0.26527  1.0000
  S   S1        1.0  0.16451  0.37293  0.27576  1.0000
  S   S2        1.0  0.08866  0.28425  0.27913  1.0000
  Fe  Fe2       1.0  0.20590  0.32505  0.24707  1.0000
  S   S3        1.0  0.23341  0.37802  0.25635  1.0000
  S   S4        1.0  0.23539  0.30416  0.22653  1.0000
  Fe  Fe3       1.0  0.20292  0.36661  0.29730  1.0000
  C   C1        1.0  0.30699  0.08139  0.19346  1.0000
  Fe  Fe4       1.0  0.19315  0.38013  0.23360  1.0000
  S   S5        1.0  0.20642  0.42360  0.20427  1.0000
  S   S6        1.0  0.17799  0.31326  0.28959  1.0000
  S   S7        1.0  0.16698  0.32768  0.22161  1.0000
  Fe  Fe5       1.0  0.50057  0.25810  0.04226  1.0000
  H   H1        1.0  0.28302  0.45344  0.33315  1.0000
  Fe  Fe6       1.0  0.31549  0.19854  0.26950  1.0000
  S   S8        1.0  0.36526  0.23612  0.25487  1.0000
  S   S9        1.0  0.27884  0.21191  0.28754  1.0000
  Fe  Fe7       1.0  0.33040  0.14338  0.26182  1.0000
  S   S10       1.0  0.38144  0.17770  0.24626  1.0000
  S   S11       1.0  0.32055  0.09155  0.26369  1.0000
  Fe  Fe8       1.0  0.38266  0.20952  0.28322  1.0000
  C   C2        1.0  0.22572  0.02019  0.26899  1.0000
  Fe  Fe9       1.0  0.35999  0.20119  0.21936  1.0000
  S   S12       1.0  0.36963  0.21576  0.17103  1.0000
  S   S13       1.0  0.33328  0.17409  0.30048  1.0000
  S   S14       1.0  0.30862  0.16481  0.23229  1.0000
  Fe  Fe10      1.0  0.25961  0.48086  0.03849  1.0000
  S   S15       1.0  0.24708  0.43827  0.06902  1.0000
  N   N1        1.0  0.33660  0.10717  0.18662  1.0000
  C   C3        1.0  0.27238  0.37933  0.14822  1.0000
  C   C4        1.0  0.28639  0.02549  0.26442  1.0000
  C   C5        1.0  0.28424  0.05370  0.26558  1.0000
  C   C6        1.0  0.25370  0.05091  0.26758  1.0000
  C   C7        1.0  0.02061  0.29534  0.23554  1.0000
  H   H2        1.0  0.30987  0.02732  0.26286  1.0000
  H   H3        1.0  0.25163  0.07237  0.26845  1.0000
  C   C8        1.0  0.45722  0.23561  0.11238  1.0000
  C   C9        1.0  0.43163  0.23841  0.10125  1.0000
  C   C10       1.0  0.40510  0.23235  0.11957  1.0000
  C   C11       1.0  0.40389  0.22357  0.14916  1.0000
  C   C12       1.0  0.42950  0.22078  0.16030  1.0000
  C   C13       1.0  0.45602  0.22681  0.14197  1.0000
  H   H4        1.0  0.43218  0.24512  0.07853  1.0000
  H   H5        1.0  0.38537  0.23450  0.11075  1.0000
  H   H6        1.0  0.42893  0.21412  0.18303  1.0000
  H   H7        1.0  0.47573  0.22462  0.15080  1.0000
  H   H8        1.0  0.25902  0.36594  0.19369  1.0000
  C   C14       1.0  0.21404  0.42640  0.16583  1.0000
  C   C15       1.0  0.20836  0.39967  0.14906  1.0000
  C   C16       1.0  0.21687  0.40342  0.11899  1.0000
  C   C17       1.0  0.23147  0.43391  0.10540  1.0000
  C   C18       1.0  0.23621  0.46046  0.12196  1.0000
  C   C19       1.0  0.22743  0.45667  0.15198  1.0000
  H   H9        1.0  0.19778  0.37620  0.15934  1.0000
  H   H10       1.0  0.21262  0.38262  0.10633  1.0000
  H   H11       1.0  0.24745  0.48408  0.11187  1.0000
  H   H12       1.0  0.23175  0.47747  0.16471  1.0000
  C   C20       1.0  0.05188  0.28133  0.26779  1.0000
  C   C21       1.0  0.28088  0.10823  0.17201  1.0000
  C   C22       1.0  0.05061  0.29961  0.24457  1.0000
  H   H13       1.0  0.29987  0.41848  0.08340  1.0000
  H   H14       1.0  0.07267  0.31676  0.23331  1.0000
  C   C23       1.0  0.24784  0.27918  0.24428  1.0000
  C   C24       1.0  0.23717  0.26695  0.27262  1.0000
  C   C25       1.0  0.24695  0.24650  0.28552  1.0000
  C   C26       1.0  0.26771  0.23823  0.27041  1.0000
  C   C27       1.0  0.27874  0.25082  0.24225  1.0000
  C   C28       1.0  0.26873  0.27103  0.22925  1.0000
  H   H15       1.0  0.22105  0.27290  0.28444  1.0000
  H   H16       1.0  0.23817  0.23685  0.30727  1.0000
  H   H17       1.0  0.29465  0.24467  0.23030  1.0000
  H   H18       1.0  0.27711  0.28027  0.20732  1.0000
  H   H19       1.0  0.26478  0.35483  0.14168  1.0000
  C   C29       1.0  0.29304  0.43440  0.13609  1.0000
  N   N2        1.0  0.28434  0.40369  0.12787  1.0000
  C   C30       1.0  0.02289  0.25915  0.28214  1.0000
  H   H20       1.0  0.26130  0.38307  0.08790  1.0000
  H   H21       1.0  0.27415  0.42164  0.20872  1.0000
  H   H22       1.0  0.30105  0.45345  0.11980  1.0000
  H   H23       1.0  0.31328  0.15478  0.15281  1.0000
  H   H24       1.0  0.38622  0.13153  0.19839  1.0000
  C   C31       1.0  0.31116  0.13381  0.16398  1.0000
  H   H25       1.0  0.25538  0.06182  0.19351  1.0000
  C   C32       1.0  0.36600  0.10674  0.19455  1.0000
  C   C33       1.0  0.35470  0.26064  0.32940  1.0000
  C   C34       1.0  0.28604  0.39628  0.09691  1.0000
  C   C35       1.0  0.27778  0.41668  0.18620  1.0000
  H   H26       1.0  0.50634  0.34921  0.05327  1.0000
  S   S16       1.0  0.49157  0.24366  0.09054  1.0000
  H   H27       1.0  0.37302  0.09543  0.17682  1.0000
  H   H28       1.0  0.29786  0.38148  0.09436  1.0000
  H   H29       1.0  0.36224  0.09319  0.21539  1.0000
  C   C36       1.0  0.33894  0.13283  0.17146  1.0000
  H   H30       1.0  0.03261  0.21690  0.23404  1.0000
  H   H31       1.0  0.09081  0.33490  0.31566  1.0000
  S   S17       1.0  0.22130  0.49115  0.02249  1.0000
  H   H32       1.0  0.25921  0.10916  0.16712  1.0000
  H   H33       1.0  0.30512  0.06084  0.20518  1.0000
  C   C37       1.0  0.26903  0.38545  0.17769  1.0000
  H   H34       1.0  0.33928  0.25602  0.31070  1.0000
  C   C38       1.0  0.10145  0.35536  0.33127  1.0000
  H   H35       1.0  0.29548  0.46540  0.17159  1.0000
  H   H36       1.0  0.02362  0.24493  0.30017  1.0000
  H   H37       1.0  0.36240  0.15305  0.16554  1.0000
  C   C39       1.0  0.28995  0.44136  0.16535  1.0000
  S   S18       1.0  0.48405  0.28754  0.01738  1.0000
  S   S19       1.0  0.42755  0.23832  0.31073  1.0000
  C   C40       1.0  0.27870  0.08174  0.18675  1.0000
  H   H38       1.0  0.20224  0.01829  0.27100  1.0000
  H   H39       1.0  0.11654  0.37778  0.31845  1.0000
  H   H40       1.0  0.49844  0.30775  0.09000  1.0000
  H   H41       1.0  0.19572  0.42375  0.33555  1.0000
  H   H42       1.0  0.32571  0.46817  0.33603  1.0000
  C   C41       1.0  0.38781  0.28217  0.32621  1.0000
  H   H43       1.0  0.39797  0.29344  0.30514  1.0000
  H   H44       1.0  0.12593  0.31582  0.32855  1.0000
  H   H45       1.0  0.01992  0.30942  0.21736  1.0000
  S   S20       1.0  0.22630  0.38420  0.34173  1.0000
  Fe  Fe11      1.0  0.47933  0.25230  0.47765  1.0000
  H   H46       1.0  0.15723  0.38252  0.41780  1.0000
  S   S21       1.0  0.43635  0.22224  0.44839  1.0000
  S   S22       1.0  0.47894  0.23057  0.52169  1.0000
  N   N3        1.0  0.19524  0.47973  0.61456  1.0000
  H   H47       1.0  0.38226  0.19167  0.35361  1.0000
  H   H48       1.0  0.29667  0.43501  0.35874  1.0000
  Fe  Fe12      1.0  0.24193  0.49920  0.47111  1.0000
  C   C42       1.0  0.45808  0.25427  0.36371  1.0000
  C   C43       1.0  0.46039  0.25161  0.39423  1.0000
  C   C44       1.0  0.43455  0.22723  0.41014  1.0000
  C   C45       1.0  0.40645  0.20560  0.39525  1.0000
  C   C46       1.0  0.40408  0.20834  0.36476  1.0000
  H   H49       1.0  0.48213  0.26846  0.40544  1.0000
  H   H50       1.0  0.38634  0.18661  0.40737  1.0000
  C   C47       1.0  0.15966  0.42747  0.65181  1.0000
  C   C48       1.0  0.22198  0.41104  0.36547  1.0000
  C   C49       1.0  0.23541  0.41623  0.39350  1.0000
  C   C50       1.0  0.23317  0.43781  0.41303  1.0000
  C   C51       1.0  0.21734  0.45434  0.40472  1.0000
  C   C52       1.0  0.20362  0.44893  0.37677  1.0000
  C   C53       1.0  0.20605  0.42747  0.35712  1.0000
  H   H51       1.0  0.24771  0.40353  0.40015  1.0000
  H   H52       1.0  0.24377  0.44172  0.43448  1.0000
  H   H53       1.0  0.19142  0.46175  0.37017  1.0000
  N   N4        1.0  0.51131  0.27181  0.63855  1.0000
  Fe  Fe13      1.0  0.49279  0.27901  0.54009  1.0000
  S   S23       1.0  0.47337  0.28841  0.58273  1.0000
  H   H54       1.0  0.43662  0.16491  0.42805  1.0000
  Fe  Fe14      1.0  0.25345  0.48307  0.53329  1.0000
  S   S24       1.0  0.23102  0.43838  0.56267  1.0000
  H   H55       1.0  0.49530  0.29672  0.66722  1.0000
  C   C54       1.0  0.44507  0.25843  0.60706  1.0000
  C   C55       1.0  0.43325  0.22565  0.60222  1.0000
  C   C56       1.0  0.41293  0.20278  0.62336  1.0000
  C   C57       1.0  0.40431  0.21239  0.64954  1.0000
  C   C58       1.0  0.41574  0.24513  0.65419  1.0000
  C   C59       1.0  0.43586  0.26798  0.63296  1.0000
  H   H56       1.0  0.44006  0.21796  0.58239  1.0000
  H   H57       1.0  0.40405  0.17749  0.61949  1.0000
  C   C60       1.0  0.40789  0.28808  0.35005  1.0000
  H   H58       1.0  0.44463  0.29326  0.63676  1.0000
  H   H59       1.0  0.27182  0.49241  0.35177  1.0000
  C   C61       1.0  0.25571  0.45827  0.64863  1.0000
  C   C62       1.0  0.25523  0.46157  0.61798  1.0000
  C   C63       1.0  0.23392  0.43535  0.60111  1.0000
  C   C64       1.0  0.21341  0.40580  0.61519  1.0000
  C   C65       1.0  0.21358  0.40261  0.64588  1.0000
  C   C66       1.0  0.12998  0.36987  0.37781  1.0000
  H   H60       1.0  0.27141  0.48432  0.60742  1.0000
  H   H61       1.0  0.19683  0.38540  0.60229  1.0000
  H   H62       1.0  0.43377  0.30385  0.34754  1.0000
  S   S25       1.0  0.48992  0.29984  0.49668  1.0000
  C   C67       1.0  0.39475  0.27230  0.37665  1.0000
  C   C68       1.0  0.23472  0.42891  0.66277  1.0000
  H   H63       1.0  0.49766  0.17146  0.49878  1.0000
  N   N5        1.0  0.30539  0.48133  0.37151  1.0000
  H   H64       1.0  0.44301  0.15567  0.48003  1.0000
  H   H65       1.0  0.33904  0.47429  0.39605  1.0000
  C   C69       1.0  0.46389  0.16604  0.46533  1.0000
  H   H66       1.0  0.49805  0.21967  0.38265  1.0000
  H   H67       1.0  0.47812  0.27334  0.35158  1.0000
  S   S26       1.0  0.21488  0.48247  0.42817  1.0000
  C   C70       1.0  0.17271  0.45087  0.60324  1.0000
  H   H68       1.0  0.19699  0.38000  0.65643  1.0000
  C   C71       1.0  0.46046  0.17148  0.43584  1.0000
  H   H69       1.0  0.13706  0.40138  0.61254  1.0000
  H   H70       1.0  0.29913  0.21481  0.38093  1.0000
  H   H71       1.0  0.16959  0.44796  0.57969  1.0000
  C   C72       1.0  0.48340  0.19337  0.38696  1.0000
  N   N6        1.0  0.34199  0.24522  0.35555  1.0000
  H   H72       1.0  0.40910  0.25285  0.67413  1.0000
  C   C73       1.0  0.50446  0.21570  0.61386  1.0000
  H   H73       1.0  0.27225  0.47870  0.66151  1.0000
  H   H74       1.0  0.50135  0.19383  0.60378  1.0000
  H   H75       1.0  0.47035  0.19122  0.64928  1.0000
  S   S27       1.0  0.27608  0.48445  0.48893  1.0000
  C   C74       1.0  0.49448  0.17504  0.47585  1.0000
  C   C75       1.0  0.30734  0.22203  0.35789  1.0000
  C   C76       1.0  0.20081  0.48286  0.64405  1.0000
  C   C77       1.0  0.48728  0.21425  0.63942  1.0000
  C   C78       1.0  0.21555  0.30291  0.66895  1.0000
  H   H76       1.0  0.14641  0.40688  0.66631  1.0000
  H   H77       1.0  0.21967  0.50527  0.65292  1.0000
  C   C79       1.0  0.36159  0.25052  0.37894  1.0000
  H   H78       1.0  0.16142  0.31077  0.36420  1.0000
  C   C80       1.0  0.28834  0.49723  0.36960  1.0000
  H   H79       1.0  0.49138  0.18042  0.37182  1.0000
  S   S28       1.0  0.21691  0.49438  0.51458  1.0000
  H   H80       1.0  0.12239  0.38755  0.38115  1.0000
  C   C81       1.0  0.18310  0.45682  0.66311  1.0000
  C   C82       1.0  0.30268  0.45852  0.34871  1.0000
  C   C83       1.0  0.15192  0.32677  0.36866  1.0000
  H   H81       1.0  0.17691  0.34388  0.40938  1.0000
  C   C84       1.0  0.42988  0.23279  0.34884  1.0000
  C   C85       1.0  0.16062  0.34537  0.39400  1.0000
  H   H82       1.0  0.41036  0.27595  0.39503  1.0000
  C   C86       1.0  0.32559  0.48694  0.39447  1.0000
  C   C87       1.0  0.49115  0.24273  0.65164  1.0000
  C   C88       1.0  0.15439  0.42440  0.62168  1.0000
  C   C89       1.0  0.14956  0.36704  0.39870  1.0000
  H   H83       1.0  0.21760  0.30695  0.64488  1.0000
  H   H84       1.0  0.30167  0.20012  0.34508  1.0000
  N   N7        1.0  0.48691  0.18637  0.41753  1.0000
  H   H85       1.0  0.29314  0.23253  0.34874  1.0000
  H   H86       1.0  0.35183  0.23760  0.39943  1.0000
  H   H87       1.0  0.45796  0.18605  0.38182  1.0000
  N   N8        1.0  0.12122  0.35122  0.35319  1.0000
  C   C90       1.0  0.13211  0.33004  0.34836  1.0000
  H   H88       1.0  0.47698  0.24127  0.67102  1.0000
  H   H89       1.0  0.21006  0.27791  0.67368  1.0000
  H   H90       1.0  0.23285  0.50201  0.58299  1.0000
  H   H91       1.0  0.08105  0.35660  0.34196  1.0000
  C   C91       1.0  0.21494  0.50660  0.59455  1.0000
  Fe  Fe15      1.0  0.13911  0.33653  0.75988  1.0000
  S   S29       1.0  0.17627  0.38829  0.76947  1.0000
  S   S30       1.0  0.08680  0.32633  0.76123  1.0000
  Fe  Fe16      1.0  0.19136  0.31754  0.75239  1.0000
  S   S31       1.0  0.23144  0.36744  0.76124  1.0000
  S   S32       1.0  0.19961  0.27611  0.73944  1.0000
  Fe  Fe17      1.0  0.19966  0.36800  0.79806  1.0000
  S   S33       1.0  0.22454  0.38635  0.84201  1.0000
  Fe  Fe18      1.0  0.20499  0.38389  0.73192  1.0000
  S   S34       1.0  0.23516  0.42679  0.70155  1.0000
  S   S35       1.0  0.16085  0.31645  0.79115  1.0000
  S   S36       1.0  0.16661  0.33384  0.72029  1.0000
  Fe  Fe19      1.0  0.47712  0.25442  0.97953  1.0000
  S   S37       1.0  0.27861  0.48048  0.99268  1.0000
  S   S38       1.0  0.43087  0.23284  0.95325  1.0000
  C   C92       1.0  0.26366  0.04986  0.70380  1.0000
  Fe  Fe20      1.0  0.33278  0.22197  0.76055  1.0000
  S   S39       1.0  0.38426  0.23549  0.74911  1.0000
  S   S40       1.0  0.32356  0.26391  0.76837  1.0000
  Fe  Fe21      1.0  0.31215  0.15051  0.76632  1.0000
  S   S41       1.0  0.36198  0.15921  0.75631  1.0000
  S   S42       1.0  0.26710  0.10138  0.77261  1.0000
  Fe  Fe22      1.0  0.37926  0.20214  0.78596  1.0000
  S   S43       1.0  0.42362  0.21940  0.81447  1.0000
  Fe  Fe23      1.0  0.36321  0.19190  0.72033  1.0000
  S   S44       1.0  0.32916  0.19092  0.79910  1.0000
  S   S45       1.0  0.31200  0.18086  0.72867  1.0000
  C   C93       1.0  0.32207  0.49560  0.92063  1.0000
  H   H92       1.0  0.43516  0.16023  0.85103  1.0000
  S   S46       1.0  0.21297  0.47860  0.93594  1.0000
  C   C94       1.0  0.27394  0.08266  0.70126  1.0000
  C   C95       1.0  0.23659  0.03533  0.77460  1.0000
  C   C96       1.0  0.26647  0.06414  0.77468  1.0000
  C   C97       1.0  0.29488  0.06255  0.77546  1.0000
  C   C98       1.0  0.27164  0.48281  0.84143  1.0000
  H   H93       1.0  0.21448  0.03635  0.77403  1.0000
  H   H94       1.0  0.31800  0.08450  0.77550  1.0000
  C   C99       1.0  0.42493  0.22376  0.85297  1.0000
  C   C100      1.0  0.45512  0.23841  0.86657  1.0000
  C   C101      1.0  0.45737  0.24166  0.89725  1.0000
  C   C102      1.0  0.42936  0.23016  0.91460  1.0000
  C   C103      1.0  0.39917  0.21584  0.90098  1.0000
  C   C104      1.0  0.39693  0.21264  0.87028  1.0000
  H   H95       1.0  0.47690  0.24717  0.85329  1.0000
  H   H96       1.0  0.48074  0.25295  0.90744  1.0000
  H   H97       1.0  0.37738  0.20687  0.91428  1.0000
  H   H98       1.0  0.37355  0.20130  0.86004  1.0000
  C   C105      1.0  0.21699  0.40834  0.86927  1.0000
  C   C106      1.0  0.23287  0.41401  0.89614  1.0000
  C   C107      1.0  0.23119  0.43481  0.91705  1.0000
  C   C108      1.0  0.21337  0.45005  0.91137  1.0000
  C   C109      1.0  0.19650  0.44351  0.88494  1.0000
  C   C110      1.0  0.19826  0.42272  0.86396  1.0000
  H   H99       1.0  0.24718  0.40276  0.90055  1.0000
  H   H100      1.0  0.24402  0.43933  0.93739  1.0000
  H   H101      1.0  0.18243  0.45498  0.88044  1.0000
  H   H102      1.0  0.18584  0.41851  0.84340  1.0000
  C   C111      1.0  0.04976  0.29168  0.75191  1.0000
  C   C112      1.0  0.30666  0.10459  0.69677  1.0000
  C   C113      1.0  0.04790  0.26271  0.74355  1.0000
  N   N9        1.0  0.47143  0.18086  0.91698  1.0000
  H   H103      1.0  0.06977  0.26133  0.74141  1.0000
  C   C114      1.0  0.23324  0.27208  0.74949  1.0000
  C   C115      1.0  0.23502  0.24509  0.73986  1.0000
  C   C116      1.0  0.26220  0.24190  0.74580  1.0000
  C   C117      1.0  0.28806  0.26585  0.76131  1.0000
  C   C118      1.0  0.28624  0.29282  0.77098  1.0000
  C   C119      1.0  0.25896  0.29589  0.76525  1.0000
  H   H104      1.0  0.21527  0.22653  0.72765  1.0000
  H   H105      1.0  0.26322  0.22102  0.73820  1.0000
  H   H106      1.0  0.30607  0.31149  0.78302  1.0000
  H   H107      1.0  0.25798  0.31681  0.77276  1.0000
  C   C120      1.0  0.31970  0.47273  0.90032  1.0000
  C   C121      1.0  0.37953  0.27486  0.88687  1.0000
  C   C122      1.0  0.40809  0.28557  0.84139  1.0000
  C   C123      1.0  0.35009  0.26135  0.87230  1.0000
  C   C124      1.0  0.37913  0.27251  0.82616  1.0000
  C   C125      1.0  0.34999  0.26041  0.84174  1.0000
  N   N10       1.0  0.40802  0.28669  0.87138  1.0000
  C   C126      1.0  0.26723  0.31815  0.69224  1.0000
  H   H108      1.0  0.26227  0.29357  0.69006  1.0000
  H   H109      1.0  0.32748  0.25178  0.88456  1.0000
  H   H110      1.0  0.02633  0.20977  0.79433  1.0000
  H   H111      1.0  0.32738  0.25025  0.83006  1.0000
  H   H112      1.0  0.03894  0.26006  0.81479  1.0000
  H   H113      1.0  0.43057  0.29453  0.82903  1.0000
  H   H114      1.0  0.44738  0.32860  0.88893  1.0000
  C   C127      1.0  0.31767  0.06068  0.69803  1.0000
  C   C128      1.0  0.44471  0.17034  0.93482  1.0000
  H   H115      1.0  0.37920  0.27174  0.80239  1.0000
  N   N11       1.0  0.28549  0.03928  0.70232  1.0000
  H   H116      1.0  0.17191  0.49954  0.98354  1.0000
  C   C129      1.0  0.29335  0.03245  0.77639  1.0000
  H   H117      1.0  0.19464  0.30459  0.67783  1.0000
  H   H118      1.0  0.30056  0.45041  0.85891  1.0000
  H   H119      1.0  0.33068  0.45813  0.90471  1.0000
  C   C130      1.0  0.43872  0.30249  0.88690  1.0000
  H   H120      1.0  0.39274  0.14763  0.93722  1.0000
  H   H121      1.0  0.44720  0.17470  0.95824  1.0000
  C   C131      1.0  0.25154  0.35759  0.68615  1.0000
  C   C132      1.0  0.41025  0.15084  0.89278  1.0000
  H   H122      1.0  0.02193  0.29932  0.82819  1.0000
  H   H123      1.0  0.45741  0.29924  0.87507  1.0000
  H   H124      1.0  0.31231  0.33338  0.71400  1.0000
  C   C133      1.0  0.46824  0.17724  0.88723  1.0000
  C   C134      1.0  0.30277  0.46861  0.87441  1.0000
  H   H125      1.0  0.43607  0.29207  0.90924  1.0000
  C   C135      1.0  0.43763  0.16209  0.87469  1.0000
  C   C136      1.0  0.50372  0.19826  0.92956  1.0000
  H   H126      1.0  0.18835  0.45896  0.68634  1.0000
  H   H127      1.0  0.33520  0.49926  0.94082  1.0000
  H   H128      1.0  0.48942  0.18682  0.87296  1.0000
  H   H129      1.0  0.37945  0.27562  0.91064  1.0000
  N   N12       1.0  0.24537  0.32666  0.68304  1.0000
  H   H130      1.0  0.31547  0.03147  0.77716  1.0000
  H   H131      1.0  0.24986  0.48524  0.84490  1.0000
  C   C137      1.0  0.02104  0.29302  0.75434  1.0000
  H   H132      1.0  0.31500  0.13009  0.69475  1.0000
  C   C138      1.0  0.32874  0.09365  0.69521  1.0000
  H   H133      1.0  0.28823  0.50128  0.82542  1.0000
  C   C139      1.0  0.41375  0.15497  0.92304  1.0000
  N   N13       1.0  0.28816  0.48642  0.86917  1.0000
  C   C140      1.0  0.29567  0.34065  0.70580  1.0000
  H   H134      1.0  0.38645  0.14002  0.88324  1.0000
  H   H135      1.0  0.02219  0.31533  0.76062  1.0000
  Fe  Fe24      1.0  0.24276  0.49424  0.97740  1.0000
  H   H136      1.0  0.51226  0.22444  0.93001  1.0000
  H   H137      1.0  0.26308  0.45857  0.83183  1.0000
  H   H138      1.0  0.35426  0.11081  0.69200  1.0000
  H   H139      1.0  0.23824  0.03308  0.70785  1.0000
  H   H140      1.0  0.25680  0.09117  0.70370  1.0000
  S   S47       1.0  0.38034  0.18275  0.67617  1.0000
  H   H141      1.0  0.33498  0.05233  0.69696  1.0000
  H   H142      1.0  0.28422  0.40513  0.70223  1.0000
  S   S48       1.0  0.49017  0.22280  0.00564  1.0000
  C   C141      1.0  0.30191  0.37213  0.70946  1.0000
  H   H143      1.0  0.32362  0.38969  0.72034  1.0000
  H   H144      1.0  0.01640  0.21299  0.73204  1.0000
  C   C142      1.0  0.01758  0.23533  0.73827  1.0000
  H   H145      1.0  0.50380  0.19010  0.95234  1.0000
  C   C143      1.0  0.27986  0.38079  0.69936  1.0000
  H   H146      1.0  0.23430  0.36441  0.67884  1.0000
  C   C144      1.0  0.01335  0.25203  0.81674  1.0000
  Fe  Fe25      1.0  0.13573  0.83357  0.26327  1.0000
  S   S49       1.0  0.17163  0.81737  0.25197  1.0000
  S   S50       1.0  0.08352  0.79656  0.27561  1.0000
  Fe  Fe26      1.0  0.18863  0.90480  0.26504  1.0000
  S   S51       1.0  0.22799  0.89349  0.25457  1.0000
  S   S52       1.0  0.19197  0.95381  0.27072  1.0000
  Fe  Fe27      1.0  0.19409  0.85954  0.22083  1.0000
  S   S53       1.0  0.21722  0.86492  0.17545  1.0000
  Fe  Fe28      1.0  0.20266  0.85217  0.28665  1.0000
  S   S54       1.0  0.23098  0.83596  0.31526  1.0000
  S   S55       1.0  0.15585  0.87320  0.22947  1.0000
  S   S56       1.0  0.16563  0.86593  0.29983  1.0000
  C   C145      1.0  0.01732  0.76519  0.27370  1.0000
  S   S57       1.0  0.29656  0.53292  0.04609  1.0000
  H   H147      1.0  0.09227  0.85715  0.31214  1.0000
  Fe  Fe29      1.0  0.23917  0.77009  0.04305  1.0000
  H   H148      1.0  0.32143  0.67061  0.03410  1.0000
  S   S58       1.0  0.20876  0.75988  0.08494  1.0000
  S   S59       1.0  0.35989  0.82183  0.03297  1.0000
  S   S60       1.0  0.27196  0.74893  0.04013  1.0000
  C   C146      1.0  0.05094  0.87840  0.26716  1.0000
  C   C147      1.0  0.17250  0.56872  0.03363  1.0000
  H   H149      1.0  0.05479  0.89516  0.24955  1.0000
  C   C148      1.0  0.01931  0.85581  0.27572  1.0000
  H   H150      1.0  0.11225  0.90258  0.24660  1.0000
  C   C149      1.0  0.39215  0.59859  0.02503  1.0000
  Fe  Fe30      1.0  0.50700  0.72919  0.02058  1.0000
  H   H151      1.0  0.42537  0.83914  0.04557  1.0000
  S   S61       1.0  0.25041  0.58049  0.04832  1.0000
  C   C150      1.0  0.25577  0.79435  0.17326  1.0000
  H   H152      1.0  0.29668  0.81327  0.10800  1.0000
  C   C151      1.0  0.17572  0.54546  0.01772  1.0000
  H   H153      1.0  0.29434  0.87509  0.17510  1.0000
  H   H154      1.0  0.23816  0.77348  0.18560  1.0000
  C   C152      1.0  0.10951  0.90277  0.27082  1.0000
  C   C153      1.0  0.24979  0.63677  0.04145  1.0000
  H   H155      1.0  0.24573  0.67933  0.03639  1.0000
  H   H156      1.0  0.24874  0.63713  0.06516  1.0000
  C   C154      1.0  0.21139  0.83517  0.14929  1.0000
  C   C155      1.0  0.22898  0.84499  0.12266  1.0000
  C   C156      1.0  0.22766  0.82225  0.10230  1.0000
  C   C157      1.0  0.20862  0.78937  0.10837  1.0000
  C   C158      1.0  0.19023  0.77953  0.13460  1.0000
  C   C159      1.0  0.19160  0.80230  0.15501  1.0000
  H   H157      1.0  0.24422  0.87038  0.11800  1.0000
  H   H158      1.0  0.24178  0.83015  0.08216  1.0000
  H   H159      1.0  0.17526  0.75412  0.13935  1.0000
  H   H160      1.0  0.17771  0.79442  0.17528  1.0000
  H   H161      1.0  0.41971  0.74777  0.03684  1.0000
  H   H162      1.0  0.26056  0.97339  0.26492  1.0000
  H   H163      1.0  0.31523  0.86829  0.12717  1.0000
  C   C160      1.0  0.04473  0.80733  0.23747  1.0000
  C   C161      1.0  0.04630  0.78912  0.26065  1.0000
  C   C162      1.0  0.01421  0.83378  0.29796  1.0000
  H   H164      1.0  0.06680  0.82574  0.22716  1.0000
  H   H165      1.0  0.20487  0.75344  0.32226  1.0000
  C   C163      1.0  0.41823  0.62486  0.03861  1.0000
  N   N14       1.0  0.07670  0.87884  0.28028  1.0000
  H   H166      1.0  0.37187  0.58121  0.03813  1.0000
  C   C164      1.0  0.25336  0.82861  0.21194  1.0000
  C   C165      1.0  0.28869  0.81653  0.12953  1.0000
  H   H167      1.0  0.11528  0.92725  0.27785  1.0000
  C   C166      1.0  0.24829  0.66083  0.02519  1.0000
  S   S62       1.0  0.47781  0.67921  0.04016  1.0000
  H   H168      1.0  0.25772  0.76580  0.13729  1.0000
  S   S63       1.0  0.27673  0.81821  0.02545  1.0000
  C   C167      1.0  0.38524  0.80798  0.01851  1.0000
  Fe  Fe31      1.0  0.30783  0.79563  0.01906  1.0000
  H   H169      1.0  0.41784  0.62755  0.06215  1.0000
  H   H170      1.0  0.22656  0.81418  0.21265  1.0000
  H   H171      1.0  0.25964  0.85400  0.21577  1.0000
  H   H172      1.0  0.26330  0.82093  0.23005  1.0000
  H   H173      1.0  0.16970  0.61216  0.03075  1.0000
  C   C168      1.0  0.28718  0.85105  0.16743  1.0000
  H   H174      1.0  0.12795  0.89793  0.28031  1.0000
  H   H175      1.0  0.46334  0.82398  0.02233  1.0000
  C   C169      1.0  0.29901  0.84738  0.14026  1.0000
  C   C170      1.0  0.26694  0.78982  0.14609  1.0000
  C   C171      1.0  0.25166  0.61180  0.02720  1.0000
  C   C172      1.0  0.01448  0.80198  0.22792  1.0000
  C   C173      1.0  0.34684  0.68000  0.02891  1.0000
  N   N15       1.0  0.26578  0.82468  0.18351  1.0000
  H   H176      1.0  0.31655  0.61561  0.02534  1.0000
  C   C174      1.0  0.22790  0.99196  0.26810  1.0000
  S   S64       1.0  0.49531  0.76515  0.04050  1.0000
  C   C175      1.0  0.07192  0.85746  0.30226  1.0000
  H   H177      1.0  0.17309  0.56872  0.05740  1.0000
  Fe  Fe32      1.0  0.25944  0.54310  0.02692  1.0000
  C   C176      1.0  0.04064  0.83464  0.31143  1.0000
  C   C177      1.0  0.44490  0.64755  0.02199  1.0000
  H   H178      1.0  0.36139  0.72647  0.04819  1.0000
  C   C178      1.0  0.25844  0.99482  0.26556  1.0000
  C   C179      1.0  0.36926  0.71147  0.03703  1.0000
  C   C180      1.0  0.41712  0.82157  0.02818  1.0000
  C   C181      1.0  0.40195  0.72356  0.03047  1.0000
  H   H179      1.0  0.01826  0.75095  0.29163  1.0000
  H   H180      1.0  0.03699  0.81683  0.32792  1.0000
  H   H181      1.0  0.16356  0.76928  0.33215  1.0000
  H   H182      1.0  0.17873  0.52755  0.02959  1.0000
  C   C182      1.0  0.17073  0.59314  0.01869  1.0000
  H   H183      1.0  0.01353  0.81644  0.21022  1.0000
  N   N16       1.0  0.35682  0.66125  0.01464  1.0000
  C   C183      1.0  0.43866  0.81304  0.01504  1.0000
  C   C184      1.0  0.41171  0.70457  0.01517  1.0000
  H   H184      1.0  0.43698  0.71391  0.00942  1.0000
  Fe  Fe33      1.0  0.25421  0.54595  0.52199  1.0000
  S   S65       1.0  0.24342  0.58137  0.54505  1.0000
  S   S66       1.0  0.27590  0.55215  0.47705  1.0000
  Fe  Fe34      1.0  0.25315  0.73719  0.49189  1.0000
  S   S67       1.0  0.28750  0.78387  0.46927  1.0000
  S   S68       1.0  0.24241  0.69139  0.46875  1.0000
  Fe  Fe35      1.0  0.30704  0.80012  0.51451  1.0000
  Fe  Fe36      1.0  0.25089  0.79869  0.48161  1.0000
  S   S69       1.0  0.22690  0.82067  0.45457  1.0000
  S   S70       1.0  0.21527  0.75070  0.50131  1.0000
  C   C185      1.0  0.14306  0.78839  0.60508  1.0000
  H   H185      1.0  0.19964  0.50933  0.57798  1.0000
  S   S71       1.0  0.46165  0.79747  0.46728  1.0000
  C   C186      1.0  0.41160  0.81669  0.52958  1.0000
  C   C187      1.0  0.43476  0.81088  0.51576  1.0000
  C   C188      1.0  0.43320  0.80492  0.48564  1.0000
  H   H186      1.0  0.41333  0.82195  0.55277  1.0000
  H   H187      1.0  0.45415  0.81164  0.52829  1.0000
  C   C189      1.0  0.41607  0.62632  0.54294  1.0000
  C   C190      1.0  0.39102  0.59961  0.52878  1.0000
  H   H188      1.0  0.41770  0.62617  0.56656  1.0000
  H   H189      1.0  0.37373  0.57893  0.54145  1.0000
  C   C191      1.0  0.24106  0.61067  0.52356  1.0000
  C   C192      1.0  0.24060  0.60912  0.49292  1.0000
  C   C193      1.0  0.24011  0.63356  0.47633  1.0000
  C   C194      1.0  0.24041  0.65986  0.49022  1.0000
  H   H190      1.0  0.24053  0.58906  0.48198  1.0000
  H   H191      1.0  0.23993  0.63227  0.45264  1.0000
  S   S72       1.0  0.50099  0.74701  0.47523  1.0000
  C   C195      1.0  0.25176  0.82526  0.36773  1.0000
  C   C196      1.0  0.25115  0.82143  0.39843  1.0000
  C   C197      1.0  0.23048  0.82742  0.41602  1.0000
  C   C198      1.0  0.21097  0.83788  0.40259  1.0000
  C   C199      1.0  0.21151  0.84160  0.37186  1.0000
  H   H192      1.0  0.33356  0.88964  0.61560  1.0000
  H   H193      1.0  0.26661  0.81378  0.40841  1.0000
  H   H194      1.0  0.19503  0.84278  0.41597  1.0000
  N   N17       1.0  0.19764  0.74286  0.39596  1.0000
  Fe  Fe37      1.0  0.30872  0.53729  0.49777  1.0000
  S   S73       1.0  0.28947  0.53468  0.54362  1.0000
  S   S74       1.0  0.35984  0.56501  0.47956  1.0000
  Fe  Fe38      1.0  0.24068  0.77072  0.54377  1.0000
  S   S75       1.0  0.27379  0.81966  0.52515  1.0000
  S   S76       1.0  0.21380  0.76049  0.58751  1.0000
  S   S77       1.0  0.35794  0.82373  0.53141  1.0000
  S   S78       1.0  0.27519  0.75236  0.53604  1.0000
  H   H195      1.0  0.35537  0.73977  0.46504  1.0000
  S   S79       1.0  0.46942  0.68654  0.54544  1.0000
  H   H196      1.0  0.34066  0.74362  0.50080  1.0000
  C   C200      1.0  0.38630  0.81577  0.51356  1.0000
  C   C201      1.0  0.40802  0.80421  0.46960  1.0000
  C   C202      1.0  0.38445  0.80928  0.48354  1.0000
  H   H197      1.0  0.40676  0.79977  0.44627  1.0000
  H   H198      1.0  0.36532  0.80895  0.47091  1.0000
  C   C203      1.0  0.38916  0.59925  0.49821  1.0000
  C   C204      1.0  0.41215  0.62600  0.48199  1.0000
  C   C205      1.0  0.43664  0.65308  0.49619  1.0000
  C   C206      1.0  0.43884  0.65321  0.52673  1.0000
  H   H199      1.0  0.41108  0.62572  0.45832  1.0000
  H   H200      1.0  0.45421  0.67350  0.48346  1.0000
  C   C207      1.0  0.24044  0.66120  0.52086  1.0000
  C   C208      1.0  0.24063  0.63660  0.53745  1.0000
  H   H201      1.0  0.24022  0.68108  0.53181  1.0000
  H   H202      1.0  0.24078  0.63785  0.56113  1.0000
  C   C209      1.0  0.21714  0.83663  0.65088  1.0000
  C   C210      1.0  0.23271  0.84588  0.62329  1.0000
  C   C211      1.0  0.23286  0.82298  0.60402  1.0000
  C   C212      1.0  0.21701  0.79050  0.61206  1.0000
  C   C213      1.0  0.20214  0.78132  0.63993  1.0000
  H   H203      1.0  0.27038  0.75029  0.60499  1.0000
  H   H204      1.0  0.24418  0.87085  0.61656  1.0000
  H   H205      1.0  0.24452  0.83039  0.58270  1.0000
  C   C214      1.0  0.31173  0.52516  0.41455  1.0000
  C   C215      1.0  0.20814  0.74302  0.36782  1.0000
  N   N18       1.0  0.34892  0.70429  0.49655  1.0000
  C   C216      1.0  0.38096  0.71432  0.50009  1.0000
  C   C217      1.0  0.39045  0.69397  0.51305  1.0000
  C   C218      1.0  0.36689  0.66336  0.52251  1.0000
  H   H206      1.0  0.41588  0.70186  0.51578  1.0000
  H   H207      1.0  0.37377  0.64737  0.53269  1.0000
  H   H208      1.0  0.20792  0.83195  0.52486  1.0000
  H   H209      1.0  0.31576  0.62962  0.52626  1.0000
  H   H210      1.0  0.18977  0.75620  0.64632  1.0000
  C   C219      1.0  0.16825  0.84566  0.59727  1.0000
  Fe  Fe39      1.0  0.49747  0.78917  0.49228  1.0000
  C   C220      1.0  0.21200  0.73511  0.42055  1.0000
  C   C221      1.0  0.31171  0.81206  0.60034  1.0000
  H   H211      1.0  0.16830  0.79962  0.51589  1.0000
  S   S80       1.0  0.49357  0.77428  0.53925  1.0000
  H   H212      1.0  0.49223  0.76728  0.64452  1.0000
  C   C222      1.0  0.29107  0.51920  0.39119  1.0000
  C   C223      1.0  0.15530  0.78562  0.57782  1.0000
  H   H213      1.0  0.29082  0.75535  0.63937  1.0000
  N   N19       1.0  0.17399  0.81233  0.56094  1.0000
  H   H214      1.0  0.22811  0.52993  0.60617  1.0000
  H   H215      1.0  0.34311  0.85708  0.57827  1.0000
  H   H216      1.0  0.26762  0.82028  0.35429  1.0000
  Fe  Fe40      1.0  0.50072  0.73429  0.52238  1.0000
  H   H217      1.0  0.17425  0.86934  0.60515  1.0000
  H   H218      1.0  0.19294  0.71769  0.43581  1.0000
  H   H219      1.0  0.19601  0.84918  0.36181  1.0000
  C   C224      1.0  0.28653  0.81488  0.64470  1.0000
  H   H220      1.0  0.31615  0.79817  0.58400  1.0000
  N   N20       1.0  0.29122  0.79714  0.62365  1.0000
  C   C225      1.0  0.33433  0.65342  0.51896  1.0000
  H   H221      1.0  0.22795  0.75741  0.43272  1.0000
  H   H222      1.0  0.12941  0.76734  0.61895  1.0000
  C   C226      1.0  0.32577  0.67442  0.50603  1.0000
  H   H223      1.0  0.14484  0.76898  0.38335  1.0000
  C   C227      1.0  0.32718  0.84550  0.59705  1.0000
  H   H224      1.0  0.30052  0.66667  0.50360  1.0000
  C   C228      1.0  0.32909  0.50896  0.41631  1.0000
  C   C229      1.0  0.33931  0.72628  0.48390  1.0000
  C   C230      1.0  0.20237  0.80432  0.65938  1.0000
  H   H225      1.0  0.31420  0.71315  0.47560  1.0000
  C   C231      1.0  0.23171  0.83499  0.35421  1.0000
  C   C232      1.0  0.18722  0.80881  0.53283  1.0000
  H   H226      1.0  0.39937  0.73813  0.49288  1.0000
  H   H227      1.0  0.22659  0.72404  0.41326  1.0000
  H   H228      1.0  0.15092  0.76214  0.57080  1.0000
  C   C233      1.0  0.16191  0.76079  0.37874  1.0000
  H   H229      1.0  0.19644  0.79176  0.53519  1.0000
  C   C234      1.0  0.17505  0.75186  0.40162  1.0000
  H   H230      1.0  0.34502  0.51345  0.43464  1.0000
  C   C235      1.0  0.18004  0.84203  0.57006  1.0000
  C   C236      1.0  0.32193  0.86371  0.61803  1.0000
  C   C237      1.0  0.14985  0.81866  0.61492  1.0000
  H   H231      1.0  0.22690  0.73706  0.36337  1.0000
  C   C238      1.0  0.30163  0.84838  0.64213  1.0000
  H   H232      1.0  0.19478  0.86321  0.55669  1.0000
  H   H233      1.0  0.16799  0.75332  0.42406  1.0000
  C   C239      1.0  0.27536  0.76208  0.62680  1.0000
  S   S81       1.0  0.21419  0.86582  0.67242  1.0000
  H   H234      1.0  0.50595  0.78546  0.60852  1.0000
  H   H235      1.0  0.27663  0.53090  0.39027  1.0000
  H   H236      1.0  0.31418  0.54218  0.43141  1.0000
  H   H237      1.0  0.14172  0.82138  0.63658  1.0000
  H   H238      1.0  0.25145  0.75237  0.63809  1.0000
  H   H239      1.0  0.48899  0.77491  0.41825  1.0000
  C   C240      1.0  0.51114  0.79678  0.41025  1.0000
  H   H240      1.0  0.27036  0.80311  0.66325  1.0000
  C   C241      1.0  0.17236  0.76090  0.34998  1.0000
  C   C242      1.0  0.19564  0.75201  0.34443  1.0000
  H   H241      1.0  0.50364  0.81426  0.40334  1.0000
  H   H242      1.0  0.50134  0.73650  0.58849  1.0000
  H   H243      1.0  0.29701  0.86222  0.65845  1.0000
  Fe  Fe41      1.0  0.15248  0.85809  0.76874  1.0000
  S   S82       1.0  0.16762  0.82343  0.75173  1.0000
  S   S83       1.0  0.10153  0.84125  0.78697  1.0000
  Fe  Fe42      1.0  0.22262  0.91492  0.76903  1.0000
  S   S84       1.0  0.24197  0.88311  0.75317  1.0000
  S   S85       1.0  0.26345  0.96661  0.77549  1.0000
  Fe  Fe43      1.0  0.20138  0.86363  0.72125  1.0000
  H   H244      1.0  0.02981  0.78091  0.70547  1.0000
  Fe  Fe44      1.0  0.20705  0.84613  0.78522  1.0000
  S   S86       1.0  0.21647  0.81249  0.81347  1.0000
  S   S87       1.0  0.18324  0.89706  0.73576  1.0000
  S   S88       1.0  0.19066  0.87905  0.80354  1.0000
  C   C243      1.0  0.39300  0.59426  0.99478  1.0000
  C   C244      1.0  0.30727  0.51373  0.91500  1.0000
  S   S89       1.0  0.27734  0.54723  0.98079  1.0000
  H   H245      1.0  0.31461  0.86800  0.98235  1.0000
  S   S90       1.0  0.29173  0.77986  0.97315  1.0000
  S   S91       1.0  0.24273  0.68736  0.97357  1.0000
  H   H246      1.0  0.42055  0.61371  0.95471  1.0000
  Fe  Fe45      1.0  0.25741  0.79848  0.98058  1.0000
  S   S92       1.0  0.25274  0.83276  0.94887  1.0000
  C   C245      1.0  0.37122  0.86265  0.96562  1.0000
  H   H247      1.0  0.03698  0.80780  0.81089  1.0000
  H   H248      1.0  0.12914  0.83434  0.84106  1.0000
  S   S93       1.0  0.45553  0.78269  0.97242  1.0000
  H   H249      1.0  0.31276  0.84650  0.91733  1.0000
  C   C246      1.0  0.39653  0.77748  0.98235  1.0000
  H   H250      1.0  0.35216  0.90494  0.97568  1.0000
  C   C247      1.0  0.24853  0.65994  0.99456  1.0000
  H   H251      1.0  0.38855  0.76061  0.96438  1.0000
  C   C248      1.0  0.37475  0.78520  0.99609  1.0000
  C   C249      1.0  0.16140  0.79539  0.89478  1.0000
  H   H252      1.0  0.15173  0.76105  0.86059  1.0000
  H   H253      1.0  0.27823  0.52253  0.88518  1.0000
  H   H254      1.0  0.40401  0.84391  0.96416  1.0000
  H   H255      1.0  0.17112  0.78470  0.90950  1.0000
  C   C250      1.0  0.25118  0.63538  0.98031  1.0000
  Fe  Fe46      1.0  0.49710  0.78117  0.99410  1.0000
  H   H256      1.0  0.19014  0.79689  0.68050  1.0000
  H   H257      1.0  0.25127  0.63455  0.95661  1.0000
  C   C251      1.0  0.22852  0.81944  0.85063  1.0000
  C   C252      1.0  0.23090  0.79546  0.86628  1.0000
  C   C253      1.0  0.23863  0.79923  0.89628  1.0000
  C   C254      1.0  0.24411  0.82713  0.91092  1.0000
  C   C255      1.0  0.24235  0.85137  0.89514  1.0000
  C   C256      1.0  0.23450  0.84754  0.86519  1.0000
  H   H258      1.0  0.22636  0.77364  0.85521  1.0000
  H   H259      1.0  0.23996  0.78041  0.90812  1.0000
  H   H260      1.0  0.24669  0.87311  0.90622  1.0000
  H   H261      1.0  0.23282  0.86621  0.85344  1.0000
  S   S94       1.0  0.36129  0.56077  0.97717  1.0000
  H   H262      1.0  0.21196  0.98322  0.77484  1.0000
  H   H263      1.0  0.25380  0.59207  0.98536  1.0000
  C   C257      1.0  0.03552  0.80173  0.78790  1.0000
  C   C258      1.0  0.06403  0.81437  0.77069  1.0000
  C   C259      1.0  0.06178  0.80636  0.74100  1.0000
  H   H264      1.0  0.33414  0.81341  0.89568  1.0000
  H   H265      1.0  0.08345  0.81598  0.72746  1.0000
  C   C260      1.0  0.38425  0.84468  0.95350  1.0000
  C   C261      1.0  0.34516  0.82765  0.91503  1.0000
  C   C262      1.0  0.33315  0.84644  0.92740  1.0000
  C   C263      1.0  0.44538  0.64372  0.99160  1.0000
  C   C264      1.0  0.13821  0.82325  0.85604  1.0000
  C   C265      1.0  0.18193  0.52278  0.97145  1.0000
  C   C266      1.0  0.25274  0.61136  0.99657  1.0000
  N   N21       1.0  0.34645  0.86390  0.95220  1.0000
  C   C267      1.0  0.16134  0.82345  0.90274  1.0000
  H   H266      1.0  0.38076  0.87516  0.98609  1.0000
  H   H267      1.0  0.38028  0.81208  0.91918  1.0000
  N   N22       1.0  0.13900  0.79608  0.84818  1.0000
  H   H268      1.0  0.10484  0.75763  0.82241  1.0000
  Fe  Fe47      1.0  0.25323  0.73432  0.99467  1.0000
  S   S95       1.0  0.50604  0.74327  0.97401  1.0000
  C   C268      1.0  0.12719  0.78125  0.81956  1.0000
  H   H269      1.0  0.25013  0.99107  0.71468  1.0000
  C   C269      1.0  0.03130  0.78648  0.72859  1.0000
  S   S96       1.0  0.21726  0.75161  0.99871  1.0000
  C   C270      1.0  0.37094  0.82687  0.92820  1.0000
  N   N23       1.0  0.17665  0.54622  0.98773  1.0000
  C   C271      1.0  0.33296  0.62837  0.00643  1.0000
  H   H270      1.0  0.14591  0.77785  0.80794  1.0000
  H   H271      1.0  0.12158  0.79648  0.80525  1.0000
  H   H272      1.0  0.14980  0.85955  0.88910  1.0000
  C   C272      1.0  0.17204  0.59394  0.98812  1.0000
  C   C273      1.0  0.33302  0.88271  0.96541  1.0000
  Fe  Fe48      1.0  0.31199  0.53354  0.99917  1.0000
  C   C274      1.0  0.14966  0.83753  0.88329  1.0000
  H   H273      1.0  0.46597  0.66088  0.97865  1.0000
  C   C275      1.0  0.41968  0.61692  0.97812  1.0000
  C   C276      1.0  0.15034  0.78210  0.86714  1.0000
  H   H274      1.0  0.17095  0.83455  0.92373  1.0000
  H   H275      1.0  0.32103  0.88994  0.94878  1.0000
  H   H276      1.0  0.34451  0.61405  0.99990  1.0000
  H   H277      1.0  0.17729  0.57166  0.94917  1.0000
  H   H278      1.0  0.30892  0.53144  0.93077  1.0000
  C   C277      1.0  0.17514  0.57020  0.97289  1.0000
  H   H279      1.0  0.39643  0.65904  0.99494  1.0000
  C   C278      1.0  0.29022  0.50876  0.88906  1.0000
  C   C279      1.0  0.42858  0.79150  0.99164  1.0000
  H   H280      1.0  0.35018  0.77438  0.98861  1.0000
  H   H281      1.0  0.20820  0.53234  0.96779  1.0000
  H   H282      1.0  0.31863  0.62893  0.98779  1.0000
  H   H283      1.0  0.17221  0.61372  0.97639  1.0000
  C   C280      1.0  0.38865  0.67342  0.00713  1.0000
  H   H284      1.0  0.17006  0.51729  0.94981  1.0000
  H   H285      1.0  0.01539  0.84747  0.76386  1.0000
  H   H286      1.0  0.27319  0.99497  0.68166  1.0000
  C   C281      1.0  0.26350  0.00363  0.77610  1.0000
  C   C282      1.0  0.27439  0.00475  0.70396  1.0000
  H   H287      1.0  0.29090  0.00023  0.71752  1.0000
  C   C283      1.0  0.23507  0.00519  0.77507  1.0000
  Fe  Fe49      1.0  0.90369  0.22834  0.25046  1.0000
  S   S97       1.0  0.86589  0.24261  0.25947  1.0000
  S   S98       1.0  0.95438  0.26700  0.23606  1.0000
  Fe  Fe50      1.0  0.85385  0.15627  0.25300  1.0000
  S   S99       1.0  0.81283  0.16558  0.26125  1.0000
  S   S100      1.0  0.85267  0.10801  0.25428  1.0000
  Fe  Fe51      1.0  0.83630  0.20446  0.22665  1.0000
  S   S101      1.0  0.80621  0.21511  0.19497  1.0000
  Fe  Fe52      1.0  0.84551  0.20307  0.29343  1.0000
  S   S102      1.0  0.87494  0.19227  0.21577  1.0000
  S   S103      1.0  0.88574  0.19170  0.28698  1.0000
  S   S104      1.0  0.55294  0.28937  0.02882  1.0000
  H   H288      1.0  0.59968  0.35558  0.03434  1.0000
  C   C284      1.0  0.76286  0.40082  0.03601  1.0000
  S   S105      1.0  0.78765  0.30844  0.03674  1.0000
  C   C285      1.0  0.95817  0.19803  0.21035  1.0000
  Fe  Fe53      1.0  0.80709  0.27431  0.03158  1.0000
  S   S106      1.0  0.83973  0.26724  0.06322  1.0000
  N   N24       1.0  0.95425  0.16281  0.24953  1.0000
  H   H289      1.0  0.58890  0.25023  0.03194  1.0000
  C   C286      1.0  0.99178  0.21394  0.21177  1.0000
  C   C287      1.0  0.76333  0.03536  0.23154  1.0000
  C   C288      1.0  0.57925  0.38786  0.08599  1.0000
  H   H290      1.0  0.94640  0.30152  0.12292  1.0000
  S   S107      1.0  0.75964  0.23232  0.01842  1.0000
  C   C289      1.0  0.57429  0.36399  0.10636  1.0000
  C   C290      1.0  0.71400  0.39332  0.01414  1.0000
  C   C291      1.0  0.88176  0.30701  0.14751  1.0000
  H   H291      1.0  0.54855  0.29480  0.11904  1.0000
  H   H292      1.0  0.60243  0.40990  0.08425  1.0000
  C   C292      1.0  0.99289  0.25480  0.27306  1.0000
  C   C293      1.0  0.55451  0.38265  0.06706  1.0000
  C   C294      1.0  0.92832  0.29359  0.16753  1.0000
  H   H293      1.0  0.86319  0.31151  0.13926  1.0000
  C   C295      1.0  0.90515  0.30815  0.12790  1.0000
  C   C296      1.0  0.93401  0.13613  0.26955  1.0000
  C   C297      1.0  0.81426  0.22648  0.15738  1.0000
  C   C298      1.0  0.84016  0.22727  0.14187  1.0000
  C   C299      1.0  0.84674  0.23844  0.11257  1.0000
  C   C300      1.0  0.82777  0.24920  0.09858  1.0000
  C   C301      1.0  0.80141  0.24765  0.11388  1.0000
  C   C302      1.0  0.79472  0.23631  0.14308  1.0000
  H   H294      1.0  0.85529  0.21961  0.15249  1.0000
  H   H295      1.0  0.86707  0.23936  0.10087  1.0000
  H   H296      1.0  0.78661  0.25586  0.10345  1.0000
  H   H297      1.0  0.77453  0.23564  0.15484  1.0000
  C   C303      1.0  0.81816  0.06960  0.24846  1.0000
  C   C304      1.0  0.78985  0.06625  0.23658  1.0000
  S   S108      1.0  0.69431  0.25763  0.04215  1.0000
  H   H298      1.0  0.94633  0.28821  0.17578  1.0000
  C   C305      1.0  0.81940  0.04167  0.25558  1.0000
  H   H299      1.0  0.78855  0.08745  0.23083  1.0000
  H   H300      1.0  0.84120  0.04394  0.26468  1.0000
  H   H301      1.0  0.74171  0.03311  0.22201  1.0000
  C   C306      1.0  0.99158  0.27275  0.24953  1.0000
  C   C307      1.0  0.93967  0.17223  0.22940  1.0000
  H   H302      1.0  0.97079  0.23740  0.28407  1.0000
  H   H303      1.0  0.90438  0.31325  0.10482  1.0000
  C   C308      1.0  0.85700  0.29831  0.19655  1.0000
  H   H304      1.0  0.91834  0.14234  0.28313  1.0000
  C   C309      1.0  0.90458  0.29267  0.18651  1.0000
  Fe  Fe54      1.0  0.74121  0.26728  0.02032  1.0000
  H   H305      1.0  0.86253  0.45230  0.03539  1.0000
  H   H306      1.0  0.63581  0.25627  0.05975  1.0000
  C   C310      1.0  0.92845  0.30123  0.13800  1.0000
  H   H307      1.0  0.91352  0.15988  0.22823  1.0000
  N   N25       1.0  0.88143  0.29889  0.17631  1.0000
  H   H308      1.0  0.83370  0.28998  0.18528  1.0000
  H   H309      1.0  0.90472  0.28668  0.20940  1.0000
  H   H310      1.0  0.64848  0.18818  0.02614  1.0000
  C   C311      1.0  0.63589  0.25453  0.03609  1.0000
  H   H311      1.0  0.78638  0.41647  0.04525  1.0000
  C   C312      1.0  0.72051  0.34800  0.02238  1.0000
  H   H312      1.0  0.91803  0.11418  0.25682  1.0000
  H   H313      1.0  0.86548  0.32262  0.20570  1.0000
  H   H314      1.0  0.85162  0.28093  0.21479  1.0000
  C   C313      1.0  0.61429  0.38001  0.02666  1.0000
  H   H315      1.0  0.71034  0.14791  0.03620  1.0000
  H   H316      1.0  0.67401  0.16565  0.05809  1.0000
  H   H317      1.0  0.55474  0.32160  0.14944  1.0000
  H   H318      1.0  0.55833  0.40058  0.05057  1.0000
  C   C314      1.0  0.66412  0.43164  0.02910  1.0000
  C   C315      1.0  0.75109  0.36780  0.03401  1.0000
  H   H319      1.0  0.59388  0.36796  0.12059  1.0000
  C   C316      1.0  0.74434  0.41374  0.02590  1.0000
  N   N26       1.0  0.54527  0.33597  0.10814  1.0000
  Fe  Fe55      1.0  0.74333  0.50027  0.02525  1.0000
  S   S109      1.0  0.70175  0.45537  0.04568  1.0000
  C   C317      1.0  0.84697  0.44276  0.01668  1.0000
  H   H320      1.0  0.65395  0.38986  0.05477  1.0000
  C   C318      1.0  0.98723  0.17837  0.25118  1.0000
  C   C319      1.0  0.66225  0.25514  0.02145  1.0000
  C   C320      1.0  0.76101  0.00728  0.32337  1.0000
  C   C321      1.0  0.54079  0.31100  0.12924  1.0000
  H   H321      1.0  0.94848  0.13025  0.28447  1.0000
  S   S110      1.0  0.82034  0.19940  0.33767  1.0000
  H   H322      1.0  0.76189  0.04578  0.29834  1.0000
  S   S111      1.0  0.84638  0.49969  0.01710  1.0000
  H   H323      1.0  0.94649  0.20613  0.19508  1.0000
  H   H324      1.0  0.84913  0.39877  0.01562  1.0000
  C   C322      1.0  0.64502  0.39955  0.03833  1.0000
  H   H325      1.0  0.76554  0.35762  0.04147  1.0000
  C   C323      1.0  0.52530  0.35373  0.06854  1.0000
  H   H326      1.0  0.99891  0.17134  0.26740  1.0000
  H   H327      1.0  0.75337  0.43943  0.02734  1.0000
  C   C324      1.0  0.60932  0.25120  0.02037  1.0000
  C   C325      1.0  0.74762  0.02083  0.30531  1.0000
  C   C326      1.0  0.00648  0.20402  0.23221  1.0000
  H   H328      1.0  0.00640  0.23457  0.19770  1.0000
  C   C327      1.0  0.67814  0.16696  0.03454  1.0000
  H   H329      1.0  0.78564  0.02178  0.33072  1.0000
  C   C328      1.0  0.52108  0.33042  0.08926  1.0000
  C   C329      1.0  0.66388  0.17973  0.01660  1.0000
  H   H330      1.0  0.71135  0.32230  0.02128  1.0000
  H   H331      1.0  0.65345  0.32525  0.02034  1.0000
  C   C330      1.0  0.69860  0.15695  0.02200  1.0000
  C   C331      1.0  0.79267  0.01074  0.25094  1.0000
  H   H332      1.0  0.70677  0.01174  0.27954  1.0000
  N   N27       1.0  0.70236  0.36085  0.01268  1.0000
  C   C332      1.0  0.76451  0.00742  0.23871  1.0000
  H   H333      1.0  0.51496  0.29610  0.13603  1.0000
  H   H334      1.0  0.71506  0.32765  0.54504  1.0000
  Fe  Fe56      1.0  0.53214  0.25053  0.51358  1.0000
  S   S112      1.0  0.55689  0.22352  0.52875  1.0000
  Fe  Fe57      1.0  0.54220  0.31381  0.49046  1.0000
  S   S113      1.0  0.58154  0.35946  0.46926  1.0000
  S   S114      1.0  0.53138  0.26760  0.46806  1.0000
  Fe  Fe58      1.0  0.80383  0.28813  0.47689  1.0000
  S   S115      1.0  0.83945  0.29914  0.43884  1.0000
  S   S116      1.0  0.77204  0.31030  0.47807  1.0000
  S   S117      1.0  0.68342  0.47480  0.54653  1.0000
  C   C333      1.0  0.80858  0.43068  0.48650  1.0000
  H   H335      1.0  0.80119  0.38240  0.48787  1.0000
  H   H336      1.0  0.81158  0.43277  0.46291  1.0000
  C   C334      1.0  0.60884  0.39179  0.49105  1.0000
  C   C335      1.0  0.63483  0.41860  0.47739  1.0000
  C   C336      1.0  0.65775  0.44428  0.49415  1.0000
  C   C337      1.0  0.65466  0.44344  0.52471  1.0000
  C   C338      1.0  0.62853  0.41674  0.53837  1.0000
  C   C339      1.0  0.60574  0.39093  0.52163  1.0000
  H   H337      1.0  0.63728  0.41948  0.45374  1.0000
  H   H338      1.0  0.67748  0.46488  0.48336  1.0000
  C   C340      1.0  0.59463  0.23299  0.51287  1.0000
  C   C341      1.0  0.60412  0.24736  0.48511  1.0000
  C   C342      1.0  0.63257  0.25129  0.47159  1.0000
  H   H339      1.0  0.58902  0.25446  0.47361  1.0000
  H   H340      1.0  0.63919  0.26136  0.44970  1.0000
  C   C343      1.0  0.82718  0.22763  0.36574  1.0000
  C   C344      1.0  0.85136  0.25992  0.36362  1.0000
  C   C345      1.0  0.85497  0.28150  0.38628  1.0000
  C   C346      1.0  0.83420  0.27114  0.41101  1.0000
  C   C347      1.0  0.81004  0.23887  0.41311  1.0000
  C   C348      1.0  0.80685  0.21720  0.39077  1.0000
  H   H341      1.0  0.72759  0.16211  0.61832  1.0000
  H   H342      1.0  0.87384  0.30641  0.38450  1.0000
  H   H343      1.0  0.79393  0.23050  0.43200  1.0000
  H   H344      1.0  0.78809  0.19225  0.39262  1.0000
  S   S118      1.0  0.54622  0.29750  0.53530  1.0000
  S   S119      1.0  0.76392  0.23883  0.48874  1.0000
  Fe  Fe59      1.0  0.78378  0.31948  0.52557  1.0000
  S   S120      1.0  0.74238  0.27195  0.54114  1.0000
  S   S121      1.0  0.79071  0.36370  0.54980  1.0000
  Fe  Fe60      1.0  0.77761  0.25377  0.53583  1.0000
  S   S122      1.0  0.78340  0.21825  0.56499  1.0000
  Fe  Fe61      1.0  0.73281  0.26173  0.49318  1.0000
  S   S123      1.0  0.68690  0.24562  0.46799  1.0000
  S   S124      1.0  0.81972  0.30204  0.52354  1.0000
  C   C349      1.0  0.51698  0.19511  0.42762  1.0000
  C   C350      1.0  0.79931  0.39943  0.53113  1.0000
  C   C351      1.0  0.80276  0.40214  0.50060  1.0000
  C   C352      1.0  0.81020  0.45635  0.50275  1.0000
  C   C353      1.0  0.80672  0.45362  0.53325  1.0000
  C   C354      1.0  0.80169  0.42542  0.54739  1.0000
  H   H345      1.0  0.80857  0.47350  0.54602  1.0000
  H   H346      1.0  0.79941  0.42365  0.57104  1.0000
  H   H347      1.0  0.62591  0.41602  0.56200  1.0000
  H   H348      1.0  0.58565  0.37055  0.53235  1.0000
  C   C355      1.0  0.65251  0.24230  0.48627  1.0000
  C   C356      1.0  0.64386  0.22945  0.51462  1.0000
  C   C357      1.0  0.61473  0.22430  0.52764  1.0000
  H   H349      1.0  0.65896  0.22228  0.52604  1.0000
  H   H350      1.0  0.60755  0.21315  0.54910  1.0000
  C   C358      1.0  0.82640  0.23625  0.65749  1.0000
  C   C359      1.0  0.82099  0.20906  0.64158  1.0000
  C   C360      1.0  0.80879  0.20442  0.61292  1.0000
  C   C361      1.0  0.80197  0.22689  0.59982  1.0000
  C   C362      1.0  0.80834  0.25454  0.61537  1.0000
  C   C363      1.0  0.82039  0.25910  0.64405  1.0000
  H   H351      1.0  0.82561  0.19135  0.65158  1.0000
  H   H352      1.0  0.80404  0.18298  0.60105  1.0000
  H   H353      1.0  0.80325  0.27206  0.60563  1.0000
  C   C364      1.0  0.70344  0.34030  0.53626  1.0000
  H   H354      1.0  0.66510  0.29850  0.51589  1.0000
  H   H355      1.0  0.78175  0.32416  0.37694  1.0000
  C   C365      1.0  0.71611  0.42391  0.53579  1.0000
  C   C366      1.0  0.71637  0.37317  0.54146  1.0000
  H   H356      1.0  0.66379  0.38660  0.50490  1.0000
  H   H357      1.0  0.70340  0.42716  0.55498  1.0000
  C   C367      1.0  0.67555  0.32402  0.51975  1.0000
  H   H358      1.0  0.71350  0.43671  0.51665  1.0000
  S   S125      1.0  0.81777  0.49194  0.48453  1.0000
  N   N28       1.0  0.87157  0.26860  0.49397  1.0000
  C   C368      1.0  0.84945  0.24647  0.51326  1.0000
  C   C369      1.0  0.87506  0.25960  0.46628  1.0000
  C   C370      1.0  0.83011  0.21437  0.50493  1.0000
  C   C371      1.0  0.85628  0.22766  0.45730  1.0000
  C   C372      1.0  0.83355  0.20498  0.47676  1.0000
  C   C373      1.0  0.89117  0.30243  0.50238  1.0000
  H   H359      1.0  0.84629  0.25352  0.53516  1.0000
  H   H360      1.0  0.89175  0.27739  0.45065  1.0000
  H   H361      1.0  0.81228  0.19706  0.52022  1.0000
  H   H362      1.0  0.85867  0.22083  0.43508  1.0000
  H   H363      1.0  0.81835  0.18028  0.46989  1.0000
  H   H364      1.0  0.88817  0.30611  0.52606  1.0000
  H   H365      1.0  0.91716  0.31107  0.49801  1.0000
  H   H366      1.0  0.88385  0.31738  0.48953  1.0000
  H   H367      1.0  0.82455  0.28025  0.65613  1.0000
  C   C374      1.0  0.67508  0.37374  0.51370  1.0000
  C   C375      1.0  0.66111  0.34074  0.50847  1.0000
  C   C376      1.0  0.75240  0.22696  0.35991  1.0000
  H   H368      1.0  0.74228  0.43577  0.54041  1.0000
  N   N29       1.0  0.70256  0.38958  0.52974  1.0000
  C   C377      1.0  0.74340  0.25994  0.40575  1.0000
  C   C378      1.0  0.77322  0.25998  0.36356  1.0000
  H   H369      1.0  0.73753  0.38538  0.55494  1.0000
  H   H370      1.0  0.63922  0.32829  0.49579  1.0000
  N   N30       1.0  0.76883  0.27591  0.38653  1.0000
  C   C379      1.0  0.72686  0.21035  0.37983  1.0000
  H   H371      1.0  0.53799  0.20706  0.41318  1.0000
  H   H372      1.0  0.81558  0.31753  0.38230  1.0000
  H   H373      1.0  0.73941  0.27261  0.42362  1.0000
  C   C380      1.0  0.52536  0.24546  0.60099  1.0000
  C   C381      1.0  0.74295  0.14771  0.65703  1.0000
  H   H374      1.0  0.54500  0.19641  0.46494  1.0000
  H   H375      1.0  0.71083  0.18465  0.37751  1.0000
  H   H376      1.0  0.79257  0.31780  0.41315  1.0000
  C   C382      1.0  0.72219  0.22692  0.40284  1.0000
  C   C383      1.0  0.79064  0.31059  0.38975  1.0000
  H   H377      1.0  0.70234  0.21438  0.41848  1.0000
  C   C384      1.0  0.73542  0.16780  0.64083  1.0000
  H   H378      1.0  0.74047  0.12615  0.64686  1.0000
  H   H379      1.0  0.54408  0.29646  0.60312  1.0000
  C   C385      1.0  0.73991  0.19633  0.65326  1.0000
  C   C386      1.0  0.52853  0.27345  0.61372  1.0000
  H   H380      1.0  0.86724  0.26824  0.34453  1.0000
  H   H381      1.0  0.73561  0.21283  0.64044  1.0000
  H   H382      1.0  0.53861  0.31475  0.66256  1.0000
  H   H383      1.0  0.79346  0.27254  0.34837  1.0000
  C   C387      1.0  0.52117  0.18931  0.45683  1.0000
  H   H384      1.0  0.53863  0.24680  0.58100  1.0000
  H   H385      1.0  0.51415  0.31722  0.63383  1.0000
  C   C388      1.0  0.51513  0.30159  0.65132  1.0000
  H   H386      1.0  0.75673  0.21423  0.34224  1.0000
  Fe  Fe62      1.0  0.90121  0.19520  0.74601  1.0000
  S   S126      1.0  0.89285  0.23646  0.75485  1.0000
  S   S127      1.0  0.95104  0.20024  0.73853  1.0000
  Fe  Fe63      1.0  0.82902  0.14515  0.75227  1.0000
  S   S128      1.0  0.81613  0.18377  0.76211  1.0000
  S   S129      1.0  0.78464  0.09455  0.74971  1.0000
  Fe  Fe64      1.0  0.85035  0.21133  0.72488  1.0000
  S   S130      1.0  0.83782  0.24156  0.69488  1.0000
  Fe  Fe65      1.0  0.85923  0.20569  0.79124  1.0000
  S   S131      1.0  0.86703  0.23088  0.83556  1.0000
  S   S132      1.0  0.86087  0.17181  0.71325  1.0000
  S   S133      1.0  0.86999  0.16538  0.78421  1.0000
  N   N31       1.0  0.84609  0.31177  0.88239  1.0000
  H   H387      1.0  0.63488  0.24623  0.95162  1.0000
  N   N32       1.0  0.70479  0.15976  0.99242  1.0000
  C   C389      1.0  0.00084  0.19759  0.80243  1.0000
  H   H388      1.0  0.82502  0.01731  0.75000  1.0000
  Fe  Fe66      1.0  0.77546  0.24986  0.97200  1.0000
  S   S134      1.0  0.76302  0.21659  0.93268  1.0000
  S   S135      1.0  0.75257  0.28085  0.97321  1.0000
  H   H389      1.0  0.72516  0.12899  0.99056  1.0000
  H   H390      1.0  0.84054  0.28344  0.84435  1.0000
  H   H391      1.0  0.75833  0.13492  0.72487  1.0000
  H   H392      1.0  0.75304  0.17126  0.98351  1.0000
  C   C390      1.0  0.97102  0.26473  0.82583  1.0000
  H   H393      1.0  0.80612  0.46268  0.96854  1.0000
  S   S136      1.0  0.81510  0.36539  0.96313  1.0000
  H   H394      1.0  0.99823  0.18227  0.82163  1.0000
  Fe  Fe67      1.0  0.80034  0.31987  0.98896  1.0000
  N   N33       1.0  0.99075  0.22093  0.81048  1.0000
  C   C391      1.0  0.75168  0.20436  0.68163  1.0000
  S   S137      1.0  0.82423  0.28971  0.98460  1.0000
  H   H395      1.0  0.69683  0.17580  0.95141  1.0000
  H   H396      1.0  0.75346  0.27496  0.88132  1.0000
  S   S138      1.0  0.52715  0.28529  0.96131  1.0000
  C   C392      1.0  0.63519  0.24873  0.97521  1.0000
  H   H397      1.0  0.89376  0.35076  0.87665  1.0000
  C   C393      1.0  0.60869  0.24783  0.98989  1.0000
  C   C394      1.0  0.83758  0.22429  0.86302  1.0000
  C   C395      1.0  0.84786  0.24054  0.88984  1.0000
  C   C396      1.0  0.82536  0.23832  0.91141  1.0000
  C   C397      1.0  0.79225  0.21939  0.90653  1.0000
  C   C398      1.0  0.78194  0.20248  0.88001  1.0000
  C   C399      1.0  0.80447  0.20506  0.85826  1.0000
  H   H398      1.0  0.87342  0.25519  0.89386  1.0000
  H   H399      1.0  0.83365  0.25115  0.93183  1.0000
  H   H400      1.0  0.75639  0.18761  0.87609  1.0000
  H   H401      1.0  0.79623  0.19238  0.83775  1.0000
  C   C400      1.0  0.78118  0.05579  0.75192  1.0000
  C   C401      1.0  0.75023  0.02835  0.75437  1.0000
  Fe  Fe68      1.0  0.53559  0.31596  0.00103  1.0000
  H   H402      1.0  0.78588  0.31561  0.91880  1.0000
  C   C402      1.0  0.80808  0.05151  0.75048  1.0000
  H   H403      1.0  0.72924  0.03132  0.75565  1.0000
  H   H404      1.0  0.83203  0.07228  0.74855  1.0000
  C   C403      1.0  0.99072  0.26555  0.74944  1.0000
  C   C404      1.0  0.98877  0.23639  0.74174  1.0000
  S   S139      1.0  0.57474  0.24129  0.96973  1.0000
  H   H405      1.0  0.96887  0.26686  0.75206  1.0000
  Fe  Fe69      1.0  0.54113  0.25658  0.99033  1.0000
  C   C405      1.0  0.79514  0.27715  0.85998  1.0000
  H   H406      1.0  0.76968  0.19098  0.71862  1.0000
  C   C406      1.0  0.83500  0.46104  0.00345  1.0000
  C   C407      1.0  0.82869  0.29075  0.86068  1.0000
  H   H407      1.0  0.79416  0.41001  0.94785  1.0000
  H   H408      1.0  0.78132  0.25941  0.84352  1.0000
  C   C408      1.0  0.83107  0.32097  0.90287  1.0000
  S   S140      1.0  0.76830  0.49670  0.98455  1.0000
  C   C409      1.0  0.79763  0.30824  0.90248  1.0000
  C   C410      1.0  0.83922  0.41234  0.00564  1.0000
  H   H409      1.0  0.61169  0.43474  0.98131  1.0000
  C   C411      1.0  0.95853  0.21114  0.81229  1.0000
  H   H410      1.0  0.84482  0.33806  0.91985  1.0000
  C   C412      1.0  0.94819  0.23287  0.81987  1.0000
  C   C413      1.0  0.81513  0.44865  0.97911  1.0000
  H   H411      1.0  0.94065  0.18662  0.80687  1.0000
  C   C414      1.0  0.69118  0.17262  0.97473  1.0000
  H   H412      1.0  0.72494  0.14686  0.95610  1.0000
  C   C415      1.0  0.82043  0.40057  0.98060  1.0000
  C   C416      1.0  0.77953  0.28579  0.88120  1.0000
  C   C417      1.0  0.00385  0.27442  0.82438  1.0000
  H   H413      1.0  0.88933  0.31173  0.86916  1.0000
  C   C418      1.0  0.75896  0.18372  0.69718  1.0000
  H   H414      1.0  0.65979  0.19297  0.97248  1.0000
  H   H415      1.0  0.68229  0.25341  0.97935  1.0000
  C   C419      1.0  0.80399  0.02023  0.75127  1.0000
  C   C420      1.0  0.88111  0.32511  0.88360  1.0000
  H   H416      1.0  0.75077  0.11003  0.69355  1.0000
  C   C421      1.0  0.76381  0.13541  0.70103  1.0000
  H   H417      1.0  0.88819  0.32324  0.90630  1.0000
  C   C422      1.0  0.72803  0.15118  0.98011  1.0000
  C   C423      1.0  0.80835  0.41878  0.96744  1.0000
  H   H418      1.0  0.75687  0.22724  0.69096  1.0000
  H   H419      1.0  0.98584  0.18211  0.78423  1.0000
  H   H420      1.0  0.92264  0.22516  0.82062  1.0000
  C   C424      1.0  0.67034  0.18254  0.98650  1.0000
  H   H421      1.0  0.52147  0.19443  0.91671  1.0000
  C   C425      1.0  0.66208  0.25280  0.99089  1.0000
  N   N34       1.0  0.75428  0.15569  0.68493  1.0000
  H   H422      1.0  0.79015  0.14485  0.69811  1.0000
  H   H423      1.0  0.96320  0.28188  0.83113  1.0000
  H   H424      1.0  0.67026  0.32227  0.98552  1.0000
  H   H425      1.0  0.65939  0.35280  0.99100  1.0000
  C   C426      1.0  0.66980  0.33933  0.00182  1.0000
  S   S141      1.0  0.56179  0.36990  0.99437  1.0000
  C   C427      1.0  0.62113  0.42474  0.99696  1.0000
  H   H426      1.0  0.66692  0.46883  0.00083  1.0000
  C   C428      1.0  0.60195  0.39269  0.00636  1.0000
  C   C429      1.0  0.65238  0.44408  0.00798  1.0000
  H   H427      1.0  0.69986  0.40371  0.00639  1.0000
  Fe  Fe70      1.0  0.89894  0.73630  0.24840  1.0000
  S   S142      1.0  0.88829  0.68616  0.25826  1.0000
  S   S143      1.0  0.94822  0.77450  0.23040  1.0000
  Fe  Fe71      1.0  0.82944  0.72048  0.26332  1.0000
  S   S144      1.0  0.81433  0.66886  0.27399  1.0000
  S   S145      1.0  0.78707  0.72962  0.27025  1.0000
  Fe  Fe72      1.0  0.86089  0.68880  0.29783  1.0000
  C   C430      1.0  0.66659  0.94986  0.29033  1.0000
  Fe  Fe73      1.0  0.84254  0.67041  0.23333  1.0000
  S   S146      1.0  0.82434  0.62637  0.20395  1.0000
  S   S147      1.0  0.87482  0.74055  0.28974  1.0000
  S   S148      1.0  0.85446  0.72045  0.22085  1.0000
  Fe  Fe74      1.0  0.67403  0.84830  0.22396  1.0000
  S   S149      1.0  0.72668  0.88408  0.21704  1.0000
  S   S150      1.0  0.64539  0.81286  0.18773  1.0000
  Fe  Fe75      1.0  0.67591  0.86563  0.28977  1.0000
  S   S151      1.0  0.72913  0.90195  0.28696  1.0000
  H   H428      1.0  0.90903  0.71529  0.18912  1.0000
  Fe  Fe76      1.0  0.71815  0.91821  0.24473  1.0000
  S   S152      1.0  0.72955  0.96929  0.23316  1.0000
  Fe  Fe77      1.0  0.73344  0.86465  0.25972  1.0000
  S   S153      1.0  0.77733  0.85747  0.26114  1.0000
  S   S154      1.0  0.66463  0.88347  0.24845  1.0000
  S   S155      1.0  0.68100  0.82711  0.26569  1.0000
  Fe  Fe78      1.0  0.79717  0.56949  0.03821  1.0000
  C   C431      1.0  0.64674  0.83062  0.05335  1.0000
  S   S156      1.0  0.81599  0.61606  0.06435  1.0000
  H   H429      1.0  0.84593  0.65550  0.01221  1.0000
  H   H430      1.0  0.77640  0.83337  0.19471  1.0000
  Fe  Fe79      1.0  0.54907  0.79860  0.04078  1.0000
  H   H431      1.0  0.79393  0.98950  0.25661  1.0000
  S   S157      1.0  0.57596  0.83374  0.07779  1.0000
  C   C432      1.0  0.62586  0.81916  0.15759  1.0000
  C   C433      1.0  0.60832  0.79365  0.13815  1.0000
  C   C434      1.0  0.59254  0.79751  0.11390  1.0000
  C   C435      1.0  0.59423  0.82707  0.10871  1.0000
  C   C436      1.0  0.61189  0.85263  0.12807  1.0000
  C   C437      1.0  0.62760  0.84874  0.15237  1.0000
  H   H432      1.0  0.60667  0.77062  0.14200  1.0000
  H   H433      1.0  0.57892  0.77754  0.09936  1.0000
  H   H434      1.0  0.61333  0.87558  0.12436  1.0000
  H   H435      1.0  0.64097  0.86860  0.16709  1.0000
  H   H436      1.0  0.81524  0.72895  0.32845  1.0000
  C   C438      1.0  0.78688  0.79466  0.19492  1.0000
  H   H437      1.0  0.98982  0.81533  0.30397  1.0000
  C   C439      1.0  0.98556  0.77857  0.24151  1.0000
  C   C440      1.0  0.71283  0.80210  0.20151  1.0000
  C   C441      1.0  0.98713  0.75994  0.26425  1.0000
  C   C442      1.0  0.88794  0.62138  0.16716  1.0000
  H   H438      1.0  0.96514  0.74184  0.27492  1.0000
  C   C443      1.0  0.81639  0.61829  0.10327  1.0000
  C   C444      1.0  0.80591  0.59096  0.12093  1.0000
  C   C445      1.0  0.80777  0.59386  0.15171  1.0000
  C   C446      1.0  0.82017  0.62405  0.16523  1.0000
  C   C447      1.0  0.83036  0.65139  0.14760  1.0000
  C   C448      1.0  0.82843  0.64847  0.11679  1.0000
  H   H439      1.0  0.79652  0.56757  0.11090  1.0000
  H   H440      1.0  0.79980  0.57256  0.16512  1.0000
  H   H441      1.0  0.83994  0.67475  0.15767  1.0000
  H   H442      1.0  0.83649  0.66975  0.10334  1.0000
  C   C449      1.0  0.78539  0.76584  0.26958  1.0000
  C   C450      1.0  0.75520  0.76407  0.27312  1.0000
  C   C451      1.0  0.75229  0.79187  0.27112  1.0000
  C   C452      1.0  0.77967  0.82189  0.26584  1.0000
  C   C453      1.0  0.80995  0.82374  0.26292  1.0000
  C   C454      1.0  0.81283  0.79589  0.26466  1.0000
  H   H443      1.0  0.73382  0.74095  0.27702  1.0000
  H   H444      1.0  0.72888  0.79007  0.27356  1.0000
  H   H445      1.0  0.83129  0.84686  0.25889  1.0000
  H   H446      1.0  0.83621  0.79769  0.26195  1.0000
  H   H447      1.0  0.68691  0.78387  0.20487  1.0000
  H   H448      1.0  0.81280  0.81050  0.19311  1.0000
  H   H449      1.0  0.94828  0.72956  0.17220  1.0000
  H   H450      1.0  0.93837  0.70731  0.20567  1.0000
  H   H451      1.0  0.87644  0.59862  0.17892  1.0000
  N   N35       1.0  0.91498  0.67914  0.16792  1.0000
  C   C455      1.0  0.71149  0.95636  0.32075  1.0000
  H   H452      1.0  0.65439  0.92485  0.29914  1.0000
  H   H453      1.0  0.69500  0.73962  0.20594  1.0000
  C   C456      1.0  0.91391  0.67990  0.13799  1.0000
  H   H454      1.0  0.89839  0.65184  0.09822  1.0000
  H   H455      1.0  0.72026  0.81884  0.22032  1.0000
  H   H456      1.0  0.66471  0.82413  0.04506  1.0000
  C   C457      1.0  0.92826  0.70921  0.18447  1.0000
  H   H457      1.0  0.65457  0.84181  0.07528  1.0000
  C   C458      1.0  0.74080  0.74162  0.20185  1.0000
  N   N36       1.0  0.73360  0.78773  0.19951  1.0000
  C   C459      1.0  0.72076  0.75519  0.20243  1.0000
  C   C460      1.0  0.76617  0.80744  0.19578  1.0000
  H   H458      1.0  0.62299  0.80835  0.05638  1.0000
  S   S158      1.0  0.56088  0.76158  0.02410  1.0000
  H   H459      1.0  0.78996  0.75144  0.19887  1.0000
  C   C461      1.0  0.90013  0.65134  0.12188  1.0000
  C   C462      1.0  0.90180  0.65037  0.18257  1.0000
  H   H460      1.0  0.99886  0.85459  0.26452  1.0000
  H   H461      1.0  0.63535  0.91830  0.03147  1.0000
  H   H462      1.0  0.90094  0.64959  0.20634  1.0000
  H   H463      1.0  0.71486  0.81572  0.18115  1.0000
  S   S159      1.0  0.78761  0.52100  0.05304  1.0000
  H   H464      1.0  0.92319  0.70262  0.12644  1.0000
  H   H465      1.0  0.73080  0.71597  0.20521  1.0000
  C   C463      1.0  0.88716  0.62194  0.13662  1.0000
  C   C464      1.0  0.77407  0.76155  0.19813  1.0000
  C   C465      1.0  0.55540  0.80188  0.34005  1.0000
  H   H466      1.0  0.87534  0.59959  0.12446  1.0000
  H   H467      1.0  0.64396  0.88381  0.06592  1.0000
  H   H468      1.0  0.65106  0.96042  0.29555  1.0000
  C   C466      1.0  0.71637  0.00150  0.29485  1.0000
  S   S160      1.0  0.75052  0.54903  0.01359  1.0000
  H   H469      1.0  0.76265  0.68621  0.32321  1.0000
  H   H470      1.0  0.57314  0.77048  0.32616  1.0000
  C   C467      1.0  0.64237  0.87855  0.04265  1.0000
  H   H471      1.0  0.56621  0.81818  0.32150  1.0000
  H   H472      1.0  0.66867  0.94844  0.26611  1.0000
  S   S161      1.0  0.64573  0.86619  0.32917  1.0000
  N   N37       1.0  0.69879  0.96969  0.30254  1.0000
  C   C468      1.0  0.74283  0.97487  0.33129  1.0000
  H   H473      1.0  0.79894  0.63213  0.33820  1.0000
  N   N38       1.0  0.64347  0.85215  0.03269  1.0000
  Fe  Fe80      1.0  0.81285  0.51981  0.01163  1.0000
  C   C469      1.0  0.63733  0.89810  0.02325  1.0000
  H   H474      1.0  0.69768  0.93112  0.32679  1.0000
  H   H475      1.0  0.85847  0.66701  0.66708  1.0000
  H   H476      1.0  0.52800  0.70431  0.58053  1.0000
  Fe  Fe81      1.0  0.76891  0.56144  0.47768  1.0000
  S   S162      1.0  0.76059  0.58000  0.43442  1.0000
  S   S163      1.0  0.74781  0.56453  0.52140  1.0000
  Fe  Fe82      1.0  0.55469  0.77926  0.47932  1.0000
  S   S164      1.0  0.58732  0.77723  0.44312  1.0000
  S   S165      1.0  0.55134  0.82251  0.49346  1.0000
  C   C470      1.0  0.63270  0.84288  0.36200  1.0000
  C   C471      1.0  0.61638  0.85065  0.38365  1.0000
  C   C472      1.0  0.60321  0.83142  0.40903  1.0000
  C   C473      1.0  0.60621  0.80413  0.41307  1.0000
  C   C474      1.0  0.62331  0.79687  0.39182  1.0000
  C   C475      1.0  0.63648  0.81610  0.36640  1.0000
  H   H477      1.0  0.81035  0.70892  0.62249  1.0000
  H   H478      1.0  0.59049  0.83754  0.42531  1.0000
  H   H479      1.0  0.62591  0.77590  0.39479  1.0000
  H   H480      1.0  0.55118  0.73522  0.37035  1.0000
  C   C476      1.0  0.83835  0.64753  0.36797  1.0000
  C   C477      1.0  0.84710  0.64390  0.39639  1.0000
  C   C478      1.0  0.82368  0.62299  0.41691  1.0000
  C   C479      1.0  0.79122  0.60555  0.40915  1.0000
  C   C480      1.0  0.78254  0.60886  0.38059  1.0000
  N   N39       1.0  0.78956  0.69398  0.36230  1.0000
  H   H481      1.0  0.87214  0.65751  0.40265  1.0000
  H   H482      1.0  0.83067  0.62070  0.43881  1.0000
  H   H483      1.0  0.75750  0.59521  0.37434  1.0000
  H   H484      1.0  0.81141  0.69526  0.40306  1.0000
  Fe  Fe83      1.0  0.79431  0.57244  0.54076  1.0000
  S   S166      1.0  0.81659  0.57303  0.49635  1.0000
  S   S167      1.0  0.82280  0.61465  0.57169  1.0000
  C   C481      1.0  0.79951  0.69250  0.64089  1.0000
  H   H485      1.0  0.64901  0.80984  0.35001  1.0000
  Fe  Fe84      1.0  0.54793  0.80362  0.53968  1.0000
  S   S168      1.0  0.55487  0.76250  0.52571  1.0000
  S   S169      1.0  0.56916  0.83439  0.58052  1.0000
  C   C482      1.0  0.63803  0.82945  0.64738  1.0000
  C   C483      1.0  0.63294  0.81381  0.62022  1.0000
  C   C484      1.0  0.61220  0.81528  0.59940  1.0000
  C   C485      1.0  0.59665  0.83288  0.60536  1.0000
  C   C486      1.0  0.60230  0.84913  0.63228  1.0000
  C   C487      1.0  0.62271  0.84730  0.65327  1.0000
  C   C488      1.0  0.72327  0.90787  0.66406  1.0000
  H   H486      1.0  0.60823  0.80277  0.57878  1.0000
  H   H487      1.0  0.59050  0.86296  0.63704  1.0000
  S   S170      1.0  0.86878  0.67421  0.34313  1.0000
  C   C489      1.0  0.82279  0.61431  0.61065  1.0000
  C   C490      1.0  0.80171  0.58708  0.62720  1.0000
  C   C491      1.0  0.80114  0.58870  0.65809  1.0000
  H   H488      1.0  0.76691  0.62153  0.60552  1.0000
  C   C492      1.0  0.84262  0.64470  0.65618  1.0000
  C   C493      1.0  0.84327  0.64304  0.62535  1.0000
  H   H489      1.0  0.78570  0.56484  0.61618  1.0000
  C   C494      1.0  0.54699  0.75528  0.36740  1.0000
  C   C495      1.0  0.86375  0.55457  0.43412  1.0000
  H   H490      1.0  0.85967  0.66423  0.61277  1.0000
  H   H491      1.0  0.71215  0.62222  0.39532  1.0000
  C   C496      1.0  0.53079  0.76262  0.38921  1.0000
  H   H492      1.0  0.52260  0.74796  0.40899  1.0000
  C   C497      1.0  0.77581  0.64784  0.60620  1.0000
  N   N40       1.0  0.78145  0.66007  0.63630  1.0000
  C   C498      1.0  0.76772  0.63933  0.65951  1.0000
  H   H493      1.0  0.52796  0.80732  0.42882  1.0000
  C   C499      1.0  0.78950  0.68396  0.39037  1.0000
  C   C500      1.0  0.73786  0.89045  0.65411  1.0000
  H   H494      1.0  0.69744  0.89764  0.66144  1.0000
  N   N41       1.0  0.84020  0.55290  0.41297  1.0000
  Fe  Fe85      1.0  0.79454  0.51959  0.50303  1.0000
  H   H495      1.0  0.64479  0.80006  0.61535  1.0000
  H   H496      1.0  0.86396  0.53148  0.43434  1.0000
  C   C501      1.0  0.73371  0.64266  0.38612  1.0000
  H   H497      1.0  0.53699  0.82995  0.36049  1.0000
  H   H498      1.0  0.82955  0.74145  0.36484  1.0000
  H   H499      1.0  0.87566  0.58785  0.38372  1.0000
  C   C502      1.0  0.80595  0.62978  0.36008  1.0000
  C   C503      1.0  0.55310  0.76467  0.64429  1.0000
  S   S171      1.0  0.77644  0.51980  0.54874  1.0000
  H   H500      1.0  0.75387  0.61357  0.65600  1.0000
  H   H501      1.0  0.77726  0.54674  0.35734  1.0000
  C   C504      1.0  0.85025  0.57112  0.38786  1.0000
  C   C505      1.0  0.73409  0.65279  0.35737  1.0000
  H   H502      1.0  0.79868  0.65946  0.59304  1.0000
  H   H503      1.0  0.75774  0.65246  0.59563  1.0000
  C   C506      1.0  0.82149  0.61753  0.67274  1.0000
  C   C507      1.0  0.79498  0.54799  0.37264  1.0000
  H   H504      1.0  0.85705  0.55847  0.45658  1.0000
  H   H505      1.0  0.61348  0.87142  0.38056  1.0000
  H   H506      1.0  0.78206  0.88877  0.65178  1.0000
  C   C508      1.0  0.52034  0.73961  0.60310  1.0000
  C   C509      1.0  0.81937  0.72055  0.34981  1.0000
  H   H507      1.0  0.76178  0.64982  0.42479  1.0000
  C   C510      1.0  0.53901  0.80849  0.36227  1.0000
  C   C511      1.0  0.76152  0.65836  0.40279  1.0000
  C   C512      1.0  0.53530  0.72120  0.59858  1.0000
  H   H508      1.0  0.83579  0.58401  0.34779  1.0000
  C   C513      1.0  0.77072  0.90255  0.65859  1.0000
  H   H509      1.0  0.72348  0.86721  0.64381  1.0000
  H   H510      1.0  0.83740  0.71262  0.34627  1.0000
  Fe  Fe86      1.0  0.73134  0.51184  0.52639  1.0000
  H   H511      1.0  0.57191  0.71121  0.61369  1.0000
  C   C514      1.0  0.82782  0.56889  0.36729  1.0000
  C   C515      1.0  0.80437  0.70492  0.66936  1.0000
  C   C516      1.0  0.56860  0.74665  0.64043  1.0000
  H   H512      1.0  0.88854  0.57452  0.42915  1.0000
  C   C517      1.0  0.80805  0.53232  0.41830  1.0000
  H   H513      1.0  0.75943  0.51427  0.40331  1.0000
  N   N42       1.0  0.52678  0.78880  0.38636  1.0000
  C   C518      1.0  0.55976  0.72496  0.61727  1.0000
  N   N43       1.0  0.52973  0.76143  0.62538  1.0000
  H   H514      1.0  0.78466  0.56754  0.67066  1.0000
  H   H515      1.0  0.53044  0.80430  0.63926  1.0000
  C   C519      1.0  0.78496  0.52972  0.39838  1.0000
  H   H516      1.0  0.75306  0.96391  0.34504  1.0000
  H   H517      1.0  0.58799  0.75025  0.65485  1.0000
  C   C520      1.0  0.76243  0.67864  0.34569  1.0000
  H   H518      1.0  0.56065  0.78201  0.66194  1.0000
  C   C521      1.0  0.78867  0.93204  0.67258  1.0000
  C   C522      1.0  0.51363  0.78039  0.62980  1.0000
  H   H519      1.0  0.80008  0.51797  0.43819  1.0000
  H   H520      1.0  0.81877  0.73062  0.67314  1.0000
  H   H521      1.0  0.70492  0.95057  0.67476  1.0000
  S   S172      1.0  0.66319  0.82523  0.67314  1.0000
  H   H522      1.0  0.62639  0.85950  0.67404  1.0000
  H   H523      1.0  0.71271  0.64053  0.34407  1.0000
  S   S173      1.0  0.74825  0.50794  0.48140  1.0000
  C   C523      1.0  0.55938  0.77510  0.34269  1.0000
  Fe  Fe87      1.0  0.91430  0.72496  0.74879  1.0000
  S   S174      1.0  0.88954  0.67384  0.76517  1.0000
  S   S175      1.0  0.96499  0.75130  0.72830  1.0000
  Fe  Fe88      1.0  0.85189  0.72900  0.75474  1.0000
  S   S176      1.0  0.82271  0.67829  0.77225  1.0000
  S   S177      1.0  0.83560  0.76307  0.73703  1.0000
  Fe  Fe89      1.0  0.86640  0.69027  0.79932  1.0000
  S   S178      1.0  0.86989  0.67737  0.84685  1.0000
  Fe  Fe90      1.0  0.84792  0.66543  0.73694  1.0000
  S   S179      1.0  0.81852  0.61913  0.71154  1.0000
  S   S180      1.0  0.89402  0.74245  0.78445  1.0000
  S   S181      1.0  0.87414  0.71494  0.71786  1.0000
  Fe  Fe91      1.0  0.67952  0.84532  0.71926  1.0000
  S   S182      1.0  0.73238  0.86587  0.72892  1.0000
  C   C524      1.0  0.83725  0.67912  0.94435  1.0000
  Fe  Fe92      1.0  0.66346  0.85053  0.78397  1.0000
  S   S183      1.0  0.71500  0.87174  0.79768  1.0000
  S   S184      1.0  0.62011  0.83788  0.81431  1.0000
  Fe  Fe93      1.0  0.72712  0.90224  0.75666  1.0000
  S   S185      1.0  0.76962  0.95399  0.75343  1.0000
  Fe  Fe94      1.0  0.71636  0.83403  0.76888  1.0000
  S   S186      1.0  0.73360  0.80120  0.78830  1.0000
  S   S187      1.0  0.67518  0.88350  0.74448  1.0000
  S   S188      1.0  0.66380  0.81107  0.75755  1.0000
  C   C525      1.0  0.77307  0.99281  0.75382  1.0000
  C   C526      1.0  0.97416  0.82554  0.73558  1.0000
  Fe  Fe95      1.0  0.77969  0.54750  0.97473  1.0000
  S   S189      1.0  0.77084  0.56177  0.92945  1.0000
  H   H524      1.0  0.87840  0.69349  0.97191  1.0000
  Fe  Fe96      1.0  0.55880  0.77939  0.97874  1.0000
  S   S190      1.0  0.60042  0.78955  0.94680  1.0000
  H   H525      1.0  0.79517  0.74399  0.79073  1.0000
  C   C527      1.0  0.61701  0.82935  0.85250  1.0000
  C   C528      1.0  0.64190  0.82877  0.86772  1.0000
  C   C529      1.0  0.63692  0.81800  0.89710  1.0000
  C   C530      1.0  0.60708  0.80769  0.91156  1.0000
  C   C531      1.0  0.58281  0.80991  0.89688  1.0000
  C   C532      1.0  0.58778  0.82066  0.86749  1.0000
  H   H526      1.0  0.66464  0.83572  0.85660  1.0000
  H   H527      1.0  0.65601  0.81674  0.90836  1.0000
  H   H528      1.0  0.55979  0.80227  0.90777  1.0000
  H   H529      1.0  0.56847  0.82132  0.85601  1.0000
  H   H530      1.0  0.98486  0.85531  0.80469  1.0000
  H   H531      1.0  0.72224  0.97639  0.75789  1.0000
  C   C533      1.0  0.92616  0.80037  0.70516  1.0000
  C   C534      1.0  0.94024  0.83450  0.78100  1.0000
  C   C535      1.0  0.99006  0.84017  0.76144  1.0000
  H   H532      1.0  0.93280  0.78211  0.69821  1.0000
  H   H533      1.0  0.98336  0.77206  0.78904  1.0000
  H   H534      1.0  0.81743  0.61342  0.78679  1.0000
  C   C536      1.0  0.84186  0.64490  0.86922  1.0000
  C   C537      1.0  0.85263  0.63826  0.89543  1.0000
  C   C538      1.0  0.83128  0.61283  0.91407  1.0000
  C   C539      1.0  0.79881  0.59393  0.90678  1.0000
  C   C540      1.0  0.78799  0.60063  0.88064  1.0000
  C   C541      1.0  0.80941  0.62590  0.86186  1.0000
  H   H535      1.0  0.87771  0.65283  0.90129  1.0000
  H   H536      1.0  0.83994  0.60794  0.93410  1.0000
  H   H537      1.0  0.76288  0.58612  0.87484  1.0000
  H   H538      1.0  0.80075  0.63085  0.84187  1.0000
  C   C542      1.0  0.80692  0.77305  0.75169  1.0000
  C   C543      1.0  0.80056  0.79447  0.73598  1.0000
  C   C544      1.0  0.77819  0.80329  0.74674  1.0000
  C   C545      1.0  0.76191  0.79079  0.77346  1.0000
  C   C546      1.0  0.76824  0.76932  0.78914  1.0000
  C   C547      1.0  0.79057  0.76045  0.77835  1.0000
  H   H539      1.0  0.81305  0.80440  0.71534  1.0000
  H   H540      1.0  0.77361  0.81982  0.73445  1.0000
  H   H541      1.0  0.75582  0.75953  0.80983  1.0000
  N   N44       1.0  0.60337  0.75174  0.85299  1.0000
  C   C548      1.0  0.61513  0.74605  0.87807  1.0000
  C   C549      1.0  0.62264  0.76353  0.82843  1.0000
  C   C550      1.0  0.64726  0.75300  0.87918  1.0000
  C   C551      1.0  0.65475  0.77049  0.82876  1.0000
  C   C552      1.0  0.66715  0.76535  0.85430  1.0000
  C   C553      1.0  0.56959  0.74400  0.85204  1.0000
  H   H542      1.0  0.60002  0.73721  0.89772  1.0000
  H   H543      1.0  0.61352  0.76851  0.80866  1.0000
  H   H544      1.0  0.65674  0.74935  0.89934  1.0000
  H   H545      1.0  0.67016  0.78024  0.80947  1.0000
  H   H546      1.0  0.69226  0.77127  0.85469  1.0000
  H   H547      1.0  0.55421  0.71901  0.84430  1.0000
  C   C554      1.0  0.83442  0.65662  0.99226  1.0000
  H   H548      1.0  0.56693  0.76085  0.83713  1.0000
  H   H549      1.0  0.84701  0.55995  0.88687  1.0000
  H   H550      1.0  0.56077  0.74655  0.87406  1.0000
  C   C555      1.0  0.63982  0.84464  0.00355  1.0000
  H   H551      1.0  0.79246  0.65885  0.92153  1.0000
  H   H552      1.0  0.85115  0.69528  0.92645  1.0000
  N   N45       1.0  0.94204  0.81536  0.73265  1.0000
  C   C556      1.0  0.97289  0.84444  0.78435  1.0000
  C   C557      1.0  0.63524  0.86396  0.98347  1.0000
  C   C558      1.0  0.00507  0.78142  0.77559  1.0000
  C   C559      1.0  0.92515  0.82012  0.75474  1.0000
  H   H553      1.0  0.63192  0.85764  0.96042  1.0000
  H   H554      1.0  0.87794  0.62055  0.81036  1.0000
  H   H555      1.0  0.79984  0.57296  0.77293  1.0000
  H   H556      1.0  0.79157  0.53027  0.86733  1.0000
  H   H557      1.0  0.78733  0.62014  0.00673  1.0000
  H   H558      1.0  0.89941  0.78771  0.70761  1.0000
  H   H559      1.0  0.84185  0.60016  0.76724  1.0000
  C   C560      1.0  0.82154  0.59281  0.78330  1.0000
  N   N46       1.0  0.82871  0.58294  0.81127  1.0000
  C   C561      1.0  0.80458  0.55818  0.82712  1.0000
  C   C562      1.0  0.85918  0.59992  0.82222  1.0000
  C   C563      1.0  0.81090  0.54930  0.85436  1.0000
  C   C564      1.0  0.86638  0.59157  0.84929  1.0000
  C   C565      1.0  0.84205  0.56605  0.86540  1.0000
  H   H560      1.0  0.78014  0.54550  0.81901  1.0000
  H   H561      1.0  0.98750  0.82157  0.71812  1.0000
  C   C566      1.0  0.80120  0.63642  0.98893  1.0000
  H   H562      1.0  0.89040  0.60554  0.85814  1.0000
  H   H563      1.0  0.92657  0.83764  0.79865  1.0000
  H   H564      1.0  0.93364  0.81894  0.68773  1.0000
  C   C567      1.0  0.85254  0.67798  0.96974  1.0000
  N   N47       1.0  0.78654  0.63704  0.96361  1.0000
  H   H565      1.0  0.89974  0.81238  0.75237  1.0000
  C   C568      1.0  0.00279  0.77397  0.74574  1.0000
  S   S191      1.0  0.54996  0.81849  0.99557  1.0000
  C   C569      1.0  0.80401  0.65839  0.94166  1.0000
  H   H566      1.0  0.74331  0.59269  0.97237  1.0000
  C   C570      1.0  0.74617  0.99709  0.75555  1.0000
  C   C571      1.0  0.77226  0.65092  0.68824  1.0000
  C   C572      1.0  0.72515  0.95415  0.68889  1.0000
  C   C573      1.0  0.75167  0.61580  0.96051  1.0000
  H   H567      1.0  0.63984  0.82326  0.99575  1.0000
  C   C574      1.0  0.63379  0.89073  0.99346  1.0000
  H   H568      1.0  0.78740  0.97165  0.69326  1.0000
  H   H569      1.0  0.71563  0.94525  0.71136  1.0000
  H   H570      1.0  0.76230  0.63430  0.70662  1.0000
  H   H571      1.0  0.79442  0.69330  0.71529  1.0000
  C   C575      1.0  0.79062  0.68393  0.69312  1.0000
  C   C576      1.0  0.77343  0.94909  0.68177  1.0000
  H   H572      1.0  0.74230  0.98046  0.69025  1.0000
  H   H573      1.0  0.74540  0.60923  0.93717  1.0000
  H   H574      1.0  0.73843  0.62766  0.96924  1.0000
  S   S192      1.0  0.82665  0.57052  0.99860  1.0000
  H   H575      1.0  0.62932  0.90533  0.97820  1.0000
  N   N48       1.0  0.74114  0.93697  0.67740  1.0000
  H   H576      1.0  0.81404  0.94136  0.67693  1.0000
