data_image0
_chemical_formula_structural       FeS2FeS2FeSFeS3H2CHSC2HC3H4CHNHC4H2C3H2C4NC2H2NH2C2H2NHC2H3C3H2C2HCH3C3H4C2H2C3HCFeS2FeS2FeSFeS3HSC6H2CNCNC2H3C3H2C3H4C6H2C2HCH5CNCH3CHC2H7CFeCH2CH3FeS2FeS2FeSFeS3HSCH2C3H2C6H2CNCHC2HC3H2FeH2CHCNC2HCH3CHCH2C3H2C2HNCHCHFeS2FeS2FeSFeS3H2C8HC6H4C2NHC4H7CH3C2HCHNCHC2H3CNH3C3HS2C2HCHCHC2FeHCHS3CHFeHCH3SFeC3H4C2HSC2SFeH2NCHCHC3HCHSH2CSH3CSHFeC2SC2NCHC2HC2FeHCH2CNCHCH3C2HFeCSCHSH3CSCHCH3Fe2S2FeS2FeSFeS3HNCHFeSHC2H3C6H4CH3C3H2SHC3H2CHCH3NSCNC3SHCHCHCH2C3H6C5FeS2FeS2FeSFeS3FeS2HC2NHC6H5C3H4CHC2H3C3HCH2SH5CFeCHC2HCH2CHCFeS2FeS2FeSFeS3HFeSHC2HC2H3CH3C6H5CH3CSHNFeCSHC2HSCHC2H2CHCHCHFeS2FeS2FeSFeS3H2FeCSCHC2H2C2HC2HC9H4C2NH6NS2HCHCH2C2H3CH2C2NCHC2HCH
_chemical_formula_sum              "Fe48 S96 H288 C288 N24"
_cell_length_a       38.298
_cell_length_b       38.1656
_cell_length_c       34.8908
_cell_angle_alpha    94.8342
_cell_angle_beta     89.3724
_cell_angle_gamma    89.794

_space_group_name_H-M_alt    "P 1"
_space_group_IT_number       1

loop_
  _space_group_symop_operation_xyz
  'x, y, z'

loop_
  _atom_site_type_symbol
  _atom_site_label
  _atom_site_symmetry_multiplicity
  _atom_site_fract_x
  _atom_site_fract_y
  _atom_site_fract_z
  _atom_site_occupancy
  Fe  Fe1       1.0  0.14582  0.16803  0.29730  1.0000
  S   S1        1.0  0.16177  0.22414  0.30925  1.0000
  S   S2        1.0  0.09152  0.14770  0.28481  1.0000
  Fe  Fe2       1.0  0.21930  0.14098  0.30773  1.0000
  S   S3        1.0  0.24135  0.19558  0.32008  1.0000
  S   S4        1.0  0.25046  0.09150  0.31445  1.0000
  Fe  Fe3       1.0  0.19318  0.20459  0.35752  1.0000
  S   S5        1.0  0.19184  0.23296  0.41777  1.0000
  Fe  Fe4       1.0  0.20836  0.21011  0.27025  1.0000
  S   S6        1.0  0.21675  0.24746  0.22225  1.0000
  S   S7        1.0  0.17368  0.14950  0.34797  1.0000
  S   S8        1.0  0.18989  0.15453  0.25555  1.0000
  H   H1        1.0  0.09264  0.26331  0.25348  1.0000
  H   H2        1.0  0.04794  0.26171  0.43589  1.0000
  C   C1        1.0  0.26740  0.11018  0.41926  1.0000
  H   H3        1.0  0.26229  0.08727  0.39946  1.0000
  S   S9        1.0  0.29992  0.34457  0.02354  1.0000
  C   C2        1.0  0.25030  0.25424  0.18756  1.0000
  C   C3        1.0  0.28425  0.24110  0.19040  1.0000
  H   H4        1.0  0.26957  0.08113  0.46957  1.0000
  C   C4        1.0  0.30316  0.27073  0.13371  1.0000
  C   C5        1.0  0.26892  0.28291  0.13011  1.0000
  C   C6        1.0  0.24284  0.27500  0.15706  1.0000
  H   H5        1.0  0.29055  0.22510  0.21356  1.0000
  H   H6        1.0  0.11089  0.24565  0.43661  1.0000
  H   H7        1.0  0.02964  0.25893  0.32176  1.0000
  H   H8        1.0  0.21671  0.28530  0.15436  1.0000
  C   C7        1.0  0.19299  0.21150  0.46101  1.0000
  H   H9        1.0  0.19163  0.15877  0.43380  1.0000
  N   N1        1.0  0.27900  0.16930  0.46969  1.0000
  H   H10       1.0  0.26621  0.14614  0.37509  1.0000
  C   C8        1.0  0.04337  0.18084  0.39006  1.0000
  C   C9        1.0  0.19295  0.05279  0.29099  1.0000
  C   C10       1.0  0.22531  0.05281  0.30913  1.0000
  C   C11       1.0  0.23840  0.02130  0.32154  1.0000
  H   H11       1.0  0.18257  0.07691  0.28138  1.0000
  H   H12       1.0  0.26338  0.02115  0.33568  1.0000
  C   C12       1.0  0.02136  0.15985  0.28881  1.0000
  C   C13       1.0  0.05457  0.17471  0.29397  1.0000
  C   C14       1.0  0.05755  0.21049  0.30581  1.0000
  H   H13       1.0  0.01890  0.13218  0.27954  1.0000
  H   H14       1.0  0.08306  0.22209  0.31008  1.0000
  C   C15       1.0  0.10296  0.19464  0.40698  1.0000
  C   C16       1.0  0.31043  0.24941  0.16378  1.0000
  C   C17       1.0  0.09915  0.16120  0.18910  1.0000
  C   C18       1.0  0.26948  0.14336  0.40550  1.0000
  N   N2        1.0  0.03267  0.21305  0.40634  1.0000
  C   C19       1.0  0.13169  0.22613  0.19555  1.0000
  C   C20       1.0  0.08150  0.19134  0.20470  1.0000
  H   H15       1.0  0.27594  0.19866  0.42034  1.0000
  H   H16       1.0  0.17700  0.19901  0.17017  1.0000
  N   N3        1.0  0.09790  0.22324  0.20796  1.0000
  H   H17       1.0  0.05495  0.18874  0.21520  1.0000
  H   H18       1.0  0.08726  0.14614  0.37583  1.0000
  C   C21       1.0  0.13361  0.16393  0.17636  1.0000
  C   C22       1.0  0.07987  0.25450  0.22589  1.0000
  H   H19       1.0  0.14495  0.25129  0.19868  1.0000
  H   H20       1.0  0.28439  0.00446  0.25634  1.0000
  N   N4        1.0  0.32856  0.35324  0.17271  1.0000
  H   H21       1.0  0.14786  0.14065  0.16497  1.0000
  C   C23       1.0  0.19350  0.17483  0.46072  1.0000
  C   C24       1.0  0.17425  0.02132  0.28432  1.0000
  H   H22       1.0  0.14950  0.02145  0.26965  1.0000
  H   H23       1.0  0.25024  0.38214  0.14378  1.0000
  H   H24       1.0  0.08084  0.27613  0.20650  1.0000
  C   C25       1.0  0.27531  0.17284  0.43122  1.0000
  C   C26       1.0  0.14997  0.19662  0.17934  1.0000
  C   C27       1.0  0.07869  0.17126  0.38985  1.0000
  H   H25       1.0  0.26277  0.29918  0.10713  1.0000
  H   H26       1.0  0.28931  0.41652  0.10349  1.0000
  C   C28       1.0  0.29309  0.35727  0.17104  1.0000
  C   C29       1.0  0.02733  0.23127  0.31244  1.0000
  H   H27       1.0  0.08650  0.13575  0.18817  1.0000
  C   C30       1.0  0.05640  0.23618  0.42302  1.0000
  H   H28       1.0  0.13039  0.18759  0.40729  1.0000
  H   H29       1.0  0.02478  0.16267  0.37617  1.0000
  H   H30       1.0  0.28203  0.00380  0.20444  1.0000
  C   C31       1.0  0.27837  0.37988  0.14600  1.0000
  C   C32       1.0  0.09189  0.22733  0.42359  1.0000
  C   C33       1.0  0.27772  0.13675  0.48340  1.0000
  H   H31       1.0  0.05192  0.24922  0.23223  1.0000
  H   H32       1.0  0.24414  0.01444  0.23449  1.0000
  H   H33       1.0  0.27592  0.34220  0.18828  1.0000
  H   H34       1.0  0.20001  0.13044  0.49446  1.0000
  C   C34       1.0  0.30021  0.39911  0.12342  1.0000
  C   C35       1.0  0.27159  0.10675  0.45846  1.0000
  H   H35       1.0  0.32376  0.31320  0.21206  1.0000
  H   H36       1.0  0.27066  0.22355  0.48729  1.0000
  C   C36       1.0  0.33087  0.48445  0.01914  1.0000
  C   C37       1.0  0.19822  0.15879  0.49524  1.0000
  C   C38       1.0  0.19508  0.23180  0.49647  1.0000
  H   H37       1.0  0.31377  0.20661  0.49653  1.0000
  C   C39       1.0  0.28548  0.20049  0.49611  1.0000
  Fe  Fe5       1.0  0.22434  0.19995  0.71735  1.0000
  S   S10       1.0  0.17395  0.18195  0.74260  1.0000
  S   S11       1.0  0.26870  0.22720  0.75194  1.0000
  Fe  Fe6       1.0  0.20403  0.17271  0.63404  1.0000
  S   S12       1.0  0.15255  0.15284  0.65410  1.0000
  S   S13       1.0  0.21790  0.15820  0.57063  1.0000
  Fe  Fe7       1.0  0.14889  0.20318  0.69150  1.0000
  S   S14       1.0  0.09862  0.23427  0.69367  1.0000
  Fe  Fe8       1.0  0.18184  0.13280  0.70296  1.0000
  S   S15       1.0  0.16417  0.08079  0.72273  1.0000
  S   S16       1.0  0.19861  0.22519  0.66833  1.0000
  S   S17       1.0  0.23413  0.14880  0.68097  1.0000
  H   H38       1.0  0.22411  0.36992  0.84774  1.0000
  S   S18       1.0  0.27754  0.29744  0.92503  1.0000
  C   C40       1.0  0.27746  0.27429  0.87832  1.0000
  C   C41       1.0  0.24675  0.25690  0.86554  1.0000
  C   C42       1.0  0.24390  0.24140  0.82744  1.0000
  C   C43       1.0  0.27173  0.24336  0.80136  1.0000
  C   C44       1.0  0.30261  0.26025  0.81429  1.0000
  C   C45       1.0  0.30554  0.27550  0.85248  1.0000
  H   H39       1.0  0.22479  0.25585  0.88517  1.0000
  H   H40       1.0  0.21996  0.22861  0.81807  1.0000
  C   C46       1.0  0.23266  0.10762  0.78797  1.0000
  N   N5        1.0  0.05106  0.10468  0.66759  1.0000
  C   C47       1.0  0.24311  0.01114  0.69640  1.0000
  N   N6        1.0  0.23591  0.06997  0.79300  1.0000
  C   C48       1.0  0.20243  0.17909  0.53043  1.0000
  C   C49       1.0  0.19978  0.21572  0.53105  1.0000
  H   H41       1.0  0.15831  0.26838  0.73905  1.0000
  H   H42       1.0  0.25930  0.33803  0.84404  1.0000
  H   H43       1.0  0.20321  0.23174  0.55783  1.0000
  C   C50       1.0  0.22322  0.04237  0.69946  1.0000
  C   C51       1.0  0.18829  0.04174  0.71156  1.0000
  C   C52       1.0  0.17295  0.00956  0.71866  1.0000
  H   H44       1.0  0.23525  0.06702  0.69381  1.0000
  H   H45       1.0  0.14594  0.00885  0.72800  1.0000
  C   C53       1.0  0.06271  0.18279  0.72843  1.0000
  C   C54       1.0  0.06059  0.21205  0.70699  1.0000
  C   C55       1.0  0.02771  0.22384  0.69597  1.0000
  H   H46       1.0  0.08789  0.17380  0.73746  1.0000
  H   H47       1.0  0.02591  0.24658  0.67956  1.0000
  H   H48       1.0  0.22458  0.33312  0.87732  1.0000
  H   H49       1.0  0.13184  0.28307  0.80363  1.0000
  C   C56       1.0  0.26730  0.05345  0.78542  1.0000
  C   C57       1.0  0.27066  0.01714  0.78774  1.0000
  C   C58       1.0  0.23062  0.34162  0.84823  1.0000
  C   C59       1.0  0.15824  0.29148  0.79761  1.0000
  C   C60       1.0  0.08272  0.09098  0.68436  1.0000
  C   C61       1.0  0.22582  0.31289  0.78283  1.0000
  H   H50       1.0  0.32436  0.26194  0.79449  1.0000
  H   H51       1.0  0.27653  0.19638  0.52588  1.0000
  C   C62       1.0  0.99924  0.17690  0.72734  1.0000
  C   C63       1.0  0.03210  0.16552  0.73888  1.0000
  H   H52       1.0  0.16605  0.31673  0.85426  1.0000
  C   C64       1.0  0.17771  0.31048  0.82602  1.0000
  H   H53       1.0  0.28970  0.06819  0.77647  1.0000
  H   H54       1.0  0.03387  0.14309  0.75578  1.0000
  H   H55       1.0  0.25473  0.12258  0.80171  1.0000
  H   H56       1.0  0.29520  0.00381  0.78035  1.0000
  H   H57       1.0  0.21937  0.28683  0.72603  1.0000
  C   C65       1.0  0.20713  0.29390  0.75383  1.0000
  N   N7        1.0  0.21113  0.32074  0.81847  1.0000
  C   C66       1.0  0.02347  0.14733  0.63083  1.0000
  H   H58       1.0  0.23250  0.11160  0.75680  1.0000
  H   H59       1.0  0.02540  0.17040  0.61479  1.0000
  H   H60       1.0  0.25255  0.32031  0.77696  1.0000
  C   C67       1.0  0.17311  0.28321  0.76129  1.0000
  H   H61       1.0  0.18673  0.99976  0.81182  1.0000
  C   C68       1.0  0.20727  0.05113  0.80276  1.0000
  C   C69       1.0  0.20976  0.01483  0.80551  1.0000
  H   H62       1.0  0.10463  0.08917  0.66312  1.0000
  H   H63       1.0  0.27045  0.01190  0.68840  1.0000
  H   H64       1.0  0.09067  0.10861  0.70971  1.0000
  H   H65       1.0  0.18195  0.06384  0.80684  1.0000
  H   H66       1.0  0.32377  0.45994  0.96197  1.0000
  H   H67       1.0  0.07888  0.06416  0.69384  1.0000
  H   H68       1.0  0.07847  0.14479  0.64078  1.0000
  C   C70       1.0  0.05344  0.13274  0.64574  1.0000
  Fe  Fe9       1.0  0.32048  0.32053  0.96577  1.0000
  C   C71       1.0  0.32619  0.48460  0.97944  1.0000
  H   H69       1.0  0.20800  0.11895  0.80086  1.0000
  H   H70       1.0  0.28008  0.13401  0.51401  1.0000
  C   C72       1.0  0.01915  0.09091  0.67575  1.0000
  H   H71       1.0  0.01695  0.06985  0.69465  1.0000
  H   H72       1.0  0.32925  0.28892  0.86163  1.0000
  H   H73       1.0  0.19443  0.26019  0.49709  1.0000
  Fe  Fe10      1.0  0.14766  0.82873  0.32209  1.0000
  S   S19       1.0  0.19765  0.80824  0.34563  1.0000
  S   S20       1.0  0.09871  0.79586  0.31976  1.0000
  Fe  Fe11      1.0  0.17923  0.89937  0.30812  1.0000
  S   S21       1.0  0.23144  0.88467  0.33039  1.0000
  S   S22       1.0  0.16421  0.95055  0.28432  1.0000
  Fe  Fe12      1.0  0.22343  0.83267  0.29569  1.0000
  S   S23       1.0  0.26928  0.80725  0.26063  1.0000
  Fe  Fe13      1.0  0.20104  0.86162  0.37820  1.0000
  S   S24       1.0  0.21376  0.87773  0.44115  1.0000
  S   S25       1.0  0.17303  0.84908  0.27017  1.0000
  S   S26       1.0  0.14924  0.88023  0.35774  1.0000
  H   H74       1.0  0.29506  0.88035  0.23919  1.0000
  S   S27       1.0  0.27717  0.72741  0.09234  1.0000
  C   C73       1.0  0.28344  0.93572  0.23621  1.0000
  H   H75       1.0  0.19702  0.76929  0.26077  1.0000
  H   H76       1.0  0.05483  0.89890  0.36942  1.0000
  C   C74       1.0  0.24273  0.88886  0.22011  1.0000
  C   C75       1.0  0.22144  0.69000  0.17195  1.0000
  C   C76       1.0  0.24845  0.71462  0.24251  1.0000
  H   H77       1.0  0.19862  0.73487  0.29308  1.0000
  H   H78       1.0  0.22975  0.96558  0.32463  1.0000
  C   C77       1.0  0.27713  0.75452  0.13654  1.0000
  C   C78       1.0  0.24521  0.76900  0.15089  1.0000
  C   C79       1.0  0.24258  0.78650  0.18811  1.0000
  C   C80       1.0  0.27191  0.78954  0.21170  1.0000
  C   C81       1.0  0.30410  0.77617  0.19690  1.0000
  C   C82       1.0  0.27575  0.89977  0.23242  1.0000
  H   H79       1.0  0.22211  0.76582  0.13337  1.0000
  H   H80       1.0  0.21762  0.79664  0.19883  1.0000
  C   C83       1.0  0.21776  0.91379  0.21207  1.0000
  N   N8        1.0  0.25877  0.96005  0.22824  1.0000
  C   C84       1.0  0.03455  0.82416  0.41113  1.0000
  H   H81       1.0  0.04739  0.80192  0.42245  1.0000
  C   C85       1.0  0.22634  0.94948  0.21608  1.0000
  C   C86       1.0  0.03907  0.87896  0.38167  1.0000
  H   H82       1.0  0.21579  0.80293  0.45436  1.0000
  C   C87       1.0  0.02785  0.80331  0.31180  1.0000
  C   C88       1.0  0.06091  0.81792  0.30602  1.0000
  C   C89       1.0  0.06335  0.85044  0.29052  1.0000
  H   H83       1.0  0.02586  0.77820  0.32389  1.0000
  H   H84       1.0  0.08869  0.86196  0.28600  1.0000
  Fe  Fe14      1.0  0.31976  0.70796  0.04829  1.0000
  H   H85       1.0  0.16391  0.73568  0.25920  1.0000
  H   H86       1.0  0.17336  0.71346  0.19355  1.0000
  C   C90       1.0  0.30677  0.75885  0.15954  1.0000
  H   H87       1.0  0.19159  0.90567  0.20374  1.0000
  C   C91       1.0  0.19224  0.74089  0.26332  1.0000
  N   N9        1.0  0.21392  0.71989  0.23500  1.0000
  C   C92       1.0  0.20381  0.85426  0.48173  1.0000
  C   C93       1.0  0.20035  0.70807  0.20016  1.0000
  H   H88       1.0  0.20643  0.96867  0.21053  1.0000
  C   C94       1.0  0.05515  0.85056  0.39712  1.0000
  H   H89       1.0  0.27358  0.67194  0.15707  1.0000
  H   H90       1.0  0.30920  0.94404  0.24572  1.0000
  H   H91       1.0  0.08343  0.84835  0.39705  1.0000
  C   C95       1.0  0.21940  0.98982  0.31531  1.0000
  H   H92       1.0  0.21114  0.68190  0.14373  1.0000
  C   C96       1.0  0.03293  0.86820  0.28077  1.0000
  H   H93       1.0  0.23640  0.86112  0.21724  1.0000
  H   H94       1.0  0.03507  0.89332  0.26867  1.0000
  C   C97       1.0  0.25660  0.68431  0.17947  1.0000
  C   C98       1.0  0.00269  0.88084  0.38075  1.0000
  C   C99       1.0  0.18739  0.98974  0.29631  1.0000
  H   H95       1.0  0.29789  0.69368  0.22043  1.0000
  H   H96       1.0  0.25967  0.72573  0.26927  1.0000
  C   C100      1.0  0.27025  0.69659  0.21499  1.0000
  C   C101      1.0  0.20942  0.81796  0.48122  1.0000
  H   H97       1.0  0.27975  0.84724  0.48860  1.0000
  N   N10       1.0  0.99888  0.82603  0.40974  1.0000
  C   C102      1.0  0.26784  0.99747  0.23087  1.0000
  H   H98       1.0  0.32702  0.77841  0.21479  1.0000
  C   C103      1.0  0.99987  0.85400  0.28723  1.0000
  H   H99       1.0  0.33147  0.74776  0.14908  1.0000
  Fe  Fe15      1.0  0.20268  0.82774  0.65528  1.0000
  S   S28       1.0  0.18038  0.88206  0.66588  1.0000
  S   S29       1.0  0.21017  0.80060  0.59484  1.0000
  Fe  Fe16      1.0  0.21383  0.81988  0.74271  1.0000
  S   S30       1.0  0.19292  0.87452  0.75852  1.0000
  S   S31       1.0  0.22165  0.78088  0.78908  1.0000
  Fe  Fe17      1.0  0.15115  0.86101  0.71504  1.0000
  S   S32       1.0  0.09675  0.87986  0.73217  1.0000
  Fe  Fe18      1.0  0.22378  0.89080  0.70798  1.0000
  S   S33       1.0  0.25432  0.94126  0.70588  1.0000
  S   S34       1.0  0.16978  0.80557  0.70154  1.0000
  S   S35       1.0  0.24848  0.83724  0.69498  1.0000
  H   H100      1.0  0.24356  0.96938  0.79798  1.0000
  H   H101      1.0  0.26407  0.66207  0.82867  1.0000
  C   C104      1.0  0.04286  0.75674  0.77304  1.0000
  C   C105      1.0  0.26627  0.89442  0.61088  1.0000
  C   C106      1.0  0.32694  0.54919  0.98461  1.0000
  C   C107      1.0  0.20941  0.80152  0.51598  1.0000
  C   C108      1.0  0.19593  0.87336  0.51702  1.0000
  C   C109      1.0  0.25944  0.93253  0.55978  1.0000
  C   C110      1.0  0.07832  0.76510  0.77659  1.0000
  C   C111      1.0  0.28921  0.67465  0.82595  1.0000
  H   H102      1.0  0.18073  0.95382  0.72158  1.0000
  C   C112      1.0  0.25309  0.77679  0.82605  1.0000
  C   C113      1.0  0.24642  0.75335  0.85441  1.0000
  C   C114      1.0  0.27145  0.74722  0.88265  1.0000
  C   C115      1.0  0.30380  0.76421  0.88274  1.0000
  C   C116      1.0  0.31020  0.78813  0.85482  1.0000
  C   C117      1.0  0.28507  0.79448  0.82676  1.0000
  H   H103      1.0  0.02405  0.89634  0.73885  1.0000
  H   H104      1.0  0.14262  0.78644  0.77904  1.0000
  H   H105      1.0  0.00891  0.83604  0.80599  1.0000
  H   H106      1.0  0.29074  0.81256  0.80527  1.0000
  C   C118      1.0  0.19565  0.85689  0.55171  1.0000
  C   C119      1.0  0.20359  0.82107  0.55152  1.0000
  N   N11       1.0  0.31512  0.66970  0.85169  1.0000
  H   H107      1.0  0.19074  0.87224  0.57870  1.0000
  C   C120      1.0  0.27064  0.90500  0.53338  1.0000
  C   C121      1.0  0.02645  0.86964  0.72595  1.0000
  C   C122      1.0  0.05967  0.85518  0.71757  1.0000
  C   C123      1.0  0.06257  0.82065  0.70084  1.0000
  H   H108      1.0  0.19141  0.90141  0.51776  1.0000
  H   H109      1.0  0.08805  0.80932  0.69419  1.0000
  H   H110      1.0  0.28276  0.84166  0.59339  1.0000
  H   H111      1.0  0.13294  0.80865  0.82545  1.0000
  H   H112      1.0  0.25193  0.95766  0.54997  1.0000
  H   H113      1.0  0.13108  0.83204  0.78256  1.0000
  H   H114      1.0  0.31982  0.51660  0.93174  1.0000
  C   C124      1.0  0.25727  0.92711  0.59880  1.0000
  H   H115      1.0  0.26591  0.72897  0.90399  1.0000
  H   H116      1.0  0.24834  0.94801  0.61974  1.0000
  H   H117      1.0  0.26450  0.88998  0.64108  1.0000
  C   C125      1.0  0.19266  0.97833  0.71504  1.0000
  C   C126      1.0  0.06390  0.82316  0.80182  1.0000
  H   H118      1.0  0.09769  0.74532  0.76727  1.0000
  C   C127      1.0  0.03234  0.80033  0.69387  1.0000
  H   H119      1.0  0.21530  0.77373  0.51547  1.0000
  N   N12       1.0  0.08839  0.79804  0.79068  1.0000
  C   C128      1.0  0.32577  0.71501  0.79430  1.0000
  H   H120      1.0  0.27138  0.90908  0.50295  1.0000
  C   C129      1.0  0.12553  0.80661  0.79468  1.0000
  C   C130      1.0  0.27695  0.86735  0.58375  1.0000
  H   H121      1.0  0.22180  0.73956  0.85434  1.0000
  H   H122      1.0  0.27308  0.70232  0.77742  1.0000
  H   H123      1.0  0.03467  0.77333  0.68187  1.0000
  C   C131      1.0  0.22802  0.97918  0.70488  1.0000
  N   N13       1.0  0.27876  0.87278  0.54551  1.0000
  H   H124      1.0  0.07192  0.84963  0.81163  1.0000
  H   H125      1.0  0.32935  0.73378  0.77290  1.0000
  H   H126      1.0  0.29145  0.62522  0.87480  1.0000
  C   C132      1.0  0.29417  0.69725  0.79680  1.0000
  C   C133      1.0  0.30847  0.64793  0.88364  1.0000
  C   C134      1.0  0.02825  0.81563  0.79881  1.0000
  H   H127      1.0  0.29558  0.66407  0.90775  1.0000
  S   S36       1.0  0.32473  0.58900  0.96154  1.0000
  S   S37       1.0  0.29796  0.68967  0.98987  1.0000
  C   C135      1.0  0.01773  0.78222  0.78427  1.0000
  C   C136      1.0  0.32393  0.51680  0.96238  1.0000
  H   H128      1.0  0.03481  0.73109  0.76054  1.0000
  C   C137      1.0  0.24165  0.99777  0.79778  1.0000
  H   H129      1.0  0.28153  0.81838  0.52618  1.0000
  C   C138      1.0  0.29067  0.84426  0.51760  1.0000
  H   H130      1.0  0.31959  0.84409  0.51562  1.0000
  C   C139      1.0  0.99916  0.81451  0.70336  1.0000
  C   C140      1.0  0.56200  0.31864  0.01668  1.0000
  Fe  Fe19      1.0  0.33972  0.38742  0.01775  1.0000
  H   H131      1.0  0.37819  0.36819  0.15126  1.0000
  C   C141      1.0  0.64211  0.33418  0.12443  1.0000
  H   H132      1.0  0.35346  0.41031  0.10859  1.0000
  S   S38       1.0  0.38109  0.35823  0.04782  1.0000
  S   S39       1.0  0.60381  0.30635  0.03338  1.0000
  S   S40       1.0  0.33349  0.44484  0.04257  1.0000
  C   C142      1.0  0.53182  0.30396  0.03213  1.0000
  H   H133      1.0  0.44622  0.47083  0.01102  1.0000
  Fe  Fe20      1.0  0.34240  0.31380  0.04940  1.0000
  H   H134      1.0  0.53434  0.28639  0.05471  1.0000
  C   C143      1.0  0.49828  0.31137  0.01827  1.0000
  H   H135      1.0  0.35874  0.34419  0.22159  1.0000
  H   H136      1.0  0.47539  0.29951  0.03012  1.0000
  H   H137      1.0  0.62354  0.34568  0.10573  1.0000
  S   S41       1.0  0.33846  0.28402  0.10425  1.0000
  Fe  Fe21      1.0  0.65816  0.32604  0.01758  1.0000
  C   C144      1.0  0.41950  0.48231  0.01309  1.0000
  C   C145      1.0  0.35013  0.37193  0.15058  1.0000
  C   C146      1.0  0.64337  0.29783  0.12608  1.0000
  H   H138      1.0  0.36187  0.31035  0.18194  1.0000
  H   H139      1.0  0.62581  0.28109  0.10857  1.0000
  H   H140      1.0  0.33673  0.23964  0.16684  1.0000
  H   H141      1.0  0.40776  0.47797  0.04158  1.0000
  C   C147      1.0  0.34396  0.32918  0.19854  1.0000
  C   C148      1.0  0.33630  0.39549  0.12610  1.0000
  H   H142      1.0  0.66539  0.38362  0.14345  1.0000
  S   S42       1.0  0.35695  0.36613  0.95854  1.0000
  C   C149      1.0  0.60154  0.30327  0.90316  1.0000
  C   C150      1.0  0.65031  0.23513  0.95256  1.0000
  S   S43       1.0  0.45335  0.34098  0.96707  1.0000
  Fe  Fe22      1.0  0.39709  0.33507  0.98916  1.0000
  H   H143      1.0  0.59341  0.27568  0.95363  1.0000
  H   H144      1.0  0.61735  0.32726  0.85200  1.0000
  N   N14       1.0  0.64103  0.26011  0.92462  1.0000
  C   C151      1.0  0.61062  0.27899  0.92929  1.0000
  H   H145      1.0  0.57763  0.31857  0.90735  1.0000
  C   C152      1.0  0.62373  0.30800  0.87203  1.0000
  H   H146      1.0  0.64058  0.24441  0.98187  1.0000
  C   C153      1.0  0.52478  0.34802  0.97298  1.0000
  C   C154      1.0  0.49456  0.33313  0.98820  1.0000
  C   C155      1.0  0.65414  0.28782  0.86683  1.0000
  H   H147      1.0  0.52222  0.36499  0.94983  1.0000
  C   C156      1.0  0.55822  0.34122  0.98741  1.0000
  H   H148      1.0  0.58108  0.35311  0.97555  1.0000
  S   S44       1.0  0.36171  0.28785  0.99223  1.0000
  H   H149      1.0  0.40294  0.46761  0.99126  1.0000
  H   H150      1.0  0.63897  0.20898  0.94391  1.0000
  C   C157      1.0  0.66211  0.26344  0.89323  1.0000
  S   S45       1.0  0.35390  0.65960  0.04966  1.0000
  H   H151      1.0  0.63916  0.78965  0.02242  1.0000
  H   H152      1.0  0.44003  0.53386  0.06390  1.0000
  H   H153      1.0  0.57656  0.78031  0.04437  1.0000
  C   C158      1.0  0.58338  0.73295  0.12192  1.0000
  S   S46       1.0  0.36246  0.74039  0.02376  1.0000
  H   H154      1.0  0.51917  0.65414  0.05949  1.0000
  Fe  Fe23      1.0  0.39550  0.69077  0.02093  1.0000
  C   C159      1.0  0.58827  0.76963  0.06912  1.0000
  C   C160      1.0  0.52250  0.67341  0.03874  1.0000
  S   S47       1.0  0.45064  0.67888  0.04208  1.0000
  C   C161      1.0  0.64311  0.79800  0.05343  1.0000
  C   C162      1.0  0.49282  0.68961  0.02434  1.0000
  N   N15       1.0  0.62268  0.77561  0.07733  1.0000
  C   C163      1.0  0.56137  0.70729  0.00031  1.0000
  H   H155      1.0  0.57904  0.66937  0.03812  1.0000
  C   C164      1.0  0.33394  0.51683  0.04134  1.0000
  C   C165      1.0  0.56809  0.74829  0.09128  1.0000
  H   H156      1.0  0.54107  0.74280  0.08383  1.0000
  C   C166      1.0  0.55654  0.68195  0.02663  1.0000
  C   C167      1.0  0.63766  0.76149  0.10800  1.0000
  Fe  Fe24      1.0  0.65876  0.70328  0.00087  1.0000
  H   H157      1.0  0.44360  0.59773  0.05486  1.0000
  C   C168      1.0  0.43452  0.57915  0.03184  1.0000
  H   H158      1.0  0.63069  0.72777  0.15411  1.0000
  H   H159      1.0  0.56823  0.71559  0.13864  1.0000
  C   C169      1.0  0.61836  0.73969  0.13053  1.0000
  N   N16       1.0  0.42072  0.51999  0.00756  1.0000
  C   C170      1.0  0.43239  0.54315  0.03669  1.0000
  H   H160      1.0  0.63491  0.82585  0.05931  1.0000
  C   C171      1.0  0.49765  0.71451  0.99757  1.0000
  H   H161      1.0  0.33474  0.57363  0.04167  1.0000
  H   H162      1.0  0.33761  0.51709  0.07205  1.0000
  H   H163      1.0  0.66488  0.76639  0.11477  1.0000
  C   C172      1.0  0.33228  0.54899  0.02420  1.0000
  C   C173      1.0  0.42475  0.59130  0.99693  1.0000
  H   H164      1.0  0.36589  0.68497  0.87127  1.0000
  Fe  Fe25      1.0  0.34185  0.71982  0.96544  1.0000
  C   C174      1.0  0.41309  0.56752  0.96735  1.0000
  S   S48       1.0  0.37835  0.67299  0.96109  1.0000
  C   C175      1.0  0.41145  0.53171  0.97307  1.0000
  H   H165      1.0  0.53504  0.74306  0.96553  1.0000
  S   S49       1.0  0.33801  0.75479  0.91493  1.0000
  H   H166      1.0  0.37598  0.72493  0.82034  1.0000
  H   H167      1.0  0.40457  0.57691  0.94047  1.0000
  H   H168      1.0  0.40191  0.51350  0.95004  1.0000
  C   C176      1.0  0.35197  0.70996  0.82078  1.0000
  S   S50       1.0  0.60362  0.72162  0.98648  1.0000
  C   C177      1.0  0.53169  0.72340  0.98586  1.0000
  H   H169      1.0  0.47520  0.72736  0.98631  1.0000
  C   C178      1.0  0.34612  0.68719  0.84955  1.0000
  H   H170      1.0  0.42617  0.61914  0.99293  1.0000
  H   H171      1.0  0.33308  0.63693  0.89440  1.0000
  H   H172      1.0  0.33503  0.80154  0.85458  1.0000
  Fe  Fe26      1.0  0.33564  0.64410  0.98980  1.0000
  Fe  Fe27      1.0  0.87685  0.13923  0.29615  1.0000
  S   S51       1.0  0.82198  0.15712  0.30857  1.0000
  S   S52       1.0  0.89526  0.08410  0.27750  1.0000
  Fe  Fe28      1.0  0.90564  0.21234  0.31339  1.0000
  S   S53       1.0  0.85248  0.23645  0.32743  1.0000
  S   S54       1.0  0.95655  0.24216  0.31817  1.0000
  Fe  Fe29      1.0  0.84447  0.18841  0.36025  1.0000
  S   S55       1.0  0.81771  0.18356  0.41845  1.0000
  Fe  Fe30      1.0  0.83458  0.20343  0.27426  1.0000
  S   S56       1.0  0.79552  0.21242  0.22593  1.0000
  S   S57       1.0  0.89858  0.16706  0.34964  1.0000
  S   S58       1.0  0.88851  0.18273  0.25856  1.0000
  H   H173      1.0  0.76978  0.14059  0.22324  1.0000
  N   N17       1.0  0.68976  0.34093  0.16867  1.0000
  C   C179      1.0  0.87294  0.19974  0.46796  1.0000
  H   H174      1.0  0.83087  0.10056  0.43486  1.0000
  Fe  Fe31      1.0  0.73083  0.33325  0.05505  1.0000
  S   S59       1.0  0.76147  0.33133  0.11146  1.0000
  H   H175      1.0  0.70075  0.37955  0.21432  1.0000
  C   C180      1.0  0.99561  0.22293  0.40673  1.0000
  C   C181      1.0  0.82027  0.02323  0.32092  1.0000
  H   H176      1.0  0.82757  0.14962  0.19373  1.0000
  H   H177      1.0  0.96569  0.16867  0.29203  1.0000
  H   H178      1.0  0.82463  0.03736  0.42458  1.0000
  C   C182      1.0  0.78882  0.24518  0.19279  1.0000
  C   C183      1.0  0.80320  0.27889  0.19804  1.0000
  C   C184      1.0  0.79526  0.30447  0.17230  1.0000
  C   C185      1.0  0.77328  0.29674  0.14057  1.0000
  C   C186      1.0  0.75954  0.26277  0.13480  1.0000
  C   C187      1.0  0.76695  0.23739  0.16095  1.0000
  H   H179      1.0  0.81995  0.28550  0.22233  1.0000
  H   H180      1.0  0.80613  0.33057  0.17718  1.0000
  H   H181      1.0  0.74263  0.25627  0.11061  1.0000
  H   H182      1.0  0.75560  0.21148  0.15644  1.0000
  C   C188      1.0  0.83879  0.18723  0.46378  1.0000
  H   H183      1.0  0.88720  0.20737  0.44307  1.0000
  H   H184      1.0  0.85468  0.04265  0.20469  1.0000
  H   H185      1.0  0.79543  0.02685  0.33585  1.0000
  C   C189      1.0  0.69042  0.30538  0.17147  1.0000
  C   C190      1.0  0.83860  0.05257  0.30967  1.0000
  C   C191      1.0  0.87094  0.04798  0.29090  1.0000
  H   H186      1.0  0.66911  0.25499  0.15106  1.0000
  H   H187      1.0  0.82775  0.07866  0.31557  1.0000
  S   S60       1.0  0.75590  0.34988  0.00037  1.0000
  H   H188      1.0  0.79414  0.16796  0.49364  1.0000
  C   C192      1.0  0.71446  0.36392  0.19043  1.0000
  C   C193      1.0  0.87888  0.10246  0.18044  1.0000
  C   C194      1.0  0.78808  0.11876  0.21891  1.0000
  H   H189      1.0  0.86803  0.12177  0.41629  1.0000
  H   H190      1.0  0.70942  0.29380  0.18956  1.0000
  C   C195      1.0  0.66758  0.28326  0.14985  1.0000
  H   H191      1.0  0.79696  0.03234  0.23397  1.0000
  C   C196      1.0  0.91397  0.03231  0.37232  1.0000
  H   H192      1.0  0.83339  0.10709  0.38433  1.0000
  H   H193      1.0  0.72425  0.46585  0.04829  1.0000
  H   H194      1.0  0.87797  0.09551  0.14894  1.0000
  N   N18       1.0  0.86623  0.06637  0.40131  1.0000
  S   S61       1.0  0.70248  0.28811  0.02454  1.0000
  C   C197      1.0  0.86595  0.00341  0.40176  1.0000
  N   N19       1.0  0.84458  0.09677  0.19789  1.0000
  C   C198      1.0  0.83588  0.06405  0.20810  1.0000
  C   C199      1.0  0.82095  0.12380  0.20241  1.0000
  C   C200      1.0  0.84878  0.10045  0.40956  1.0000
  S   S62       1.0  0.68505  0.37065  0.05178  1.0000
  H   H195      1.0  0.93814  0.03101  0.35572  1.0000
  C   C201      1.0  0.88449  0.01396  0.28275  1.0000
  H   H196      1.0  0.88714  0.13032  0.18589  1.0000
  C   C202      1.0  0.71694  0.48747  0.03185  1.0000
  H   H197      1.0  0.90920  0.08834  0.37224  1.0000
  C   C203      1.0  0.80325  0.05807  0.22470  1.0000
  H   H198      1.0  0.90945  0.01023  0.26807  1.0000
  H   H199      1.0  0.75415  0.08165  0.24381  1.0000
  C   C204      1.0  0.77933  0.08573  0.23036  1.0000
  C   C205      1.0  0.89745  0.06470  0.38177  1.0000
  C   C206      1.0  0.85020  0.03625  0.41084  1.0000
  H   H200      1.0  0.89924  0.08630  0.19324  1.0000
  H   H201      1.0  0.97974  0.20394  0.38836  1.0000
  H   H202      1.0  0.98488  0.22424  0.43651  1.0000
  H   H203      1.0  0.73594  0.34865  0.20242  1.0000
  H   H204      1.0  0.99220  0.24893  0.39499  1.0000
  H   H205      1.0  0.72718  0.38189  0.17103  1.0000
  C   C207      1.0  0.99408  0.21626  0.30760  1.0000
  C   C208      1.0  0.99120  0.18049  0.29582  1.0000
  C   C209      1.0  0.66577  0.35547  0.14588  1.0000
  C   C210      1.0  0.89808  0.00153  0.38246  1.0000
  C   C211      1.0  0.82057  0.17768  0.49657  1.0000
  Fe  Fe32      1.0  0.84231  0.12743  0.68887  1.0000
  S   S63       1.0  0.81879  0.17615  0.66705  1.0000
  S   S64       1.0  0.81471  0.07502  0.68148  1.0000
  Fe  Fe33      1.0  0.90904  0.16472  0.71412  1.0000
  S   S65       1.0  0.89068  0.21609  0.69478  1.0000
  S   S66       1.0  0.96173  0.15310  0.73921  1.0000
  Fe  Fe34      1.0  0.83898  0.20369  0.72247  1.0000
  S   S67       1.0  0.80780  0.24863  0.75505  1.0000
  Fe  Fe35      1.0  0.87206  0.18426  0.64147  1.0000
  S   S68       1.0  0.89011  0.20129  0.58314  1.0000
  S   S69       1.0  0.85889  0.15418  0.74559  1.0000
  S   S70       1.0  0.89387  0.13364  0.65947  1.0000
  Fe  Fe36      1.0  0.72482  0.30636  0.96937  1.0000
  S   S71       1.0  0.74662  0.26139  0.92791  1.0000
  S   S72       1.0  0.67816  0.34070  0.96034  1.0000
  H   H206      1.0  0.68557  0.24757  0.88870  1.0000
  C   C212      1.0  0.87999  0.29051  0.63731  1.0000
  C   C213      1.0  0.82344  0.00545  0.69352  1.0000
  N   N20       1.0  0.84429  0.27718  0.63274  1.0000
  H   H207      1.0  0.97194  0.21516  0.69685  1.0000
  C   C214      1.0  0.79176  0.25192  0.80357  1.0000
  C   C215      1.0  0.79339  0.22376  0.82671  1.0000
  C   C216      1.0  0.77966  0.22732  0.86461  1.0000
  C   C217      1.0  0.76446  0.25913  0.88020  1.0000
  C   C218      1.0  0.76283  0.28735  0.85710  1.0000
  C   C219      1.0  0.77627  0.28368  0.81903  1.0000
  H   H208      1.0  0.80510  0.19914  0.81538  1.0000
  H   H209      1.0  0.78103  0.20525  0.88208  1.0000
  H   H210      1.0  0.75126  0.31199  0.86853  1.0000
  H   H211      1.0  0.77485  0.30570  0.80151  1.0000
  H   H212      1.0  0.88804  0.29268  0.66796  1.0000
  C   C220      1.0  0.82244  0.27673  0.66398  1.0000
  C   C221      1.0  0.87006  0.19402  0.53743  1.0000
  C   C222      1.0  0.83617  0.18081  0.53317  1.0000
  H   H213      1.0  0.83136  0.28582  0.69252  1.0000
  H   H214      1.0  0.79808  0.00159  0.68054  1.0000
  H   H215      1.0  0.82178  0.17351  0.55813  1.0000
  H   H216      1.0  0.91378  0.01933  0.74112  1.0000
  C   C223      1.0  0.88869  0.01531  0.72750  1.0000
  H   H217      1.0  0.89877  0.27213  0.62141  1.0000
  C   C224      1.0  0.83761  0.03939  0.69838  1.0000
  C   C225      1.0  0.87033  0.04423  0.71530  1.0000
  H   H218      1.0  0.79047  0.24284  0.56316  1.0000
  H   H219      1.0  0.88142  0.07031  0.71932  1.0000
  H   H220      1.0  0.96336  0.09454  0.66882  1.0000
  C   C226      1.0  0.83278  0.26598  0.59680  1.0000
  C   C227      1.0  0.77680  0.25143  0.62344  1.0000
  C   C228      1.0  0.78844  0.26377  0.65983  1.0000
  H   H221      1.0  0.75075  0.24065  0.62001  1.0000
  C   C229      1.0  0.79902  0.25266  0.59162  1.0000
  H   H222      1.0  0.79332  0.03168  0.59156  1.0000
  H   H223      1.0  0.85013  0.26632  0.57202  1.0000
  S   S73       1.0  0.70632  0.43748  0.97011  1.0000
  H   H224      1.0  0.85397  0.04755  0.60967  1.0000
  H   H225      1.0  0.88202  0.31680  0.62611  1.0000
  H   H226      1.0  0.77159  0.26264  0.68495  1.0000
  H   H227      1.0  0.76964  0.49098  0.92051  1.0000
  H   H228      1.0  0.96734  0.14505  0.62834  1.0000
  C   C230      1.0  0.81242  0.01113  0.59499  1.0000
  Fe  Fe37      1.0  0.70780  0.38368  0.99499  1.0000
  C   C231      1.0  0.84661  0.02008  0.60499  1.0000
  H   H229      1.0  0.78996  0.48998  0.98759  1.0000
  C   C232      1.0  0.70584  0.48064  0.99390  1.0000
  C   C233      1.0  0.98867  0.10463  0.66098  1.0000
  H   H230      1.0  0.67920  0.23243  0.95458  1.0000
  C   C234      1.0  0.99089  0.13311  0.63850  1.0000
  H   H231      1.0  0.67172  0.29115  0.84279  1.0000
  H   H232      1.0  0.91447  0.21380  0.50762  1.0000
  C   C235      1.0  0.88832  0.20338  0.50462  1.0000
  H   H233      1.0  0.89652  0.00071  0.62127  1.0000
  C   C236      1.0  0.99712  0.20611  0.70577  1.0000
  Fe  Fe38      1.0  0.90999  0.86614  0.30172  1.0000
  S   S74       1.0  0.89339  0.81466  0.32167  1.0000
  S   S75       1.0  0.96242  0.87783  0.27569  1.0000
  Fe  Fe39      1.0  0.84146  0.90141  0.32621  1.0000
  S   S76       1.0  0.81927  0.85217  0.34860  1.0000
  S   S77       1.0  0.81269  0.95348  0.33193  1.0000
  Fe  Fe40      1.0  0.87246  0.84629  0.37464  1.0000
  S   S78       1.0  0.89287  0.83167  0.43259  1.0000
  Fe  Fe41      1.0  0.84184  0.82497  0.29351  1.0000
  S   S79       1.0  0.81860  0.77833  0.25651  1.0000
  S   S80       1.0  0.89271  0.89730  0.35580  1.0000
  S   S81       1.0  0.86036  0.87474  0.26988  1.0000
  H   H234      1.0  0.92644  0.85857  0.20132  1.0000
  Fe  Fe42      1.0  0.72148  0.72608  0.05209  1.0000
  S   S82       1.0  0.73667  0.77137  0.09648  1.0000
  H   H235      1.0  0.95586  0.79088  0.40455  1.0000
  C   C237      1.0  0.91958  0.80596  0.21839  1.0000
  C   C238      1.0  0.90800  0.74660  0.23752  1.0000
  H   H236      1.0  0.99275  0.77429  0.42868  1.0000
  C   C239      1.0  0.97739  0.79843  0.42472  1.0000
  C   C240      1.0  0.71982  0.52247  0.04813  1.0000
  H   H237      1.0  0.84909  0.79489  0.14018  1.0000
  H   H238      1.0  0.93873  0.80963  0.24103  1.0000
  H   H239      1.0  0.88114  0.85151  0.15047  1.0000
  C   C241      1.0  0.86641  0.98467  0.29448  1.0000
  H   H240      1.0  0.97204  0.81029  0.30795  1.0000
  H   H241      1.0  0.82362  0.85665  0.46062  1.0000
  H   H242      1.0  0.87746  0.95857  0.28894  1.0000
  C   C242      1.0  0.79515  0.77716  0.21245  1.0000
  C   C243      1.0  0.78586  0.80770  0.19538  1.0000
  C   C244      1.0  0.76812  0.80533  0.15994  1.0000
  C   C245      1.0  0.75969  0.77248  0.14083  1.0000
  C   C246      1.0  0.76929  0.74194  0.15771  1.0000
  C   C247      1.0  0.78673  0.74432  0.19334  1.0000
  H   H243      1.0  0.79212  0.83316  0.20960  1.0000
  H   H244      1.0  0.76077  0.82916  0.14729  1.0000
  H   H245      1.0  0.76296  0.71648  0.14355  1.0000
  H   H246      1.0  0.79371  0.72047  0.20620  1.0000
  H   H247      1.0  0.90987  0.97613  0.37393  1.0000
  C   C248      1.0  0.88737  0.82984  0.16746  1.0000
  H   H248      1.0  0.90617  0.72042  0.22118  1.0000
  H   H249      1.0  0.98990  0.90223  0.36772  1.0000
  H   H250      1.0  0.93424  0.74858  0.25080  1.0000
  C   C249      1.0  0.87323  0.83803  0.47919  1.0000
  S   S83       1.0  0.67671  0.68876  0.05866  1.0000
  H   H251      1.0  0.95460  0.85554  0.39420  1.0000
  N   N21       1.0  0.90202  0.77486  0.21233  1.0000
  Fe  Fe43      1.0  0.71037  0.64822  0.02436  1.0000
  C   C250      1.0  0.87728  0.77069  0.18434  1.0000
  S   S84       1.0  0.75638  0.68487  0.02176  1.0000
  H   H252      1.0  0.86237  0.74655  0.18054  1.0000
  C   C251      1.0  0.86956  0.79806  0.16150  1.0000
  C   C252      1.0  0.71150  0.55108  0.02685  1.0000
  H   H253      1.0  0.72927  0.52745  0.07718  1.0000
  S   S85       1.0  0.71972  0.59454  0.04742  1.0000
  C   C253      1.0  0.91272  0.83381  0.19592  1.0000
  H   H254      1.0  0.88786  0.74813  0.26083  1.0000
  C   C254      1.0  0.98287  0.85409  0.39525  1.0000
  C   C255      1.0  0.83898  0.85043  0.48500  1.0000
  H   H255      1.0  0.79986  0.54637  0.02715  1.0000
  H   H256      1.0  0.85257  0.97942  0.40795  1.0000
  C   C256      1.0  0.83441  0.98928  0.31395  1.0000
  H   H257      1.0  0.96547  0.80825  0.45281  1.0000
  C   C257      1.0  0.99736  0.82146  0.30280  1.0000
  H   H258      1.0  0.67160  0.79608  0.05895  1.0000
  C   C258      1.0  0.79239  0.54650  0.99726  1.0000
  H   H259      1.0  0.78914  0.60274  0.99945  1.0000
  Fe  Fe44      1.0  0.85035  0.84175  0.65785  1.0000
  S   S86       1.0  0.90431  0.86233  0.66872  1.0000
  S   S87       1.0  0.82352  0.84959  0.60091  1.0000
  Fe  Fe45      1.0  0.83919  0.82590  0.74373  1.0000
  S   S88       1.0  0.89264  0.84650  0.75968  1.0000
  S   S89       1.0  0.79815  0.81531  0.79030  1.0000
  Fe  Fe46      1.0  0.88147  0.89020  0.72220  1.0000
  S   S90       1.0  0.89801  0.94605  0.73931  1.0000
  Fe  Fe47      1.0  0.91076  0.81692  0.70461  1.0000
  S   S91       1.0  0.96204  0.78728  0.69972  1.0000
  S   S92       1.0  0.82696  0.87253  0.70997  1.0000
  S   S93       1.0  0.85791  0.79329  0.69012  1.0000
  H   H260      1.0  0.86982  0.93361  0.86500  1.0000
  H   H261      1.0  0.69276  0.56590  0.97259  1.0000
  Fe  Fe48      1.0  0.73355  0.70025  0.96602  1.0000
  C   C259      1.0  0.69934  0.54424  0.98930  1.0000
  S   S94       1.0  0.77176  0.70230  0.91470  1.0000
  C   C260      1.0  0.82739  0.94987  0.59737  1.0000
  H   H262      1.0  0.83119  0.95032  0.70081  1.0000
  C   C261      1.0  0.89266  0.82986  0.51132  1.0000
  C   C262      1.0  0.78349  0.90652  0.79669  1.0000
  H   H263      1.0  0.91911  0.82016  0.50729  1.0000
  H   H264      1.0  0.89066  0.93332  0.64745  1.0000
  C   C263      1.0  0.82884  0.96309  0.80114  1.0000
  C   C264      1.0  0.78604  0.57837  0.98143  1.0000
  H   H265      1.0  0.97085  0.86063  0.72609  1.0000
  C   C265      1.0  0.87478  0.98134  0.72218  1.0000
  C   C266      1.0  0.84221  0.97639  0.70485  1.0000
  H   H266      1.0  0.68794  0.50426  0.94361  1.0000
  C   C267      1.0  0.76928  0.54786  0.92240  1.0000
  C   C268      1.0  0.87801  0.83360  0.54874  1.0000
  C   C269      1.0  0.87050  0.99350  0.61159  1.0000
  C   C270      1.0  0.79203  0.78381  0.82513  1.0000
  C   C271      1.0  0.76409  0.78857  0.85176  1.0000
  C   C272      1.0  0.75773  0.76432  0.87957  1.0000
  C   C273      1.0  0.77912  0.73463  0.88105  1.0000
  C   C274      1.0  0.80715  0.72994  0.85451  1.0000
  C   C275      1.0  0.81368  0.75435  0.82689  1.0000
  H   H267      1.0  0.74701  0.81108  0.85075  1.0000
  H   H268      1.0  0.73600  0.76838  0.89953  1.0000
  H   H269      1.0  0.82390  0.70713  0.85518  1.0000
  H   H270      1.0  0.83519  0.75008  0.80667  1.0000
  C   C276      1.0  0.82424  0.85391  0.52242  1.0000
  C   C277      1.0  0.84354  0.84527  0.55446  1.0000
  N   N22       1.0  0.77448  0.57872  0.94448  1.0000
  H   H271      1.0  0.79750  0.86282  0.52647  1.0000
  H   H272      1.0  0.89318  0.82676  0.57303  1.0000
  H   H273      1.0  0.75966  0.54817  0.89331  1.0000
  H   H274      1.0  0.91131  0.93562  0.60083  1.0000
  H   H275      1.0  0.81947  0.92250  0.59476  1.0000
  H   H276      1.0  0.77610  0.96848  0.58366  1.0000
  N   N23       1.0  0.86080  0.95894  0.60744  1.0000
  S   S95       1.0  0.70136  0.74361  0.99610  1.0000
  S   S96       1.0  0.68976  0.66051  0.96675  1.0000
  H   H277      1.0  0.74843  0.93955  0.76783  1.0000
  C   C278      1.0  0.76776  0.61217  0.92804  1.0000
  H   H278      1.0  0.99017  0.77656  0.78008  1.0000
  C   C279      1.0  0.77525  0.51550  0.93738  1.0000
  H   H279      1.0  0.76620  0.88393  0.79478  1.0000
  H   H280      1.0  0.78736  0.61661  0.90527  1.0000
  C   C280      1.0  0.99627  0.84946  0.71868  1.0000
  C   C281      1.0  0.78677  0.51490  0.97510  1.0000
  H   H281      1.0  0.88434  0.90269  0.82573  1.0000
  H   H282      1.0  0.74120  0.61244  0.91555  1.0000
  H   H283      1.0  0.87678  0.90500  0.60645  1.0000
  C   C282      1.0  0.80271  0.97580  0.59097  1.0000
  H   H284      1.0  0.82390  0.87974  0.82496  1.0000
  H   H285      1.0  0.89167  0.94844  0.82300  1.0000
  C   C283      1.0  0.88610  0.93189  0.61593  1.0000
  C   C284      1.0  0.69662  0.50923  0.97296  1.0000
  N   N24       1.0  0.83869  0.93211  0.81505  1.0000
  C   C285      1.0  0.81630  0.90421  0.81356  1.0000
  H   H286      1.0  0.76912  0.63492  0.95003  1.0000
  C   C286      1.0  0.87276  0.92915  0.83329  1.0000
  C   C287      1.0  0.77355  0.93770  0.78160  1.0000
  H   H287      1.0  0.84663  0.98522  0.80219  1.0000
  C   C288      1.0  0.79624  0.96632  0.78404  1.0000
  H   H288      1.0  0.78901  0.99065  0.77209  1.0000
