data_image0
_chemical_formula_structural       H2FeS2C7SFeS2FeS2FeSFeS3C3NCH5C3H7C2SHCHC2SCHC6H5CNHNC2HC2H2CHNH3FeCH2CHC3HCH6C2HC4H2NHCHFeC2H4CHCFeHCH2CH2CFeS2FeS2FeS2FeSFeS3FeHSH3CH3CHFeC3NC4HCH2C3H3C10H4FeHNHNH3C3HCSC3HCHNH2CHCHCHCH4CHSC2HSHC3SHCSCH2C2SC2SH4FeS2FeS2FeHFeSHSFeS2FeSCFeSFeS3C6H4C3NCH2C2H4C3H2C2HNC7H7CH2C4HCH2CH6C2HCNHSHC2SH2C2HC3SHCNCH6C2HFeS2FeHSFeCFeS3FeSHFeS2FeSFeS3CHCH2CHSCHC12H4CNC2H2NC6H8CH4C2H3CHCH3CHSHSHCH2CHCHCH3FeS2NHCHCH3FeCSFeS2FeS2FeSFeS3H2C2HCH4C4HCH2C3HCHC4H2CHC2SC7H3CH2CNH2CHCHC2HFeHNC6H8S2HSFeNCH2CH3SC2H2C2SCH2SCHC2Fe2HCHC2HCNSC2HFeS2C3HFeCSFeS2FeS2FeSFeS3CHC2HCH2CHC2H3C4HCH2C3HCNHCH3C7H3NH2C4NH4CHC3H6CHSNH2C3HCH3CHC4H2CHC3SCH2SHCHFeS2FeCSFeS2FeS2FeSFeS3C2HFeC2HCHCHC2H3NHSNCHC2NCHC2H2C6H4C2H2C4NC6H8SH2CFeH2S2H2SCHC2HCHCNH4C3HCHCH2CH2CSH2C2FeC4H2CHC2H2C2FeHSH5FeS2FeS2FeS2FeSFeS3H2CH3FeHC3H2C2H2C2H3C2HNHCHC2HCNHC4NSC6H4CHSC3H4CH3SH4C3HC10HC2HCNH2CH2CHC3H2SFeS2FeSHFeHFeSCSFeS2FeSHFeSFeS2HC6H4C3H2C4HSC3HSHCH3SH2SH3C4SH5CH3C3HC3H2NCSCH2CSNCH2C2H4FeSHFeSCFeHFeSNSFeS2FeS2FeSFeHS2C2SH2C3HSHC2H2C7H4SH2C2HCH3NHC3HCHCH2C4HCH2CH2C2HCHNC6H7CHNCHCH2CHCNSC2HCH3C2FeSFe2S2FeS2FeS2FeSFeS3CH2C6SHC2HCHCHC8H5CHCHCHNCH2NH3CH4C3H2CH2C3SC2H2CHC2H6NHNC3HC2H2SHCFeH2CHCFeC2SHSCSFeSH2CHC3HC3HFeS2FeS2FeS2FeSFeS3C3H2CH2CH2C2H4FeHCHC6H5CH3CH2CH4C3NC3HCHC2H2NHC5HC2HNC4H3CSC2NCH6SCH2SH2
_chemical_formula_sum              "H576 Fe96 S192 C576 N48"
_cell_length_a       56.1968
_cell_length_b       55.9414
_cell_length_c       35.5784
_cell_angle_alpha    89.8817
_cell_angle_beta     89.7433
_cell_angle_gamma    87.5516

_space_group_name_H-M_alt    "P 1"
_space_group_IT_number       1

loop_
  _space_group_symop_operation_xyz
  'x, y, z'

loop_
  _atom_site_type_symbol
  _atom_site_label
  _atom_site_symmetry_multiplicity
  _atom_site_fract_x
  _atom_site_fract_y
  _atom_site_fract_z
  _atom_site_occupancy
  H   H1        1.0  0.19295  0.28396  0.05292  1.0000
  H   H2        1.0  0.23659  0.21941  0.04259  1.0000
  Fe  Fe1       1.0  0.29499  0.12890  0.04604  1.0000
  S   S1        1.0  0.31091  0.12794  0.10515  1.0000
  S   S2        1.0  0.25714  0.11885  0.03522  1.0000
  C   C1        1.0  0.33490  0.18867  0.49311  1.0000
  C   C2        1.0  0.42158  0.21058  0.46156  1.0000
  C   C3        1.0  0.99967  0.27163  0.03392  1.0000
  C   C4        1.0  0.31087  0.30892  0.31888  1.0000
  C   C5        1.0  0.30426  0.30215  0.22045  1.0000
  C   C6        1.0  0.22210  0.22965  0.05614  1.0000
  C   C7        1.0  0.27060  0.32109  0.40722  1.0000
  S   S3        1.0  0.09449  0.28082  0.06342  1.0000
  Fe  Fe2       1.0  0.34530  0.21493  0.27706  1.0000
  S   S4        1.0  0.37617  0.23954  0.27584  1.0000
  S   S5        1.0  0.32275  0.21289  0.22358  1.0000
  Fe  Fe3       1.0  0.34936  0.20836  0.36333  1.0000
  S   S6        1.0  0.37978  0.23262  0.36759  1.0000
  S   S7        1.0  0.33675  0.18925  0.41576  1.0000
  Fe  Fe4       1.0  0.35887  0.25600  0.32720  1.0000
  S   S8        1.0  0.35720  0.29552  0.33892  1.0000
  Fe  Fe5       1.0  0.39434  0.21381  0.31638  1.0000
  S   S9        1.0  0.43222  0.19750  0.31783  1.0000
  S   S10       1.0  0.32711  0.23331  0.32670  1.0000
  S   S11       1.0  0.36478  0.18772  0.31391  1.0000
  C   C8        1.0  0.42268  0.20264  0.42425  1.0000
  C   C9        1.0  0.39472  0.17261  0.43977  1.0000
  C   C10       1.0  0.14131  0.31471  0.16591  1.0000
  N   N1        1.0  0.30978  0.30260  0.41368  1.0000
  C   C11       1.0  0.33502  0.31443  0.31850  1.0000
  H   H3        1.0  0.21180  0.20033  0.09107  1.0000
  H   H4        1.0  0.43199  0.22558  0.46973  1.0000
  H   H5        1.0  0.22696  0.31431  0.25384  1.0000
  H   H6        1.0  0.13158  0.30002  0.15495  1.0000
  H   H7        1.0  0.32089  0.31022  0.21319  1.0000
  C   C12       1.0  0.28264  0.26785  0.23974  1.0000
  C   C13       1.0  0.45862  0.21335  0.32285  1.0000
  C   C14       1.0  0.45947  0.23784  0.31515  1.0000
  H   H8        1.0  0.27642  0.09017  0.10331  1.0000
  H   H9        1.0  0.24509  0.27440  0.24872  1.0000
  H   H10       1.0  0.44333  0.24792  0.30751  1.0000
  H   H11       1.0  0.27768  0.28395  0.42005  1.0000
  H   H12       1.0  0.16359  0.26615  0.13689  1.0000
  H   H13       1.0  0.32535  0.07581  0.09218  1.0000
  H   H14       1.0  0.23877  0.07395  0.08038  1.0000
  C   C15       1.0  0.34755  0.22540  0.46495  1.0000
  C   C16       1.0  0.33987  0.20213  0.46079  1.0000
  S   S12       1.0  0.13570  0.22382  0.04005  1.0000
  H   H15       1.0  0.35167  0.23579  0.44034  1.0000
  C   C17       1.0  0.04437  0.32073  0.10376  1.0000
  H   H16       1.0  0.31895  0.27086  0.44455  1.0000
  C   C18       1.0  0.30405  0.27790  0.22972  1.0000
  C   C19       1.0  0.27264  0.02234  0.08612  1.0000
  S   S13       1.0  0.14443  0.29038  0.01769  1.0000
  C   C20       1.0  0.25402  0.06199  0.08614  1.0000
  H   H17       1.0  0.32431  0.26929  0.39434  1.0000
  C   C21       1.0  0.31465  0.15207  0.13704  1.0000
  C   C22       1.0  0.30479  0.17509  0.13043  1.0000
  C   C23       1.0  0.30757  0.19343  0.15711  1.0000
  C   C24       1.0  0.32043  0.18914  0.19054  1.0000
  C   C25       1.0  0.33049  0.16618  0.19696  1.0000
  C   C26       1.0  0.32749  0.14777  0.17047  1.0000
  H   H18       1.0  0.29486  0.17871  0.10494  1.0000
  H   H19       1.0  0.29971  0.21109  0.15179  1.0000
  H   H20       1.0  0.34035  0.16254  0.22252  1.0000
  H   H21       1.0  0.33519  0.13008  0.17598  1.0000
  H   H22       1.0  0.27471  0.32234  0.30899  1.0000
  C   C27       1.0  0.32495  0.28095  0.41954  1.0000
  N   N2        1.0  0.29492  0.05609  0.10469  1.0000
  H   H23       1.0  0.34390  0.28519  0.42389  1.0000
  N   N3        1.0  0.18375  0.25508  0.08877  1.0000
  C   C28       1.0  0.18875  0.23185  0.09915  1.0000
  C   C29       1.0  0.19726  0.26575  0.06192  1.0000
  H   H24       1.0  0.43370  0.21138  0.40360  1.0000
  C   C30       1.0  0.21658  0.25319  0.04516  1.0000
  C   C31       1.0  0.48142  0.24916  0.31618  1.0000
  H   H25       1.0  0.14648  0.26099  0.09495  1.0000
  H   H26       1.0  0.27194  0.00334  0.08014  1.0000
  C   C32       1.0  0.14999  0.31386  0.20314  1.0000
  H   H27       1.0  0.16178  0.17932  0.05417  1.0000
  N   N4        1.0  0.40743  0.19970  0.48732  1.0000
  H   H28       1.0  0.23649  0.03034  0.06871  1.0000
  H   H29       1.0  0.16319  0.28763  0.09947  1.0000
  H   H30       1.0  0.31408  0.07952  0.13929  1.0000
  Fe  Fe6       1.0  0.11868  0.31133  0.05421  1.0000
  C   C33       1.0  0.27540  0.07105  0.09875  1.0000
  H   H31       1.0  0.22687  0.26146  0.02320  1.0000
  H   H32       1.0  0.25137  0.31982  0.40776  1.0000
  C   C34       1.0  0.28294  0.31605  0.22140  1.0000
  H   H33       1.0  0.47281  0.18785  0.24735  1.0000
  C   C35       1.0  0.29383  0.03204  0.09822  1.0000
  C   C36       1.0  0.34952  0.23536  0.50101  1.0000
  C   C37       1.0  0.25270  0.03749  0.07978  1.0000
  H   H34       1.0  0.38344  0.15832  0.43127  1.0000
  C   C38       1.0  0.31734  0.06629  0.11630  1.0000
  H   H35       1.0  0.40921  0.17770  0.38427  1.0000
  H   H36       1.0  0.17733  0.22305  0.11904  1.0000
  H   H37       1.0  0.32045  0.26684  0.22918  1.0000
  H   H38       1.0  0.30569  0.29163  0.32891  1.0000
  H   H39       1.0  0.28243  0.24891  0.24660  1.0000
  H   H40       1.0  0.14705  0.29831  0.22041  1.0000
  C   C39       1.0  0.20818  0.21891  0.08340  1.0000
  C   C40       1.0  0.16210  0.21092  0.01939  1.0000
  H   H41       1.0  0.32892  0.17063  0.49011  1.0000
  C   C41       1.0  0.26167  0.28234  0.24080  1.0000
  C   C42       1.0  0.40901  0.18363  0.41333  1.0000
  C   C43       1.0  0.16327  0.26813  0.10582  1.0000
  C   C44       1.0  0.28556  0.30096  0.41435  1.0000
  H   H42       1.0  0.01438  0.26058  0.04471  1.0000
  H   H43       1.0  0.33040  0.05241  0.12677  1.0000
  N   N5        1.0  0.26209  0.30620  0.23222  1.0000
  H   H44       1.0  0.48200  0.26801  0.30951  1.0000
  C   C45       1.0  0.17131  0.18865  0.03252  1.0000
  H   H45       1.0  0.30944  0.02019  0.10183  1.0000
  Fe  Fe7       1.0  0.11963  0.26050  0.02354  1.0000
  C   C46       1.0  0.19288  0.17844  0.01811  1.0000
  C   C47       1.0  0.39431  0.18076  0.47694  1.0000
  H   H46       1.0  0.05900  0.30981  0.11717  1.0000
  H   H47       1.0  0.19982  0.16139  0.02864  1.0000
  H   H48       1.0  0.03533  0.30860  0.08413  1.0000
  H   H49       1.0  0.47922  0.18160  0.33879  1.0000
  C   C48       1.0  0.00435  0.29221  0.01307  1.0000
  H   H50       1.0  0.48609  0.22874  0.23587  1.0000
  C   C49       1.0  0.23996  0.32112  0.23312  1.0000
  Fe  Fe8       1.0  0.07491  0.29343  0.01095  1.0000
  H   H51       1.0  0.35493  0.25360  0.50390  1.0000
  C   C50       1.0  0.47971  0.20053  0.33268  1.0000
  H   H52       1.0  0.38294  0.17218  0.49713  1.0000
  H   H53       1.0  0.23150  0.32156  0.20496  1.0000
  C   C51       1.0  0.31837  0.21220  0.87373  1.0000
  H   H54       1.0  0.26765  0.19677  0.83240  1.0000
  H   H55       1.0  0.23588  0.01024  0.97963  1.0000
  C   C52       1.0  0.31103  0.08530  0.84494  1.0000
  Fe  Fe9       1.0  0.30641  0.13090  0.96110  1.0000
  S   S14       1.0  0.33578  0.14053  0.91991  1.0000
  S   S15       1.0  0.26978  0.12044  0.94523  1.0000
  Fe  Fe10      1.0  0.35145  0.19606  0.71403  1.0000
  S   S16       1.0  0.37645  0.22084  0.74215  1.0000
  S   S17       1.0  0.32931  0.16927  0.74634  1.0000
  Fe  Fe11      1.0  0.35426  0.22219  0.63689  1.0000
  S   S18       1.0  0.37852  0.24855  0.66194  1.0000
  S   S19       1.0  0.34623  0.23608  0.57765  1.0000
  Fe  Fe12      1.0  0.39816  0.21721  0.68838  1.0000
  S   S20       1.0  0.43712  0.21644  0.66979  1.0000
  Fe  Fe13      1.0  0.35452  0.24955  0.71206  1.0000
  S   S21       1.0  0.34175  0.28502  0.73730  1.0000
  S   S22       1.0  0.37451  0.19038  0.66179  1.0000
  S   S23       1.0  0.32892  0.22520  0.68590  1.0000
  Fe  Fe14      1.0  0.12220  0.30239  0.96819  1.0000
  H   H56       1.0  0.27302  0.17721  0.89273  1.0000
  S   S24       1.0  0.09854  0.27076  0.97165  1.0000
  H   H57       1.0  0.32620  0.23359  0.78506  1.0000
  H   H58       1.0  0.34681  0.23077  0.84664  1.0000
  H   H59       1.0  0.32762  0.21073  0.90039  1.0000
  C   C53       1.0  0.34465  0.22192  0.53335  1.0000
  H   H60       1.0  0.48509  0.21601  0.64355  1.0000
  H   H61       1.0  0.35004  0.10743  0.82991  1.0000
  H   H62       1.0  0.39357  0.19892  0.54378  1.0000
  C   C54       1.0  0.13399  0.30837  0.78001  1.0000
  H   H63       1.0  0.20528  0.22169  0.95470  1.0000
  Fe  Fe15      1.0  0.25713  0.14700  0.98953  1.0000
  C   C55       1.0  0.28508  0.19132  0.90181  1.0000
  C   C56       1.0  0.20532  0.19031  0.99004  1.0000
  C   C57       1.0  0.33763  0.19838  0.52933  1.0000
  N   N6        1.0  0.27373  0.30876  0.61875  1.0000
  C   C58       1.0  0.15186  0.31581  0.75570  1.0000
  C   C59       1.0  0.31170  0.29465  0.73052  1.0000
  C   C60       1.0  0.29458  0.27841  0.72067  1.0000
  C   C61       1.0  0.27112  0.28647  0.71309  1.0000
  H   H64       1.0  0.29854  0.18241  0.92060  1.0000
  C   C62       1.0  0.16259  0.28627  0.81650  1.0000
  H   H65       1.0  0.29930  0.25961  0.71906  1.0000
  H   H66       1.0  0.25813  0.27374  0.70500  1.0000
  C   C63       1.0  0.19588  0.21238  0.97650  1.0000
  C   C64       1.0  0.46437  0.21285  0.69432  1.0000
  C   C65       1.0  0.46539  0.20972  0.73330  1.0000
  H   H67       1.0  0.28667  0.21608  0.77782  1.0000
  H   H68       1.0  0.30738  0.06112  0.94634  1.0000
  H   H69       1.0  0.44905  0.20909  0.74942  1.0000
  C   C66       1.0  0.31779  0.22508  0.80888  1.0000
  C   C67       1.0  0.29549  0.21538  0.80491  1.0000
  C   C68       1.0  0.28495  0.20434  0.83579  1.0000
  C   C69       1.0  0.32933  0.22353  0.84349  1.0000
  C   C70       1.0  0.33275  0.15006  0.87245  1.0000
  C   C71       1.0  0.35191  0.16105  0.85489  1.0000
  C   C72       1.0  0.35090  0.16763  0.81661  1.0000
  C   C73       1.0  0.33089  0.16272  0.79519  1.0000
  C   C74       1.0  0.31175  0.15160  0.81273  1.0000
  C   C75       1.0  0.31250  0.14560  0.85127  1.0000
  H   H70       1.0  0.36776  0.16438  0.87090  1.0000
  H   H71       1.0  0.36584  0.17597  0.80345  1.0000
  H   H72       1.0  0.29623  0.14766  0.79634  1.0000
  H   H73       1.0  0.29767  0.13703  0.86433  1.0000
  Fe  Fe16      1.0  0.27331  0.09295  0.99216  1.0000
  H   H74       1.0  0.27447  0.20489  0.91829  1.0000
  N   N7        1.0  0.29653  0.20262  0.86953  1.0000
  H   H75       1.0  0.33369  0.27406  0.63566  1.0000
  N   N8        1.0  0.33042  0.08598  0.86800  1.0000
  H   H76       1.0  0.11139  0.27076  0.82147  1.0000
  H   H77       1.0  0.34458  0.07822  0.92243  1.0000
  H   H78       1.0  0.31193  0.09203  0.81636  1.0000
  C   C76       1.0  0.18093  0.29341  0.79274  1.0000
  C   C77       1.0  0.30487  0.31902  0.73401  1.0000
  C   C78       1.0  0.30068  0.99252  0.00733  1.0000
  H   H79       1.0  0.16701  0.27521  0.84079  1.0000
  C   C79       1.0  0.35302  0.09444  0.85333  1.0000
  S   S25       1.0  0.23512  0.31981  0.70286  1.0000
  C   C80       1.0  0.30831  0.06795  0.91782  1.0000
  C   C81       1.0  0.12035  0.28592  0.83461  1.0000
  C   C82       1.0  0.26443  0.31084  0.71553  1.0000
  H   H80       1.0  0.42423  0.20649  0.53949  1.0000
  C   C83       1.0  0.48574  0.21363  0.67372  1.0000
  H   H81       1.0  0.27198  0.06022  0.90528  1.0000
  N   N9        1.0  0.13950  0.29391  0.81007  1.0000
  H   H82       1.0  0.29977  0.25342  0.60797  1.0000
  H   H83       1.0  0.19932  0.28794  0.79841  1.0000
  C   C84       1.0  0.28967  0.07620  0.85802  1.0000
  H   H84       1.0  0.16761  0.23980  0.98074  1.0000
  C   C85       1.0  0.17548  0.30830  0.76218  1.0000
  H   H85       1.0  0.27422  0.07594  0.83988  1.0000
  C   C86       1.0  0.28840  0.06738  0.89466  1.0000
  H   H86       1.0  0.11579  0.31491  0.77535  1.0000
  C   C87       1.0  0.27620  0.28507  0.60935  1.0000
  H   H87       1.0  0.26137  0.27591  0.59749  1.0000
  H   H88       1.0  0.36275  0.10400  0.87551  1.0000
  H   H89       1.0  0.36437  0.07908  0.84306  1.0000
  H   H90       1.0  0.10703  0.30080  0.84002  1.0000
  C   C88       1.0  0.40643  0.20860  0.52611  1.0000
  H   H91       1.0  0.40044  0.22780  0.52652  1.0000
  S   S26       1.0  0.14673  0.31090  0.91870  1.0000
  C   C89       1.0  0.29780  0.27226  0.61520  1.0000
  C   C90       1.0  0.29248  0.32031  0.63368  1.0000
  H   H92       1.0  0.12726  0.28014  0.86261  1.0000
  S   S27       1.0  0.23297  0.17891  0.97153  1.0000
  H   H93       1.0  0.33356  0.18795  0.55400  1.0000
  C   C91       1.0  0.31693  0.28386  0.63060  1.0000
  C   C92       1.0  0.31432  0.30801  0.63995  1.0000
  C   C93       1.0  0.32928  0.07749  0.90404  1.0000
  S   S28       1.0  0.03413  0.30174  0.00378  1.0000
  H   H94       1.0  0.18959  0.31444  0.74407  1.0000
  C   C94       1.0  0.17450  0.22271  0.99122  1.0000
  S   S29       1.0  0.26022  0.05444  0.98553  1.0000
  C   C95       1.0  0.25111  0.32193  0.61127  1.0000
  H   H95       1.0  0.23583  0.31109  0.61980  1.0000
  H   H96       1.0  0.32894  0.31689  0.65307  1.0000
  C   C96       1.0  0.27041  0.02372  0.99176  1.0000
  C   C97       1.0  0.48764  0.20733  0.75138  1.0000
  S   S30       1.0  0.31098  0.10183  0.00503  1.0000
  C   C98       1.0  0.25408  0.00547  0.98732  1.0000
  C   C99       1.0  0.29387  0.01698  0.00169  1.0000
  S   S31       1.0  0.29401  0.15850  0.00339  1.0000
  H   H97       1.0  0.30675  0.03058  0.00539  1.0000
  H   H98       1.0  0.48423  0.26067  0.71842  1.0000
  H   H99       1.0  0.48828  0.20491  0.78153  1.0000
  H   H100      1.0  0.17811  0.48465  0.40105  1.0000
  Fe  Fe17      1.0  0.20561  0.63092  0.29886  1.0000
  S   S32       1.0  0.24268  0.61458  0.29131  1.0000
  S   S33       1.0  0.28150  0.64498  0.37272  1.0000
  Fe  Fe18      1.0  0.20174  0.61053  0.37919  1.0000
  S   S34       1.0  0.23826  0.59322  0.37702  1.0000
  S   S35       1.0  0.17904  0.60617  0.43145  1.0000
  Fe  Fe19      1.0  0.24926  0.62721  0.34981  1.0000
  H   H101      1.0  0.33893  0.32509  0.40361  1.0000
  Fe  Fe20      1.0  0.22833  0.58169  0.31904  1.0000
  S   S36       1.0  0.24267  0.54456  0.30237  1.0000
  H   H102      1.0  0.12424  0.59587  0.33178  1.0000
  S   S37       1.0  0.19060  0.59702  0.32232  1.0000
  Fe  Fe21      1.0  0.21424  0.37124  0.37581  1.0000
  S   S38       1.0  0.23525  0.40079  0.35132  1.0000
  S   S39       1.0  0.22355  0.36175  0.43664  1.0000
  Fe  Fe22      1.0  0.19267  0.35946  0.29764  1.0000
  S   S40       1.0  0.21176  0.38888  0.26899  1.0000
  C   C100      1.0  0.03514  0.65481  0.09959  1.0000
  Fe  Fe23      1.0  0.24305  0.37558  0.30350  1.0000
  S   S41       1.0  0.27948  0.37064  0.27766  1.0000
  Fe  Fe24      1.0  0.20189  0.41124  0.31990  1.0000
  S   S42       1.0  0.18546  0.44917  0.32185  1.0000
  S   S43       1.0  0.22478  0.34519  0.32978  1.0000
  S   S44       1.0  0.18013  0.38261  0.34670  1.0000
  C   C101      1.0  0.22650  0.51822  0.30811  1.0000
  C   C102      1.0  0.23842  0.49575  0.30391  1.0000
  C   C103      1.0  0.22612  0.47443  0.30782  1.0000
  C   C104      1.0  0.20166  0.47541  0.31542  1.0000
  C   C105      1.0  0.18974  0.49789  0.31962  1.0000
  C   C106      1.0  0.20211  0.51919  0.31633  1.0000
  H   H103      1.0  0.25725  0.49481  0.29737  1.0000
  H   H104      1.0  0.23550  0.45726  0.30453  1.0000
  H   H105      1.0  0.17081  0.49882  0.32540  1.0000
  H   H106      1.0  0.19270  0.53635  0.31942  1.0000
  C   C107      1.0  0.21619  0.48407  0.40508  1.0000
  C   C108      1.0  0.15686  0.35405  0.15873  1.0000
  C   C109      1.0  0.16554  0.35319  0.19590  1.0000
  N   N10       1.0  0.19244  0.44991  0.41542  1.0000
  C   C110      1.0  0.32425  0.35380  0.29353  1.0000
  H   H107      1.0  0.15953  0.36979  0.14174  1.0000
  H   H108      1.0  0.17470  0.36819  0.20719  1.0000
  C   C111      1.0  0.18764  0.38476  0.47908  1.0000
  C   C112      1.0  0.20949  0.37180  0.47894  1.0000
  H   H109      1.0  0.14315  0.64773  0.42890  1.0000
  H   H110      1.0  0.17856  0.38844  0.45287  1.0000
  H   H111      1.0  0.12668  0.62004  0.27304  1.0000
  H   H112      1.0  0.03281  0.63575  0.09680  1.0000
  C   C113      1.0  0.19054  0.61473  0.47552  1.0000
  C   C114      1.0  0.34336  0.62187  0.34074  1.0000
  C   C115      1.0  0.19399  0.47374  0.40746  1.0000
  H   H113      1.0  0.32963  0.37099  0.28325  1.0000
  H   H114      1.0  0.25091  0.43458  0.42569  1.0000
  C   C116      1.0  0.16148  0.63954  0.20773  1.0000
  C   C117      1.0  0.07113  0.38012  0.04496  1.0000
  H   H115      1.0  0.16290  0.62359  0.22493  1.0000
  N   N11       1.0  0.32596  0.60799  0.32049  1.0000
  C   C118      1.0  0.31099  0.59381  0.34011  1.0000
  C   C119      1.0  0.32565  0.60830  0.28202  1.0000
  C   C120      1.0  0.29518  0.57944  0.32119  1.0000
  C   C121      1.0  0.30990  0.59430  0.26222  1.0000
  C   C122      1.0  0.29468  0.57969  0.28201  1.0000
  C   C123      1.0  0.13114  0.62773  0.29998  1.0000
  C   C124      1.0  0.34152  0.33695  0.30609  1.0000
  H   H116      1.0  0.33743  0.61964  0.26646  1.0000
  H   H117      1.0  0.21934  0.63428  0.45232  1.0000
  H   H118      1.0  0.33615  0.62790  0.36848  1.0000
  H   H119      1.0  0.07336  0.65110  0.10540  1.0000
  H   H120      1.0  0.15602  0.44924  0.39864  1.0000
  H   H121      1.0  0.34766  0.63834  0.32492  1.0000
  H   H122      1.0  0.36001  0.61085  0.34515  1.0000
  C   C125      1.0  0.14601  0.64057  0.17654  1.0000
  H   H123      1.0  0.28331  0.33498  0.21466  1.0000
  H   H124      1.0  0.25415  0.47757  0.40849  1.0000
  C   C126      1.0  0.13883  0.65106  0.30176  1.0000
  C   C127      1.0  0.30529  0.34439  0.39808  1.0000
  C   C128      1.0  0.21038  0.62892  0.47775  1.0000
  C   C129      1.0  0.13599  0.62436  0.36719  1.0000
  H   H125      1.0  0.10003  0.37784  0.08472  1.0000
  C   C130      1.0  0.21252  0.43610  0.42300  1.0000
  H   H126      1.0  0.13555  0.62533  0.17007  1.0000
  H   H127      1.0  0.28227  0.56877  0.26711  1.0000
  C   C131      1.0  0.23682  0.46992  0.41145  1.0000
  H   H128      1.0  0.17033  0.42070  0.40519  1.0000
  H   H129      1.0  0.21130  0.41724  0.42963  1.0000
  H   H130      1.0  0.26914  0.35852  0.39269  1.0000
  H   H131      1.0  0.08406  0.34358  0.11889  1.0000
  H   H132      1.0  0.17018  0.65665  0.40714  1.0000
  H   H133      1.0  0.31094  0.59383  0.37061  1.0000
  C   C132      1.0  0.23501  0.44584  0.42091  1.0000
  C   C133      1.0  0.04981  0.37037  0.03389  1.0000
  H   H134      1.0  0.16241  0.43864  0.44607  1.0000
  C   C134      1.0  0.16209  0.33311  0.21844  1.0000
  N   N12       1.0  0.05362  0.34125  0.08351  1.0000
  H   H135      1.0  0.21739  0.50269  0.39687  1.0000
  S   S45       1.0  0.13375  0.33744  0.09660  1.0000
  H   H136      1.0  0.28317  0.56832  0.33674  1.0000
  C   C135      1.0  0.16911  0.43917  0.41669  1.0000
  C   C136      1.0  0.08327  0.37062  0.07604  1.0000
  S   S46       1.0  0.21331  0.64556  0.35643  1.0000
  H   H137      1.0  0.31322  0.36106  0.39035  1.0000
  H   H138      1.0  0.30941  0.59481  0.23174  1.0000
  C   C137      1.0  0.04110  0.35105  0.05396  1.0000
  C   C138      1.0  0.30012  0.34883  0.29502  1.0000
  H   H139      1.0  0.13517  0.61360  0.39255  1.0000
  C   C139      1.0  0.07419  0.35109  0.09517  1.0000
  C   C140      1.0  0.14475  0.33485  0.14342  1.0000
  C   C141      1.0  0.28058  0.34290  0.39895  1.0000
  S   S47       1.0  0.17249  0.33121  0.26568  1.0000
  H   H140      1.0  0.36008  0.34142  0.30613  1.0000
  C   C142      1.0  0.12973  0.61422  0.33288  1.0000
  N   N13       1.0  0.14346  0.64733  0.36865  1.0000
  C   C143      1.0  0.29333  0.32638  0.30801  1.0000
  H   H141      1.0  0.02455  0.34353  0.04509  1.0000
  H   H142      1.0  0.28647  0.64995  0.29133  1.0000
  H   H143      1.0  0.24347  0.33978  0.24159  1.0000
  H   H144      1.0  0.03147  0.32702  0.12567  1.0000
  H   H145      1.0  0.07839  0.39479  0.02925  1.0000
  H   H146      1.0  0.16375  0.59696  0.50742  1.0000
  C   C144      1.0  0.17914  0.60789  0.50888  1.0000
  C   C145      1.0  0.31973  0.32396  0.40570  1.0000
  H   H147      1.0  0.04031  0.37738  0.00951  1.0000
  Fe  Fe25      1.0  0.20434  0.58648  0.70634  1.0000
  S   S48       1.0  0.17809  0.61342  0.68038  1.0000
  S   S49       1.0  0.18840  0.54994  0.71334  1.0000
  Fe  Fe26      1.0  0.24113  0.62477  0.71758  1.0000
  H   H148      1.0  0.26114  0.64103  0.65138  1.0000
  S   S50       1.0  0.27868  0.63437  0.73325  1.0000
  Fe  Fe27      1.0  0.18832  0.63713  0.72830  1.0000
  C   C146      1.0  0.16640  0.35104  0.82933  1.0000
  Fe  Fe28      1.0  0.20960  0.62671  0.64840  1.0000
  S   S51       1.0  0.21739  0.64088  0.58973  1.0000
  S   S52       1.0  0.21305  0.60990  0.75560  1.0000
  S   S53       1.0  0.23510  0.59830  0.67123  1.0000
  Fe  Fe29      1.0  0.21967  0.35785  0.70219  1.0000
  S   S54       1.0  0.18113  0.35718  0.68560  1.0000
  H   H149      1.0  0.22380  0.50535  0.63303  1.0000
  Fe  Fe30      1.0  0.21687  0.41226  0.71055  1.0000
  S   S55       1.0  0.17815  0.41466  0.69578  1.0000
  S   S56       1.0  0.23832  0.44557  0.71756  1.0000
  Fe  Fe31      1.0  0.17487  0.38255  0.73382  1.0000
  S   S57       1.0  0.14329  0.37785  0.77348  1.0000
  Fe  Fe32      1.0  0.18849  0.38889  0.64931  1.0000
  S   S58       1.0  0.17429  0.39675  0.59035  1.0000
  S   S59       1.0  0.21309  0.38188  0.75209  1.0000
  S   S60       1.0  0.22746  0.38783  0.66225  1.0000
  C   C147      1.0  0.18828  0.38688  0.54792  1.0000
  H   H150      1.0  0.17854  0.60989  0.56971  1.0000
  C   C148      1.0  0.21014  0.37393  0.54778  1.0000
  H   H151      1.0  0.24939  0.33870  0.62797  1.0000
  H   H152      1.0  0.21886  0.36961  0.57410  1.0000
  C   C149      1.0  0.14499  0.36181  0.81668  1.0000
  H   H153      1.0  0.15008  0.48870  0.62884  1.0000
  S   S61       1.0  0.09786  0.32572  0.00429  1.0000
  C   C150      1.0  0.14569  0.33260  0.88208  1.0000
  H   H154      1.0  0.18265  0.35347  0.81366  1.0000
  C   C151      1.0  0.16188  0.63874  0.87012  1.0000
  C   C152      1.0  0.20710  0.62971  0.54639  1.0000
  C   C153      1.0  0.18751  0.61514  0.54423  1.0000
  C   C154      1.0  0.12406  0.35856  0.83769  1.0000
  C   C155      1.0  0.12440  0.34414  0.87035  1.0000
  C   C156      1.0  0.18629  0.49991  0.63051  1.0000
  C   C157      1.0  0.20308  0.52139  0.71727  1.0000
  C   C158      1.0  0.22786  0.51810  0.71490  1.0000
  C   C159      1.0  0.23849  0.49480  0.71612  1.0000
  C   C160      1.0  0.22446  0.47463  0.71923  1.0000
  C   C161      1.0  0.19973  0.47802  0.72212  1.0000
  C   C162      1.0  0.18915  0.50127  0.72142  1.0000
  H   H155      1.0  0.23880  0.53345  0.71194  1.0000
  H   H156      1.0  0.25766  0.49237  0.71425  1.0000
  H   H157      1.0  0.18873  0.46274  0.72501  1.0000
  H   H158      1.0  0.16997  0.50362  0.72348  1.0000
  C   C163      1.0  0.22065  0.36644  0.51346  1.0000
  N   N14       1.0  0.21668  0.46848  0.62563  1.0000
  C   C164      1.0  0.16754  0.64075  0.83169  1.0000
  C   C165      1.0  0.16877  0.48310  0.62722  1.0000
  H   H159      1.0  0.29198  0.63340  0.64671  1.0000
  H   H160      1.0  0.17957  0.62763  0.81858  1.0000
  N   N15       1.0  0.12434  0.60643  0.81923  1.0000
  C   C166      1.0  0.13324  0.59061  0.84558  1.0000
  C   C167      1.0  0.13227  0.60520  0.78282  1.0000
  C   C168      1.0  0.15086  0.57324  0.83584  1.0000
  C   C169      1.0  0.14971  0.58793  0.77211  1.0000
  C   C170      1.0  0.15908  0.57191  0.79881  1.0000
  C   C171      1.0  0.10544  0.62409  0.82966  1.0000
  H   H161      1.0  0.12705  0.59168  0.87451  1.0000
  H   H162      1.0  0.12548  0.61789  0.76194  1.0000
  H   H163      1.0  0.15812  0.56089  0.85684  1.0000
  H   H164      1.0  0.15599  0.58697  0.74327  1.0000
  H   H165      1.0  0.17272  0.55851  0.79072  1.0000
  H   H166      1.0  0.10684  0.62931  0.85973  1.0000
  H   H167      1.0  0.10682  0.64077  0.81288  1.0000
  H   H168      1.0  0.31795  0.33168  0.74205  1.0000
  C   C172      1.0  0.17544  0.45900  0.62232  1.0000
  H   H169      1.0  0.25253  0.47195  0.64343  1.0000
  H   H170      1.0  0.18136  0.51866  0.63521  1.0000
  H   H171      1.0  0.10742  0.36690  0.82824  1.0000
  H   H172      1.0  0.27321  0.63537  0.60515  1.0000
  C   C173      1.0  0.14601  0.65539  0.88758  1.0000
  C   C174      1.0  0.24194  0.46080  0.62442  1.0000
  H   H173      1.0  0.27622  0.34598  0.72863  1.0000
  H   H174      1.0  0.16959  0.62398  0.88633  1.0000
  H   H175      1.0  0.16203  0.44567  0.61972  1.0000
  C   C175      1.0  0.16669  0.33647  0.86171  1.0000
  H   H176      1.0  0.16013  0.40210  0.51325  1.0000
  C   C176      1.0  0.21032  0.49225  0.62945  1.0000
  H   H177      1.0  0.20463  0.43318  0.61790  1.0000
  H   H178      1.0  0.24461  0.44210  0.63481  1.0000
  H   H179      1.0  0.08774  0.61660  0.82487  1.0000
  C   C177      1.0  0.19962  0.45198  0.62143  1.0000
  H   H180      1.0  0.24887  0.46201  0.59529  1.0000
  S   S62       1.0  0.13733  0.65028  0.93465  1.0000
  H   H181      1.0  0.29045  0.33895  0.64185  1.0000
  S   S63       1.0  0.21686  0.65342  0.69358  1.0000
  H   H182      1.0  0.24964  0.32645  0.58095  1.0000
  C   C178      1.0  0.27684  0.64337  0.63299  1.0000
  H   H183      1.0  0.23099  0.65075  0.86119  1.0000
  H   H184      1.0  0.14748  0.32809  0.73285  1.0000
  C   C179      1.0  0.21844  0.63655  0.51299  1.0000
  H   H185      1.0  0.10809  0.34133  0.88567  1.0000
  C   C180      1.0  0.28128  0.32716  0.72638  1.0000
  H   H186      1.0  0.23750  0.35636  0.51365  1.0000
  C   C181      1.0  0.17716  0.39232  0.51339  1.0000
  H   H187      1.0  0.18327  0.32773  0.87058  1.0000
  H   H188      1.0  0.23357  0.64782  0.51438  1.0000
  H   H189      1.0  0.32498  0.65484  0.72954  1.0000
  Fe  Fe33      1.0  0.30072  0.85664  0.05140  1.0000
  S   S64       1.0  0.27094  0.88398  0.06210  1.0000
  S   S65       1.0  0.32425  0.83410  0.09168  1.0000
  N   N16       1.0  0.26502  0.71227  0.35676  1.0000
  H   H190      1.0  0.21344  0.81304  0.10991  1.0000
  C   C182      1.0  0.36640  0.79125  0.47610  1.0000
  H   H191      1.0  0.04435  0.73482  0.13843  1.0000
  C   C183      1.0  0.24151  0.76478  0.06931  1.0000
  H   H192      1.0  0.20475  0.77378  0.08247  1.0000
  H   H193      1.0  0.34356  0.79659  0.13850  1.0000
  H   H194      1.0  0.31433  0.67355  0.25298  1.0000
  Fe  Fe34      1.0  0.12129  0.68499  0.06313  1.0000
  C   C184      1.0  0.17260  0.67989  0.19408  1.0000
  S   S66       1.0  0.10903  0.72377  0.05760  1.0000
  Fe  Fe35      1.0  0.35785  0.76592  0.37562  1.0000
  S   S67       1.0  0.38656  0.74078  0.35266  1.0000
  S   S68       1.0  0.34364  0.75738  0.43399  1.0000
  Fe  Fe36      1.0  0.35224  0.79273  0.29916  1.0000
  S   S69       1.0  0.38062  0.76948  0.27146  1.0000
  S   S70       1.0  0.33215  0.82358  0.26943  1.0000
  Fe  Fe37      1.0  0.36313  0.73923  0.30168  1.0000
  S   S71       1.0  0.35069  0.70585  0.27359  1.0000
  Fe  Fe38      1.0  0.40127  0.77340  0.32521  1.0000
  S   S72       1.0  0.43805  0.78860  0.33111  1.0000
  S   S73       1.0  0.33359  0.76237  0.32595  1.0000
  S   S74       1.0  0.37369  0.79874  0.35152  1.0000
  H   H195      1.0  0.27941  0.76125  0.05941  1.0000
  H   H196      1.0  0.06166  0.73446  0.09527  1.0000
  C   C185      1.0  0.33027  0.69191  0.33996  1.0000
  C   C186      1.0  0.33029  0.69009  0.30079  1.0000
  H   H197      1.0  0.42893  0.75798  0.39541  1.0000
  C   C187      1.0  0.31509  0.67805  0.36158  1.0000
  H   H198      1.0  0.15213  0.67835  0.33719  1.0000
  H   H199      1.0  0.34249  0.70350  0.35368  1.0000
  H   H200      1.0  0.24976  0.68496  0.32373  1.0000
  H   H201      1.0  0.18256  0.69539  0.20108  1.0000
  C   C188      1.0  0.48671  0.78723  0.33600  1.0000
  C   C189      1.0  0.04457  0.72951  0.10840  1.0000
  C   C190      1.0  0.46677  0.77465  0.32503  1.0000
  C   C191      1.0  0.47030  0.75194  0.30906  1.0000
  H   H202      1.0  0.00358  0.70784  0.09931  1.0000
  C   C192      1.0  0.25395  0.70420  0.32202  1.0000
  H   H203      1.0  0.45513  0.74205  0.30042  1.0000
  H   H204      1.0  0.99770  0.66449  0.09417  1.0000
  C   C193      1.0  0.35342  0.77047  0.47617  1.0000
  C   C194      1.0  0.29864  0.66160  0.30497  1.0000
  C   C195      1.0  0.44794  0.78329  0.47602  1.0000
  H   H205      1.0  0.45940  0.78515  0.41782  1.0000
  C   C196      1.0  0.20001  0.82213  0.02514  1.0000
  H   H206      1.0  0.16846  0.82845  0.05903  1.0000
  C   C197      1.0  0.27931  0.73147  0.35580  1.0000
  C   C198      1.0  0.26046  0.70108  0.39013  1.0000
  C   C199      1.0  0.31442  0.67492  0.28332  1.0000
  C   C200      1.0  0.41533  0.75881  0.48867  1.0000
  H   H207      1.0  0.31885  0.98765  0.01507  1.0000
  H   H208      1.0  0.03040  0.73995  0.09299  1.0000
  C   C201      1.0  0.26929  0.79438  0.08734  1.0000
  H   H209      1.0  0.23725  0.71493  0.31651  1.0000
  C   C202      1.0  0.22805  0.80143  0.09978  1.0000
  C   C203      1.0  0.17460  0.65938  0.21704  1.0000
  S   S75       1.0  0.15034  0.68812  0.02036  1.0000
  C   C204      1.0  0.25574  0.83195  0.11775  1.0000
  C   C205      1.0  0.32305  0.83002  0.14114  1.0000
  C   C206      1.0  0.31224  0.84705  0.16518  1.0000
  C   C207      1.0  0.31442  0.84439  0.20450  1.0000
  C   C208      1.0  0.32727  0.82465  0.22015  1.0000
  C   C209      1.0  0.33722  0.80716  0.19609  1.0000
  C   C210      1.0  0.33514  0.80988  0.15684  1.0000
  H   H210      1.0  0.30305  0.86274  0.15353  1.0000
  H   H211      1.0  0.30665  0.85802  0.22288  1.0000
  H   H212      1.0  0.34707  0.79185  0.20766  1.0000
  C   C211      1.0  0.26485  0.77229  0.07100  1.0000
  H   H213      1.0  0.24911  0.68587  0.39099  1.0000
  H   H214      1.0  0.30145  0.75458  0.38798  1.0000
  C   C212      1.0  0.27125  0.70833  0.42337  1.0000
  N   N17       1.0  0.25092  0.80883  0.10077  1.0000
  H   H215      1.0  0.48419  0.80479  0.34845  1.0000
  H   H216      1.0  0.23766  0.74791  0.05613  1.0000
  C   C213      1.0  0.42985  0.76234  0.42505  1.0000
  H   H217      1.0  0.27295  0.83866  0.10764  1.0000
  C   C214      1.0  0.22301  0.77928  0.08419  1.0000
  H   H218      1.0  0.37052  0.79987  0.44974  1.0000
  C   C215      1.0  0.28999  0.73946  0.38866  1.0000
  C   C216      1.0  0.15762  0.68068  0.16231  1.0000
  H   H219      1.0  0.28749  0.80011  0.08848  1.0000
  Fe  Fe39      1.0  0.24955  0.86208  0.02183  1.0000
  H   H220      1.0  0.25652  0.83021  0.14881  1.0000
  N   N18       1.0  0.39110  0.83712  0.23504  1.0000
  C   C217      1.0  0.37670  0.85539  0.22118  1.0000
  C   C218      1.0  0.40144  0.82046  0.21129  1.0000
  C   C219      1.0  0.37228  0.85729  0.18258  1.0000
  C   C220      1.0  0.39722  0.82170  0.17255  1.0000
  C   C221      1.0  0.38257  0.84029  0.15818  1.0000
  C   C222      1.0  0.39601  0.83608  0.27547  1.0000
  H   H221      1.0  0.36796  0.86817  0.24015  1.0000
  H   H222      1.0  0.41277  0.80590  0.22229  1.0000
  H   H223      1.0  0.36020  0.87129  0.17177  1.0000
  H   H224      1.0  0.40490  0.80813  0.15386  1.0000
  H   H225      1.0  0.37847  0.84108  0.12835  1.0000
  H   H226      1.0  0.37920  0.83877  0.29183  1.0000
  H   H227      1.0  0.40418  0.81845  0.28402  1.0000
  H   H228      1.0  0.40843  0.85012  0.28327  1.0000
  S   S76       1.0  0.21263  0.84955  0.03872  1.0000
  S   S77       1.0  0.29405  0.94357  0.01134  1.0000
  H   H229      1.0  0.24171  0.84568  0.10987  1.0000
  S   S78       1.0  0.12260  0.66221  0.11674  1.0000
  Fe  Fe40      1.0  0.13676  0.72621  0.01129  1.0000
  N   N19       1.0  0.04134  0.70373  0.10502  1.0000
  C   C223      1.0  0.41378  0.75295  0.45056  1.0000
  H   H230      1.0  0.15612  0.69668  0.14520  1.0000
  H   H231      1.0  0.39989  0.74156  0.44085  1.0000
  C   C224      1.0  0.28621  0.72760  0.42249  1.0000
  H   H232      1.0  0.15074  0.78962  0.04364  1.0000
  H   H233      1.0  0.28287  0.74046  0.32944  1.0000
  H   H234      1.0  0.29507  0.73333  0.44780  1.0000
  S   S79       1.0  0.04445  0.72490  0.01321  1.0000
  C   C225      1.0  0.44704  0.77762  0.43774  1.0000
  C   C226      1.0  0.16775  0.79399  0.03170  1.0000
  H   H235      1.0  0.26831  0.69878  0.44944  1.0000
  H   H236      1.0  0.31574  0.67904  0.39193  1.0000
  C   C227      1.0  0.17785  0.81604  0.04034  1.0000
  C   C228      1.0  0.01891  0.69544  0.10123  1.0000
  S   S80       1.0  0.27858  0.83417  0.01437  1.0000
  C   C229      1.0  0.29923  0.66290  0.34421  1.0000
  H   H237      1.0  0.46118  0.79541  0.48565  1.0000
  H   H238      1.0  0.26628  0.70592  0.29770  1.0000
  S   S81       1.0  0.09525  0.67204  0.02030  1.0000
  C   C230      1.0  0.06065  0.68805  0.10727  1.0000
  H   H239      1.0  0.07843  0.69451  0.11101  1.0000
  C   C231      1.0  0.01548  0.67088  0.09828  1.0000
  C   C232      1.0  0.05787  0.66340  0.10432  1.0000
  Fe  Fe41      1.0  0.08394  0.71072  0.01273  1.0000
  Fe  Fe42      1.0  0.28402  0.90346  0.01036  1.0000
  H   H240      1.0  0.14389  0.67660  0.40696  1.0000
  C   C233      1.0  0.99510  0.72901  0.01709  1.0000
  H   H241      1.0  0.99774  0.74799  0.01957  1.0000
  C   C234      1.0  0.14534  0.66050  0.33641  1.0000
  C   C235      1.0  0.01515  0.71314  0.01288  1.0000
  H   H242      1.0  0.14035  0.66160  0.27628  1.0000
  C   C236      1.0  0.14397  0.66112  0.15362  1.0000
  N   N20       1.0  0.43226  0.77381  0.50094  1.0000
  S   S82       1.0  0.19190  0.66039  0.25882  1.0000
  C   C237      1.0  0.15046  0.65766  0.40460  1.0000
  C   C238      1.0  0.01122  0.68866  0.00966  1.0000
  H   H243      1.0  0.40249  0.75175  0.50818  1.0000
  Fe  Fe43      1.0  0.29095  0.85612  0.96564  1.0000
  S   S83       1.0  0.26021  0.88343  0.97075  1.0000
  S   S84       1.0  0.29850  0.83133  0.91541  1.0000
  C   C239      1.0  0.31893  0.69282  0.72006  1.0000
  C   C240      1.0  0.45516  0.83174  0.75246  1.0000
  C   C241      1.0  0.27043  0.68309  0.72372  1.0000
  H   H244      1.0  0.31594  0.79425  0.86636  1.0000
  Fe  Fe44      1.0  0.12368  0.67845  0.97685  1.0000
  C   C242      1.0  0.19902  0.69828  0.82519  1.0000
  S   S85       1.0  0.11085  0.71638  0.96587  1.0000
  Fe  Fe45      1.0  0.36754  0.80134  0.72944  1.0000
  S   S86       1.0  0.36989  0.76318  0.74850  1.0000
  S   S87       1.0  0.36463  0.83276  0.77006  1.0000
  Fe  Fe46      1.0  0.37396  0.78700  0.64540  1.0000
  S   S88       1.0  0.37650  0.74776  0.65916  1.0000
  S   S89       1.0  0.37966  0.80240  0.58685  1.0000
  Fe  Fe47      1.0  0.34611  0.75610  0.69947  1.0000
  S   S90       1.0  0.30931  0.74106  0.70424  1.0000
  Fe  Fe48      1.0  0.40020  0.75894  0.70670  1.0000
  S   S91       1.0  0.43550  0.74059  0.72350  1.0000
  S   S92       1.0  0.34214  0.79490  0.68241  1.0000
  S   S93       1.0  0.39921  0.79763  0.69083  1.0000
  C   C243      1.0  0.36877  0.79004  0.54481  1.0000
  H   H245      1.0  0.42614  0.79954  0.54402  1.0000
  C   C244      1.0  0.30398  0.67662  0.63026  1.0000
  C   C245      1.0  0.48583  0.78580  0.68703  1.0000
  H   H246      1.0  0.35176  0.76063  0.57125  1.0000
  C   C246      1.0  0.30180  0.71149  0.71538  1.0000
  H   H247      1.0  0.13328  0.69054  0.81130  1.0000
  H   H248      1.0  0.21112  0.77158  0.97335  1.0000
  C   C247      1.0  0.21894  0.66643  0.86022  1.0000
  H   H249      1.0  0.45257  0.84828  0.73676  1.0000
  C   C248      1.0  0.27759  0.70651  0.71756  1.0000
  C   C249      1.0  0.29473  0.80226  0.76155  1.0000
  H   H250      1.0  0.45159  0.77907  0.55148  1.0000
  H   H251      1.0  0.26424  0.72086  0.71416  1.0000
  H   H252      1.0  0.12372  0.68720  0.87943  1.0000
  C   C250      1.0  0.46401  0.77477  0.69222  1.0000
  C   C251      1.0  0.46304  0.75360  0.71302  1.0000
  C   C252      1.0  0.30831  0.70093  0.62615  1.0000
  C   C253      1.0  0.37393  0.80103  0.51030  1.0000
  H   H253      1.0  0.44796  0.78289  0.68049  1.0000
  C   C254      1.0  0.41816  0.78647  0.80058  1.0000
  H   H254      1.0  0.31300  0.83010  0.73270  1.0000
  H   H255      1.0  0.31884  0.66412  0.63579  1.0000
  C   C255      1.0  0.48432  0.74308  0.72730  1.0000
  C   C256      1.0  0.46105  0.78875  0.79086  1.0000
  C   C257      1.0  0.14150  0.67616  0.82776  1.0000
  H   H256      1.0  0.42190  0.76939  0.55867  1.0000
  C   C258      1.0  0.35582  0.76924  0.54487  1.0000
  N   N21       1.0  0.19150  0.69406  0.89142  1.0000
  H   H257      1.0  0.29869  0.86180  0.77651  1.0000
  C   C259      1.0  0.17965  0.77775  0.00749  1.0000
  H   H258      1.0  0.26188  0.81080  0.84104  1.0000
  H   H259      1.0  0.25112  0.72175  0.61478  1.0000
  H   H260      1.0  0.16240  0.71239  0.91986  1.0000
  C   C260      1.0  0.43308  0.78074  0.54065  1.0000
  C   C261      1.0  0.32019  0.83148  0.87902  1.0000
  C   C262      1.0  0.33126  0.85231  0.86793  1.0000
  C   C263      1.0  0.34546  0.85228  0.83510  1.0000
  C   C264      1.0  0.34886  0.83145  0.81329  1.0000
  C   C265      1.0  0.33867  0.81039  0.82537  1.0000
  C   C266      1.0  0.32435  0.81047  0.85794  1.0000
  H   H261      1.0  0.32822  0.86861  0.88388  1.0000
  H   H262      1.0  0.35341  0.86863  0.82612  1.0000
  H   H263      1.0  0.34123  0.79419  0.80906  1.0000
  N   N22       1.0  0.27900  0.83825  0.81075  1.0000
  H   H264      1.0  0.22328  0.67175  0.80052  1.0000
  H   H265      1.0  0.46347  0.77149  0.80459  1.0000
  C   C267      1.0  0.18766  0.70611  0.85834  1.0000
  C   C268      1.0  0.13614  0.67438  0.86639  1.0000
  C   C269      1.0  0.28739  0.66425  0.72751  1.0000
  C   C270      1.0  0.31170  0.66926  0.72619  1.0000
  N   N23       1.0  0.43868  0.79877  0.78563  1.0000
  H   H266      1.0  0.24444  0.67848  0.62127  1.0000
  H   H267      1.0  0.17528  0.72151  0.85726  1.0000
  H   H268      1.0  0.27574  0.77852  0.79740  1.0000
  H   H269      1.0  0.19519  0.70723  0.79866  1.0000
  C   C271      1.0  0.29307  0.84368  0.78071  1.0000
  H   H270      1.0  0.32622  0.70723  0.62898  1.0000
  C   C272      1.0  0.28922  0.71729  0.62061  1.0000
  C   C273      1.0  0.34806  0.75961  0.51070  1.0000
  C   C274      1.0  0.27030  0.85746  0.83593  1.0000
  H   H271      1.0  0.30128  0.78813  0.74280  1.0000
  H   H272      1.0  0.25593  0.86844  0.82213  1.0000
  H   H273      1.0  0.26331  0.85029  0.86282  1.0000
  H   H274      1.0  0.28507  0.86908  0.84369  1.0000
  H   H275      1.0  0.25176  0.67976  0.72599  1.0000
  H   H276      1.0  0.29233  0.73630  0.61902  1.0000
  C   C275      1.0  0.26612  0.70917  0.61864  1.0000
  H   H277      1.0  0.24800  0.96739  0.98940  1.0000
  S   S94       1.0  0.16198  0.66129  0.76108  1.0000
  N   N24       1.0  0.28124  0.66886  0.62881  1.0000
  H   H278      1.0  0.48380  0.72661  0.74322  1.0000
  H   H279      1.0  0.33766  0.69646  0.71854  1.0000
  C   C276      1.0  0.27255  0.81521  0.81669  1.0000
  C   C277      1.0  0.26091  0.98102  0.99290  1.0000
  C   C278      1.0  0.30116  0.82581  0.75570  1.0000
  H   H280      1.0  0.41763  0.76828  0.78815  1.0000
  C   C279      1.0  0.28036  0.79688  0.79224  1.0000
  H   H281      1.0  0.41944  0.78487  0.83161  1.0000
  H   H282      1.0  0.33799  0.74356  0.51101  1.0000
  H   H283      1.0  0.40103  0.79623  0.79401  1.0000
  C   C280      1.0  0.26245  0.68471  0.62259  1.0000
  H   H284      1.0  0.41776  0.82791  0.76229  1.0000
  C   C281      1.0  0.43553  0.82003  0.76677  1.0000
  C   C282      1.0  0.48107  0.80021  0.77755  1.0000
  C   C283      1.0  0.21471  0.67828  0.82619  1.0000
  C   C284      1.0  0.17950  0.70244  0.92594  1.0000
  H   H285      1.0  0.17501  0.68711  0.94422  1.0000
  H   H286      1.0  0.19109  0.71443  0.94181  1.0000
  C   C285      1.0  0.20713  0.67463  0.89279  1.0000
  H   H287      1.0  0.22892  0.81020  0.98906  1.0000
  C   C286      1.0  0.20172  0.78392  0.99214  1.0000
  C   C287      1.0  0.47806  0.82174  0.75798  1.0000
  C   C288      1.0  0.28431  0.97424  0.00302  1.0000
  S   S95       1.0  0.31540  0.87679  0.00208  1.0000
  C   C289      1.0  0.21188  0.80587  0.00095  1.0000
  H   H288      1.0  0.48623  0.80255  0.67183  1.0000
  H   H289      1.0  0.21019  0.66513  0.91906  1.0000
  S   S96       1.0  0.16827  0.74940  0.99573  1.0000
  H   H290      1.0  0.02628  0.67613  0.00635  1.0000
  C   C290      1.0  0.15702  0.65922  0.81015  1.0000
  H   H291      1.0  0.38386  0.81718  0.51001  1.0000
  Fe  Fe49      1.0  0.68411  0.12985  0.07090  1.0000
  S   S97       1.0  0.68335  0.14746  0.12926  1.0000
  S   S98       1.0  0.71378  0.10228  0.05901  1.0000
  Fe  Fe50      1.0  0.84297  0.30742  0.05818  1.0000
  C   C291      1.0  0.65391  0.13624  0.33430  1.0000
  S   S99       1.0  0.86182  0.27353  0.07754  1.0000
  Fe  Fe51      1.0  0.59306  0.19586  0.38462  1.0000
  S   S100      1.0  0.58899  0.23582  0.38228  1.0000
  S   S101      1.0  0.59028  0.17438  0.43875  1.0000
  Fe  Fe52      1.0  0.59911  0.19158  0.29791  1.0000
  S   S102      1.0  0.59557  0.23144  0.29007  1.0000
  S   S103      1.0  0.59903  0.16542  0.24882  1.0000
  Fe  Fe53      1.0  0.61933  0.23320  0.34077  1.0000
  S   S104      1.0  0.65390  0.25125  0.35165  1.0000
  Fe  Fe54      1.0  0.56545  0.22993  0.33226  1.0000
  S   S105      1.0  0.53018  0.25046  0.32270  1.0000
  S   S106      1.0  0.62473  0.19322  0.34594  1.0000
  S   S107      1.0  0.56763  0.19006  0.33707  1.0000
  C   C292      1.0  0.50263  0.23616  0.32512  1.0000
  C   C293      1.0  0.50157  0.21185  0.33390  1.0000
  H   H292      1.0  0.51761  0.20165  0.34119  1.0000
  Fe  Fe55      1.0  0.88585  0.27765  0.02658  1.0000
  C   C294      1.0  0.66377  0.27815  0.33260  1.0000
  C   C295      1.0  0.64991  0.29263  0.30831  1.0000
  H   H293      1.0  0.68932  0.26902  0.45877  1.0000
  C   C296      1.0  0.53977  0.19991  0.23921  1.0000
  H   H294      1.0  0.65349  0.00056  0.03680  1.0000
  C   C297      1.0  0.68595  0.28576  0.34429  1.0000
  H   H295      1.0  0.63273  0.28688  0.29917  1.0000
  C   C298      1.0  0.53076  0.24266  0.22864  1.0000
  C   C299      1.0  0.53277  0.17655  0.24562  1.0000
  H   H296      1.0  0.69675  0.27467  0.36310  1.0000
  H   H297      1.0  0.70060  0.31764  0.22228  1.0000
  H   H298      1.0  0.64890  0.27194  0.43144  1.0000
  N   N25       1.0  0.73700  0.31236  0.23820  1.0000
  H   H299      1.0  0.82684  0.30079  0.22148  1.0000
  S   S108      1.0  0.69408  0.15384  0.02296  1.0000
  N   N26       1.0  0.60881  0.12964  0.36415  1.0000
  C   C300      1.0  0.91260  0.29940  0.12034  1.0000
  H   H300      1.0  0.83522  0.30056  0.15277  1.0000
  C   C301      1.0  0.97588  0.26503  0.04048  1.0000
  C   C302      1.0  0.59678  0.18743  0.48287  1.0000
  N   N27       1.0  0.52311  0.21837  0.23607  1.0000
  C   C303      1.0  0.60889  0.20871  0.48513  1.0000
  H   H301      1.0  0.61406  0.21773  0.45965  1.0000
  C   C304      1.0  0.72391  0.26868  0.26750  1.0000
  C   C305      1.0  0.65012  0.13759  0.37306  1.0000
  H   H302      1.0  0.92390  0.28369  0.11384  1.0000
  H   H303      1.0  0.54613  0.16206  0.24845  1.0000
  C   C306      1.0  0.65921  0.15288  0.16118  1.0000
  C   C307      1.0  0.63701  0.14290  0.15638  1.0000
  C   C308      1.0  0.61874  0.14706  0.18327  1.0000
  C   C309      1.0  0.62230  0.16147  0.21497  1.0000
  C   C310      1.0  0.64442  0.17161  0.21964  1.0000
  C   C311      1.0  0.66277  0.16720  0.19301  1.0000
  H   H304      1.0  0.63402  0.13176  0.13217  1.0000
  H   H305      1.0  0.60176  0.13902  0.17940  1.0000
  H   H306      1.0  0.64748  0.18268  0.24388  1.0000
  H   H307      1.0  0.67986  0.17499  0.19704  1.0000
  C   C312      1.0  0.75381  0.29735  0.25461  1.0000
  C   C313      1.0  0.49169  0.19097  0.24445  1.0000
  H   H308      1.0  0.68864  0.27881  0.24800  1.0000
  H   H309      1.0  0.62269  0.29139  0.38632  1.0000
  C   C314      1.0  0.79604  0.20446  0.03617  1.0000
  C   C315      1.0  0.69402  0.30797  0.33288  1.0000
  C   C316      1.0  0.63490  0.13180  0.31061  1.0000
  C   C317      1.0  0.76090  0.17992  0.03399  1.0000
  N   N28       1.0  0.78852  0.14546  0.09461  1.0000
  C   C318      1.0  0.79035  0.16604  0.11497  1.0000
  C   C319      1.0  0.76792  0.13328  0.09544  1.0000
  C   C320      1.0  0.77090  0.17539  0.13578  1.0000
  C   C321      1.0  0.74827  0.14197  0.11634  1.0000
  C   C322      1.0  0.74969  0.16327  0.13625  1.0000
  C   C323      1.0  0.80896  0.13596  0.07275  1.0000
  H   H310      1.0  0.80656  0.17594  0.11389  1.0000
  H   H311      1.0  0.76635  0.11707  0.07906  1.0000
  H   H312      1.0  0.77215  0.19219  0.15065  1.0000
  H   H313      1.0  0.73184  0.13250  0.11669  1.0000
  H   H314      1.0  0.73419  0.17038  0.15158  1.0000
  H   H315      1.0  0.81976  0.12304  0.08998  1.0000
  H   H316      1.0  0.80292  0.12683  0.04691  1.0000
  H   H317      1.0  0.82035  0.15060  0.06316  1.0000
  S   S109      1.0  0.92642  0.26924  0.03576  1.0000
  H   H318      1.0  0.76432  0.21080  0.06959  1.0000
  H   H319      1.0  0.77217  0.30247  0.25657  1.0000
  C   C324      1.0  0.70709  0.28372  0.24953  1.0000
  Fe  Fe56      1.0  0.83666  0.25447  0.03945  1.0000
  H   H320      1.0  0.76075  0.26397  0.28390  1.0000
  H   H321      1.0  0.71077  0.31374  0.34319  1.0000
  S   S110      1.0  0.65771  0.11055  0.03593  1.0000
  S   S111      1.0  0.81671  0.28839  0.02331  1.0000
  H   H322      1.0  0.91840  0.31587  0.06681  1.0000
  H   H323      1.0  0.55864  0.20315  0.23701  1.0000
  S   S112      1.0  0.81238  0.22555  0.06159  1.0000
  C   C325      1.0  0.62728  0.13435  0.38758  1.0000
  H   H324      1.0  0.67140  0.13912  0.32251  1.0000
  C   C326      1.0  0.61229  0.12871  0.32607  1.0000
  C   C327      1.0  0.58487  0.12662  0.37955  1.0000
  H   H325      1.0  0.71857  0.25198  0.27989  1.0000
  C   C328      1.0  0.95621  0.27874  0.02637  1.0000
  H   H326      1.0  0.63747  0.13131  0.28032  1.0000
  C   C329      1.0  0.66007  0.28730  0.42994  1.0000
  N   N29       1.0  0.65226  0.30773  0.41175  1.0000
  H   H327      1.0  0.57387  0.14341  0.37577  1.0000
  H   H328      1.0  0.66461  0.14165  0.39173  1.0000
  H   H329      1.0  0.62753  0.32107  0.37061  1.0000
  H   H330      1.0  0.62435  0.13606  0.41767  1.0000
  C   C330      1.0  0.68294  0.28549  0.44536  1.0000
  C   C331      1.0  0.74747  0.27545  0.26993  1.0000
  C   C332      1.0  0.71397  0.30565  0.23501  1.0000
  H   H331      1.0  0.59751  0.12592  0.30728  1.0000
  C   C333      1.0  0.77282  0.19967  0.04815  1.0000
  H   H332      1.0  0.58538  0.12269  0.41022  1.0000
  C   C334      1.0  0.50857  0.17212  0.24846  1.0000
  H   H333      1.0  0.50286  0.15415  0.25394  1.0000
  H   H334      1.0  0.57611  0.11168  0.36543  1.0000
  C   C335      1.0  0.82184  0.31634  0.20471  1.0000
  H   H335      1.0  0.51789  0.25625  0.24077  1.0000
  H   H336      1.0  0.90275  0.28695  0.17538  1.0000
  C   C336      1.0  0.62821  0.30928  0.39582  1.0000
  S   S113      1.0  0.67725  0.04427  0.02225  1.0000
  H   H337      1.0  0.97273  0.24892  0.05631  1.0000
  H   H338      1.0  0.74336  0.17607  0.04443  1.0000
  C   C337      1.0  0.68815  0.01359  0.02393  1.0000
  C   C338      1.0  0.90933  0.31767  0.09372  1.0000
  Fe  Fe57      1.0  0.68802  0.08402  0.02101  1.0000
  C   C339      1.0  0.67187  0.99549  0.03058  1.0000
  C   C340      1.0  0.65828  0.31482  0.29628  1.0000
  C   C341      1.0  0.69771  0.30485  0.44250  1.0000
  C   C342      1.0  0.49933  0.21411  0.23809  1.0000
  H   H339      1.0  0.71565  0.30361  0.45378  1.0000
  H   H340      1.0  0.53246  0.24563  0.19792  1.0000
  C   C343      1.0  0.82664  0.31617  0.16573  1.0000
  H   H341      1.0  0.54811  0.24568  0.24239  1.0000
  C   C344      1.0  0.90073  0.30123  0.15480  1.0000
  C   C345      1.0  0.88598  0.32135  0.16240  1.0000
  H   H342      1.0  0.87636  0.32287  0.18889  1.0000
  H   H343      1.0  0.61527  0.31633  0.41714  1.0000
  C   C346      1.0  0.68035  0.32261  0.30876  1.0000
  C   C347      1.0  0.71191  0.00657  0.01625  1.0000
  Fe  Fe58      1.0  0.72220  0.12575  0.00939  1.0000
  H   H344      1.0  0.72473  0.02009  0.01109  1.0000
  S   S114      1.0  0.86192  0.25551  0.99024  1.0000
  H   H345      1.0  0.70574  0.23537  0.62778  1.0000
  H   H346      1.0  0.54990  0.28498  0.80088  1.0000
  H   H347      1.0  0.55369  0.17774  0.87141  1.0000
  H   H348      1.0  0.54180  0.17657  0.82465  1.0000
  H   H349      1.0  0.62414  0.11079  0.80338  1.0000
  Fe  Fe59      1.0  0.67020  0.13242  0.98665  1.0000
  S   S115      1.0  0.64351  0.15244  0.94807  1.0000
  S   S116      1.0  0.69895  0.10527  0.96980  1.0000
  Fe  Fe60      1.0  0.62311  0.19530  0.73841  1.0000
  S   S117      1.0  0.59925  0.22284  0.76671  1.0000
  S   S118      1.0  0.64738  0.16894  0.77076  1.0000
  Fe  Fe61      1.0  0.60707  0.21197  0.65855  1.0000
  S   S119      1.0  0.58120  0.23963  0.68298  1.0000
  S   S120      1.0  0.61745  0.21889  0.59738  1.0000
  Fe  Fe62      1.0  0.61091  0.24812  0.72185  1.0000
  S   S121      1.0  0.61708  0.28766  0.72799  1.0000
  Fe  Fe63      1.0  0.57181  0.21167  0.72517  1.0000
  S   S122      1.0  0.53651  0.20639  0.75471  1.0000
  S   S123      1.0  0.63711  0.22151  0.69666  1.0000
  S   S124      1.0  0.59531  0.18278  0.69812  1.0000
  H   H350      1.0  0.61453  0.11829  0.87079  1.0000
  H   H351      1.0  0.60265  0.13444  0.75404  1.0000
  C   C348      1.0  0.75092  0.22184  0.96688  1.0000
  H   H352      1.0  0.58408  0.14938  0.88799  1.0000
  H   H353      1.0  0.78563  0.19601  0.89884  1.0000
  H   H354      1.0  0.79611  0.25994  0.96023  1.0000
  Fe  Fe64      1.0  0.84275  0.29067  0.97551  1.0000
  H   H355      1.0  0.57178  0.16519  0.77229  1.0000
  C   C349      1.0  0.69637  0.29577  0.62697  1.0000
  C   C350      1.0  0.68923  0.28532  0.72018  1.0000
  C   C351      1.0  0.60993  0.12359  0.81113  1.0000
  H   H356      1.0  0.62587  0.29434  0.63975  1.0000
  H   H357      1.0  0.56617  0.19554  0.83443  1.0000
  C   C352      1.0  0.76455  0.24154  0.97446  1.0000
  C   C353      1.0  0.67134  0.25414  0.62710  1.0000
  H   H358      1.0  0.94618  0.31027  0.99449  1.0000
  H   H359      1.0  0.70346  0.27166  0.72011  1.0000
  C   C354      1.0  0.60842  0.20655  0.55396  1.0000
  C   C355      1.0  0.59597  0.18546  0.55178  1.0000
  H   H360      1.0  0.66199  0.31385  0.62905  1.0000
  H   H361      1.0  0.59103  0.17633  0.57729  1.0000
  H   H362      1.0  0.68462  0.02644  0.93311  1.0000
  C   C356      1.0  0.50898  0.20816  0.73069  1.0000
  C   C357      1.0  0.50796  0.21133  0.69177  1.0000
  H   H363      1.0  0.52424  0.21204  0.67554  1.0000
  N   N30       1.0  0.79316  0.22820  0.92782  1.0000
  H   H364      1.0  0.79450  0.29600  0.85308  1.0000
  C   C358      1.0  0.55524  0.27173  0.77891  1.0000
  H   H365      1.0  0.51137  0.25616  0.77269  1.0000
  C   C359      1.0  0.64701  0.29603  0.72443  1.0000
  C   C360      1.0  0.66561  0.27868  0.72482  1.0000
  H   H366      1.0  0.80399  0.15808  0.97466  1.0000
  C   C361      1.0  0.67146  0.29658  0.62768  1.0000
  N   N31       1.0  0.65929  0.27590  0.62822  1.0000
  H   H367      1.0  0.66190  0.26009  0.72900  1.0000
  C   C362      1.0  0.58729  0.14554  0.85847  1.0000
  C   C363      1.0  0.60454  0.12779  0.84892  1.0000
  C   C364      1.0  0.51714  0.26578  0.74799  1.0000
  C   C365      1.0  0.50928  0.27972  0.68488  1.0000
  N   N32       1.0  0.57562  0.15859  0.83105  1.0000
  S   S125      1.0  0.72443  0.31585  0.70499  1.0000
  C   C366      1.0  0.64719  0.15875  0.89948  1.0000
  C   C367      1.0  0.63234  0.17662  0.88275  1.0000
  C   C368      1.0  0.63283  0.18058  0.84359  1.0000
  C   C369      1.0  0.64810  0.16656  0.82061  1.0000
  C   C370      1.0  0.66339  0.14911  0.83745  1.0000
  C   C371      1.0  0.66302  0.14526  0.87667  1.0000
  H   H368      1.0  0.62012  0.18722  0.90017  1.0000
  H   H369      1.0  0.62107  0.19414  0.83116  1.0000
  H   H370      1.0  0.67533  0.13822  0.81997  1.0000
  H   H371      1.0  0.67451  0.13142  0.88912  1.0000
  C   C372      1.0  0.59788  0.13692  0.78341  1.0000
  H   H372      1.0  0.62451  0.23433  0.52179  1.0000
  S   S126      1.0  0.82398  0.29281  0.91848  1.0000
  C   C373      1.0  0.59036  0.17586  0.51636  1.0000
  C   C374      1.0  0.50171  0.26825  0.71735  1.0000
  C   C375      1.0  0.77980  0.20893  0.91998  1.0000
  H   H373      1.0  0.82482  0.19304  0.99947  1.0000
  H   H374      1.0  0.70602  0.31217  0.62807  1.0000
  H   H375      1.0  0.82248  0.21535  0.89358  1.0000
  H   H376      1.0  0.98783  0.32200  0.98303  1.0000
  C   C376      1.0  0.80512  0.31168  0.85313  1.0000
  H   H377      1.0  0.81151  0.24572  0.88427  1.0000
  H   H378      1.0  0.62627  0.27383  0.60000  1.0000
  H   H379      1.0  0.73471  0.21904  0.98269  1.0000
  S   S127      1.0  0.75970  0.13724  0.99402  1.0000
  H   H380      1.0  0.66166  0.23775  0.62664  1.0000
  H   H381      1.0  0.72813  0.27294  0.62890  1.0000
  H   H382      1.0  0.58102  0.15938  0.51495  1.0000
  H   H383      1.0  0.74830  0.18976  0.93399  1.0000
  C   C377      1.0  0.58069  0.15448  0.79393  1.0000
  C   C378      1.0  0.55847  0.17804  0.84108  1.0000
  C   C379      1.0  0.61481  0.21808  0.52044  1.0000
  H   H384      1.0  0.56447  0.29368  0.71386  1.0000
  C   C380      1.0  0.81508  0.23210  0.90661  1.0000
  C   C381      1.0  0.70881  0.27367  0.62751  1.0000
  C   C382      1.0  0.78566  0.24453  0.95436  1.0000
  C   C383      1.0  0.75855  0.20541  0.93949  1.0000
  C   C384      1.0  0.69460  0.30938  0.71521  1.0000
  C   C385      1.0  0.63319  0.27696  0.62869  1.0000
  C   C386      1.0  0.54680  0.28652  0.71505  1.0000
  C   C387      1.0  0.79504  0.16989  0.99475  1.0000
  C   C388      1.0  0.98466  0.30611  0.99937  1.0000
  C   C389      1.0  0.69626  0.25267  0.62728  1.0000
  H   H385      1.0  0.53803  0.29796  0.65855  1.0000
  C   C390      1.0  0.53192  0.28906  0.68370  1.0000
  C   C391      1.0  0.96087  0.29948  0.00586  1.0000
  H   H386      1.0  0.62641  0.26296  0.64759  1.0000
  C   C392      1.0  0.65230  0.32023  0.72007  1.0000
  N   N33       1.0  0.53948  0.27455  0.74634  1.0000
  H   H387      1.0  0.82904  0.23891  0.92537  1.0000
  H   H388      1.0  0.49764  0.28115  0.66063  1.0000
  C   C393      1.0  0.82127  0.31501  0.88263  1.0000
  H   H389      1.0  0.57417  0.27437  0.77116  1.0000
  H   H390      1.0  0.55439  0.25335  0.79069  1.0000
  C   C394      1.0  0.80684  0.18983  0.00857  1.0000
  H   H391      1.0  0.64361  0.01482  0.94801  1.0000
  C   C395      1.0  0.65726  0.00112  0.94150  1.0000
  C   C396      1.0  0.77225  0.16448  0.00804  1.0000
  C   C397      1.0  0.68035  0.00768  0.93306  1.0000
  H   H392      1.0  0.75904  0.25425  0.99612  1.0000
  H   H393      1.0  0.71641  0.99490  0.92219  1.0000
  S   S128      1.0  0.86793  0.31291  0.00890  1.0000
  Fe  Fe65      1.0  0.77073  0.60309  0.37817  1.0000
  S   S129      1.0  0.74090  0.58283  0.35308  1.0000
  S   S130      1.0  0.77630  0.59327  0.44017  1.0000
  Fe  Fe66      1.0  0.78415  0.62406  0.30040  1.0000
  S   S131      1.0  0.75523  0.60507  0.27137  1.0000
  H   H394      1.0  0.87172  0.35850  0.06628  1.0000
  Fe  Fe67      1.0  0.73234  0.61639  0.32046  1.0000
  H   H395      1.0  0.81346  0.55837  0.47488  1.0000
  Fe  Fe68      1.0  0.76653  0.57322  0.30675  1.0000
  S   S132      1.0  0.76886  0.53707  0.27783  1.0000
  C   C398      1.0  0.82467  0.65056  0.14085  1.0000
  S   S133      1.0  0.79726  0.59135  0.33299  1.0000
  Fe  Fe69      1.0  0.75721  0.35509  0.38767  1.0000
  S   S134      1.0  0.72776  0.38122  0.37190  1.0000
  S   S135      1.0  0.75111  0.33865  0.44516  1.0000
  Fe  Fe70      1.0  0.77972  0.35792  0.30792  1.0000
  S   S136      1.0  0.75165  0.38507  0.28808  1.0000
  H   H396      1.0  0.90060  0.35198  0.04640  1.0000
  Fe  Fe71      1.0  0.75636  0.40236  0.34493  1.0000
  S   S137      1.0  0.75530  0.44031  0.36798  1.0000
  Fe  Fe72      1.0  0.72598  0.36137  0.31768  1.0000
  S   S138      1.0  0.69094  0.35020  0.29315  1.0000
  S   S139      1.0  0.78626  0.37677  0.36322  1.0000
  H   H397      1.0  0.89727  0.37336  0.08413  1.0000
  C   C399      1.0  0.76665  0.51019  0.30357  1.0000
  C   C400      1.0  0.76759  0.48825  0.28430  1.0000
  C   C401      1.0  0.76432  0.46661  0.30360  1.0000
  C   C402      1.0  0.76004  0.46681  0.34234  1.0000
  C   C403      1.0  0.75910  0.48876  0.36157  1.0000
  C   C404      1.0  0.76242  0.51037  0.34232  1.0000
  H   H398      1.0  0.77080  0.48799  0.25430  1.0000
  H   H399      1.0  0.76509  0.44981  0.28853  1.0000
  H   H400      1.0  0.75582  0.48905  0.39155  1.0000
  H   H401      1.0  0.76158  0.52716  0.35740  1.0000
  C   C405      1.0  0.80991  0.35656  0.16133  1.0000
  C   C406      1.0  0.80457  0.35652  0.20014  1.0000
  C   C407      1.0  0.74572  0.41375  0.50133  1.0000
  H   H402      1.0  0.80563  0.37240  0.14478  1.0000
  H   H403      1.0  0.79635  0.37228  0.21319  1.0000
  C   C408      1.0  0.88313  0.33928  0.13513  1.0000
  C   C409      1.0  0.76402  0.34976  0.48651  1.0000
  C   C410      1.0  0.78505  0.36221  0.48540  1.0000
  C   C411      1.0  0.81202  0.63183  0.15687  1.0000
  H   H404      1.0  0.79373  0.36533  0.45874  1.0000
  S   S140      1.0  0.83194  0.64930  0.09191  1.0000
  C   C412      1.0  0.76930  0.61022  0.48122  1.0000
  C   C413      1.0  0.80610  0.63174  0.19551  1.0000
  C   C414      1.0  0.77837  0.42401  0.46095  1.0000
  H   H405      1.0  0.72717  0.56032  0.23460  1.0000
  S   S141      1.0  0.82955  0.33834  0.09575  1.0000
  H   H406      1.0  0.75942  0.34218  0.23766  1.0000
  C   C415      1.0  0.71482  0.54547  0.23837  1.0000
  H   H407      1.0  0.70099  0.34074  0.42166  1.0000
  H   H408      1.0  0.64759  0.32602  0.27746  1.0000
  H   H409      1.0  0.83805  0.62199  0.02601  1.0000
  S   S142      1.0  0.80672  0.33629  0.27182  1.0000
  H   H410      1.0  0.78550  0.55020  0.49396  1.0000
  H   H411      1.0  0.68375  0.54664  0.38017  1.0000
  S   S143      1.0  0.75363  0.33372  0.33481  1.0000
  H   H412      1.0  0.71884  0.64940  0.24097  1.0000
  H   H413      1.0  0.71808  0.50939  0.28823  1.0000
  H   H414      1.0  0.67743  0.58250  0.33923  1.0000
  C   C416      1.0  0.89099  0.35621  0.07310  1.0000
  C   C417      1.0  0.74386  0.33534  0.22257  1.0000
  C   C418      1.0  0.75530  0.41614  0.46520  1.0000
  C   C419      1.0  0.77720  0.63342  0.48583  1.0000
  S   S144      1.0  0.69435  0.62845  0.30710  1.0000
  H   H415      1.0  0.80694  0.61714  0.13936  1.0000
  H   H416      1.0  0.70440  0.50989  0.35415  1.0000
  H   H417      1.0  0.69210  0.58145  0.27372  1.0000
  H   H418      1.0  0.87108  0.35456  0.14080  1.0000
  H   H419      1.0  0.74867  0.33327  0.19241  1.0000
  C   C420      1.0  0.82111  0.33647  0.14392  1.0000
  H   H420      1.0  0.78598  0.42574  0.43299  1.0000
  H   H421      1.0  0.66046  0.34306  0.39454  1.0000
  H   H422      1.0  0.72529  0.52870  0.23151  1.0000
  C   C421      1.0  0.68596  0.56619  0.32812  1.0000
  C   C422      1.0  0.69438  0.56554  0.29105  1.0000
  C   C423      1.0  0.81288  0.65036  0.21883  1.0000
  H   H423      1.0  0.79662  0.61705  0.20734  1.0000
  C   C424      1.0  0.68955  0.54610  0.35105  1.0000
  C   C425      1.0  0.66649  0.32694  0.40932  1.0000
  C   C426      1.0  0.70893  0.52540  0.29914  1.0000
  H   H424      1.0  0.78498  0.64254  0.46222  1.0000
  H   H425      1.0  0.69982  0.54764  0.21832  1.0000
  N   N34       1.0  0.70585  0.54537  0.27713  1.0000
  C   C427      1.0  0.68451  0.65692  0.32352  1.0000
  S   S145      1.0  0.76039  0.63758  0.34819  1.0000
  C   C428      1.0  0.70108  0.52553  0.33651  1.0000
  H   H426      1.0  0.72914  0.34915  0.22572  1.0000
  H   H427      1.0  0.81249  0.53277  0.50541  1.0000
  C   C429      1.0  0.79159  0.42933  0.49274  1.0000
  S   S146      1.0  0.80624  0.65088  0.26799  1.0000
  N   N35       1.0  0.89461  0.33721  0.10123  1.0000
  C   C430      1.0  0.81089  0.33653  0.22220  1.0000
  H   H428      1.0  0.72790  0.40731  0.50441  1.0000
  H   H429      1.0  0.80973  0.43495  0.48973  1.0000
  C   C431      1.0  0.68944  0.32576  0.42451  1.0000
  C   C432      1.0  0.80478  0.55109  0.50039  1.0000
  H   H430      1.0  0.82156  0.59520  0.50168  1.0000
  H   H431      1.0  0.79766  0.64041  0.03338  1.0000
  H   H432      1.0  0.74506  0.41177  0.44054  1.0000
  H   H433      1.0  0.81719  0.62909  0.79701  1.0000
  Fe  Fe73      1.0  0.76253  0.62701  0.74047  1.0000
  S   S147      1.0  0.73932  0.59508  0.74458  1.0000
  H   H434      1.0  0.86952  0.61867  0.95091  1.0000
  Fe  Fe74      1.0  0.76107  0.62554  0.65277  1.0000
  S   S148      1.0  0.73794  0.59402  0.65192  1.0000
  C   C433      1.0  0.83283  0.64441  0.84662  1.0000
  Fe  Fe75      1.0  0.71785  0.61306  0.69849  1.0000
  H   H435      1.0  0.81172  0.37940  0.51798  1.0000
  Fe  Fe76      1.0  0.76170  0.57906  0.69761  1.0000
  S   S149      1.0  0.77894  0.54153  0.69305  1.0000
  N   N36       1.0  0.66052  0.63309  0.79783  1.0000
  S   S150      1.0  0.78658  0.60988  0.69610  1.0000
  Fe  Fe77      1.0  0.78674  0.37147  0.73849  1.0000
  S   S151      1.0  0.74757  0.37683  0.75041  1.0000
  S   S152      1.0  0.81421  0.37006  0.78585  1.0000
  Fe  Fe78      1.0  0.77876  0.37519  0.65227  1.0000
  S   S153      1.0  0.73916  0.38016  0.65871  1.0000
  S   S154      1.0  0.79657  0.37830  0.59497  1.0000
  Fe  Fe79      1.0  0.74789  0.40551  0.70548  1.0000
  S   S155      1.0  0.72835  0.44192  0.71135  1.0000
  Fe  Fe80      1.0  0.74283  0.35116  0.70262  1.0000
  H   H436      1.0  0.68785  0.60680  0.78431  1.0000
  S   S156      1.0  0.78729  0.40200  0.69689  1.0000
  S   S157      1.0  0.78225  0.34441  0.69284  1.0000
  C   C434      1.0  0.78419  0.36620  0.55387  1.0000
  C   C435      1.0  0.76310  0.35381  0.55497  1.0000
  S   S158      1.0  0.77103  0.64470  0.59868  1.0000
  H   H437      1.0  0.75455  0.35053  0.58168  1.0000
  H   H438      1.0  0.73705  0.33559  0.52255  1.0000
  C   C436      1.0  0.81662  0.34845  0.82261  1.0000
  C   C437      1.0  0.64136  0.61644  0.79263  1.0000
  C   C438      1.0  0.63623  0.64092  0.70817  1.0000
  H   H439      1.0  0.93679  0.65399  0.91207  1.0000
  S   S159      1.0  0.67766  0.61507  0.69723  1.0000
  H   H440      1.0  0.86619  0.59873  0.99035  1.0000
  C   C439      1.0  0.76809  0.63197  0.55325  1.0000
  C   C440      1.0  0.75911  0.60926  0.54826  1.0000
  H   H441      1.0  0.84992  0.63515  0.84236  1.0000
  H   H442      1.0  0.75248  0.59960  0.57215  1.0000
  C   C441      1.0  0.83265  0.35191  0.85223  1.0000
  C   C442      1.0  0.76422  0.51416  0.69741  1.0000
  C   C443      1.0  0.74008  0.51339  0.70699  1.0000
  C   C444      1.0  0.72928  0.49116  0.71077  1.0000
  C   C445      1.0  0.74243  0.46951  0.70482  1.0000
  C   C446      1.0  0.76651  0.47034  0.69494  1.0000
  C   C447      1.0  0.77732  0.49251  0.69143  1.0000
  H   H443      1.0  0.72975  0.52989  0.71164  1.0000
  H   H444      1.0  0.71064  0.49076  0.71836  1.0000
  H   H445      1.0  0.77688  0.45391  0.69022  1.0000
  H   H446      1.0  0.79600  0.49288  0.68403  1.0000
  S   S160      1.0  0.73935  0.64562  0.69663  1.0000
  H   H447      1.0  0.81340  0.60720  0.62007  1.0000
  H   H448      1.0  0.76143  0.41813  0.59253  1.0000
  C   C448      1.0  0.83490  0.33536  0.88219  1.0000
  C   C449      1.0  0.85835  0.60463  0.96304  1.0000
  H   H449      1.0  0.75573  0.38741  0.87186  1.0000
  C   C450      1.0  0.79524  0.37009  0.51901  1.0000
  H   H450      1.0  0.62780  0.62438  0.70170  1.0000
  H   H451      1.0  0.84357  0.36737  0.85185  1.0000
  H   H452      1.0  0.62415  0.62613  0.78629  1.0000
  N   N37       1.0  0.75876  0.41912  0.53237  1.0000
  H   H453      1.0  0.79710  0.56675  0.62714  1.0000
  C   C451      1.0  0.75979  0.59846  0.51250  1.0000
  C   C452      1.0  0.66105  0.64184  0.70661  1.0000
  C   C453      1.0  0.79610  0.62620  0.94053  1.0000
  H   H454      1.0  0.82575  0.62129  0.55711  1.0000
  C   C454      1.0  0.80268  0.32834  0.82343  1.0000
  H   H455      1.0  0.82541  0.60985  0.90981  1.0000
  C   C455      1.0  0.82629  0.62291  0.00189  1.0000
  H   H456      1.0  0.73427  0.43179  0.57423  1.0000
  H   H457      1.0  0.85893  0.58892  0.94396  1.0000
  C   C456      1.0  0.68369  0.62508  0.79314  1.0000
  C   C457      1.0  0.80093  0.55844  0.56801  1.0000
  C   C458      1.0  0.81950  0.60333  0.56056  1.0000
  C   C459      1.0  0.81706  0.58847  0.52935  1.0000
  H   H458      1.0  0.78472  0.62788  0.91599  1.0000
  C   C460      1.0  0.80306  0.57287  0.59980  1.0000
  H   H459      1.0  0.79323  0.54109  0.57118  1.0000
  H   H460      1.0  0.64541  0.60441  0.76830  1.0000
  C   C461      1.0  0.81427  0.64089  0.82080  1.0000
  H   H461      1.0  0.73968  0.39958  0.57306  1.0000
  H   H462      1.0  0.63926  0.60547  0.81835  1.0000
  C   C462      1.0  0.75319  0.34544  0.52143  1.0000
  C   C463      1.0  0.81239  0.59546  0.59594  1.0000
  H   H463      1.0  0.68003  0.34552  0.71147  1.0000
  C   C464      1.0  0.78144  0.42682  0.52848  1.0000
  H   H464      1.0  0.76854  0.37280  0.83068  1.0000
  N   N38       1.0  0.77100  0.41046  0.83128  1.0000
  C   C465      1.0  0.79225  0.42026  0.82257  1.0000
  C   C466      1.0  0.75002  0.42132  0.81965  1.0000
  C   C467      1.0  0.79284  0.44155  0.80194  1.0000
  C   C468      1.0  0.74995  0.44288  0.79966  1.0000
  C   C469      1.0  0.77151  0.45298  0.79065  1.0000
  C   C470      1.0  0.77061  0.38751  0.85123  1.0000
  H   H465      1.0  0.80895  0.41129  0.83070  1.0000
  H   H466      1.0  0.73322  0.41311  0.82517  1.0000
  H   H467      1.0  0.80974  0.44885  0.79414  1.0000
  H   H468      1.0  0.73330  0.45131  0.79003  1.0000
  H   H469      1.0  0.77167  0.46938  0.77430  1.0000
  H   H470      1.0  0.78745  0.38362  0.86681  1.0000
  H   H471      1.0  0.63800  0.33380  0.71997  1.0000
  C   C471      1.0  0.74795  0.41716  0.56981  1.0000
  H   H472      1.0  0.79204  0.43035  0.55312  1.0000
  N   N39       1.0  0.83386  0.61430  0.96772  1.0000
  C   C472      1.0  0.81913  0.61590  0.93722  1.0000
  H   H473      1.0  0.79027  0.32541  0.80089  1.0000
  C   C473      1.0  0.67607  0.32693  0.71542  1.0000
  H   H474      1.0  0.84749  0.33811  0.90451  1.0000
  H   H475      1.0  0.64701  0.65408  0.62706  1.0000
  C   C474      1.0  0.78825  0.63507  0.97527  1.0000
  H   H476      1.0  0.68810  0.63773  0.61706  1.0000
  C   C475      1.0  0.80339  0.63336  0.00622  1.0000
  N   N40       1.0  0.80800  0.56627  0.53339  1.0000
  S   S161      1.0  0.76778  0.64900  0.79434  1.0000
  C   C476      1.0  0.77657  0.64423  0.52167  1.0000
  C   C477      1.0  0.70230  0.64053  0.79821  1.0000
  H   H477      1.0  0.72060  0.63425  0.79386  1.0000
  C   C478      1.0  0.79204  0.65273  0.82571  1.0000
  H   H478      1.0  0.77061  0.64351  0.97812  1.0000
  H   H479      1.0  0.75365  0.58053  0.50937  1.0000
  H   H480      1.0  0.90573  0.65637  0.90005  1.0000
  C   C479      1.0  0.68447  0.65697  0.61733  1.0000
  C   C480      1.0  0.65528  0.65626  0.80832  1.0000
  Fe  Fe81      1.0  0.85006  0.67585  0.05294  1.0000
  S   S162      1.0  0.87271  0.70711  0.06519  1.0000
  Fe  Fe82      1.0  0.69817  0.89475  0.01413  1.0000
  Fe  Fe83      1.0  0.68101  0.85207  0.06072  1.0000
  S   S163      1.0  0.67578  0.82835  0.11268  1.0000
  S   S164      1.0  0.71765  0.86505  0.04721  1.0000
  Fe  Fe84      1.0  0.62928  0.75425  0.34325  1.0000
  S   S165      1.0  0.63163  0.79317  0.35825  1.0000
  S   S166      1.0  0.66493  0.73478  0.35258  1.0000
  Fe  Fe85      1.0  0.57611  0.76036  0.32551  1.0000
  S   S167      1.0  0.57539  0.79942  0.33913  1.0000
  S   S168      1.0  0.54273  0.74236  0.30565  1.0000
  Fe  Fe86      1.0  0.60982  0.80021  0.30629  1.0000
  S   S169      1.0  0.61507  0.83132  0.26560  1.0000
  Fe  Fe87      1.0  0.59742  0.78820  0.38950  1.0000
  S   S170      1.0  0.58842  0.80329  0.44750  1.0000
  S   S171      1.0  0.60934  0.76161  0.28931  1.0000
  S   S172      1.0  0.59624  0.74896  0.37773  1.0000
  C   C481      1.0  0.51360  0.75477  0.31454  1.0000
  H   H481      1.0  0.52504  0.78718  0.33992  1.0000
  H   H482      1.0  0.77799  0.69058  0.30280  1.0000
  C   C482      1.0  0.54949  0.83235  0.25607  1.0000
  C   C483      1.0  0.66316  0.66757  0.30987  1.0000
  C   C484      1.0  0.65616  0.69117  0.32001  1.0000
  C   C485      1.0  0.67050  0.70408  0.34398  1.0000
  C   C486      1.0  0.69130  0.69303  0.35874  1.0000
  C   C487      1.0  0.71254  0.66827  0.23607  1.0000
  S   S173      1.0  0.93847  0.68425  0.01657  1.0000
  H   H483      1.0  0.64007  0.69957  0.30857  1.0000
  C   C488      1.0  0.69833  0.66958  0.34848  1.0000
  C   C489      1.0  0.74748  0.71512  0.30927  1.0000
  H   H484      1.0  0.54101  0.78592  0.26430  1.0000
  C   C490      1.0  0.59781  0.78822  0.48917  1.0000
  H   H485      1.0  0.56338  0.83822  0.27583  1.0000
  C   C491      1.0  0.58606  0.79774  0.18505  1.0000
  H   H486      1.0  0.69415  0.70849  0.26731  1.0000
  C   C492      1.0  0.57518  0.81665  0.20532  1.0000
  C   C493      1.0  0.50996  0.77731  0.33104  1.0000
  C   C494      1.0  0.65825  0.82971  0.15457  1.0000
  C   C495      1.0  0.64471  0.85016  0.16526  1.0000
  C   C496      1.0  0.63178  0.85041  0.19943  1.0000
  C   C497      1.0  0.63205  0.83021  0.22316  1.0000
  C   C498      1.0  0.64527  0.80964  0.21215  1.0000
  C   C499      1.0  0.65836  0.80947  0.17820  1.0000
  H   H487      1.0  0.64449  0.86591  0.14753  1.0000
  H   H488      1.0  0.62164  0.86645  0.20764  1.0000
  H   H489      1.0  0.64563  0.79396  0.23001  1.0000
  H   H490      1.0  0.66878  0.79355  0.17029  1.0000
  H   H491      1.0  0.59944  0.80128  0.16386  1.0000
  C   C500      1.0  0.76367  0.81566  0.12414  1.0000
  H   H492      1.0  0.71406  0.73571  0.31027  1.0000
  C   C501      1.0  0.56370  0.77009  0.22174  1.0000
  H   H493      1.0  0.66468  0.82847  0.44155  1.0000
  C   C502      1.0  0.55339  0.78943  0.24170  1.0000
  H   H494      1.0  0.58046  0.83476  0.19967  1.0000
  N   N41       1.0  0.55920  0.81234  0.23339  1.0000
  C   C503      1.0  0.58027  0.77431  0.19343  1.0000
  H   H495      1.0  0.79638  0.79392  0.12311  1.0000
  H   H496      1.0  0.71454  0.66144  0.35971  1.0000
  N   N42       1.0  0.64295  0.82415  0.48991  1.0000
  H   H497      1.0  0.54395  0.84771  0.23782  1.0000
  H   H498      1.0  0.61335  0.84856  0.48040  1.0000
  H   H499      1.0  0.58890  0.75942  0.17848  1.0000
  C   C504      1.0  0.82538  0.66918  0.20278  1.0000
  H   H500      1.0  0.72888  0.83331  0.11905  1.0000
  H   H501      1.0  0.75629  0.72680  0.32859  1.0000
  H   H502      1.0  0.63320  0.82775  0.43188  1.0000
  H   H503      1.0  0.72784  0.77396  0.02469  1.0000
  C   C505      1.0  0.77819  0.79603  0.11306  1.0000
  C   C506      1.0  0.64785  0.82018  0.44982  1.0000
  C   C507      1.0  0.61658  0.77096  0.48885  1.0000
  H   H504      1.0  0.84100  0.68384  0.15232  1.0000
  H   H505      1.0  0.53375  0.82725  0.27285  1.0000
  C   C508      1.0  0.72391  0.72023  0.29877  1.0000
  H   H506      1.0  0.62424  0.76499  0.46235  1.0000
  H   H507      1.0  0.71621  0.67320  0.20645  1.0000
  C   C509      1.0  0.75960  0.69479  0.29503  1.0000
  C   C510      1.0  0.83121  0.66934  0.16406  1.0000
  C   C511      1.0  0.71267  0.70466  0.27453  1.0000
  S   S174      1.0  0.66150  0.88277  0.03047  1.0000
  C   C512      1.0  0.80975  0.77715  0.01144  1.0000
  C   C513      1.0  0.67897  0.97090  0.02856  1.0000
  H   H508      1.0  0.78083  0.76425  0.07942  1.0000
  H   H509      1.0  0.83081  0.68366  0.22048  1.0000
  C   C514      1.0  0.73737  0.76470  0.04829  1.0000
  H   H510      1.0  0.64923  0.80068  0.44368  1.0000
  C   C515      1.0  0.62481  0.83968  0.50107  1.0000
  C   C516      1.0  0.74778  0.67961  0.27088  1.0000
  H   H511      1.0  0.72487  0.75318  0.06340  1.0000
  H   H512      1.0  0.81343  0.80944  0.04349  1.0000
  H   H513      1.0  0.70239  0.70290  0.37746  1.0000
  H   H514      1.0  0.77036  0.82887  0.14325  1.0000
  H   H515      1.0  0.75731  0.66381  0.25999  1.0000
  H   H516      1.0  0.55930  0.75193  0.22905  1.0000
  N   N43       1.0  0.72449  0.68441  0.26153  1.0000
  H   H517      1.0  0.71430  0.80365  0.07437  1.0000
  N   N44       1.0  0.74668  0.78230  0.07423  1.0000
  C   C517      1.0  0.73228  0.80136  0.08521  1.0000
  C   C518      1.0  0.76926  0.77927  0.08826  1.0000
  C   C519      1.0  0.74049  0.81827  0.11041  1.0000
  H   H518      1.0  0.66607  0.95742  0.03336  1.0000
  C   C520      1.0  0.70255  0.96390  0.01962  1.0000
  C   C521      1.0  0.80244  0.80020  0.02381  1.0000
  H   H519      1.0  0.69299  0.66888  0.24117  1.0000
  H   H520      1.0  0.77539  0.82894  0.02136  1.0000
  S   S175      1.0  0.83635  0.76348  0.02976  1.0000
  H   H521      1.0  0.49625  0.72468  0.29084  1.0000
  C   C522      1.0  0.49364  0.74213  0.30362  1.0000
  Fe  Fe88      1.0  0.89777  0.69405  0.01859  1.0000
  H   H522      1.0  0.75193  0.75326  0.03559  1.0000
  H   H523      1.0  0.65227  0.65778  0.29077  1.0000
  C   C523      1.0  0.98776  0.68030  0.01108  1.0000
  H   H524      1.0  0.95659  0.73320  0.02175  1.0000
  C   C524      1.0  0.97163  0.72065  0.01836  1.0000
  Fe  Fe89      1.0  0.85093  0.72535  0.01890  1.0000
  C   C525      1.0  0.78087  0.81130  0.01134  1.0000
  C   C526      1.0  0.96773  0.69615  0.01558  1.0000
  S   S176      1.0  0.71211  0.93318  0.01192  1.0000
  H   H525      1.0  0.67077  0.79948  0.50716  1.0000
  S   S177      1.0  0.87630  0.66130  0.00985  1.0000
  C   C527      1.0  0.71898  0.98198  0.01407  1.0000
  S   S178      1.0  0.68087  0.82876  0.00951  1.0000
  Fe  Fe90      1.0  0.85528  0.68230  0.96651  1.0000
  S   S179      1.0  0.87755  0.71462  0.97342  1.0000
  H   H526      1.0  0.92657  0.75802  0.89850  1.0000
  H   H527      1.0  0.66254  0.80498  0.57510  1.0000
  C   C528      1.0  0.94127  0.70082  0.92457  1.0000
  H   H528      1.0  0.69217  0.80865  0.93546  1.0000
  C   C529      1.0  0.63375  0.83097  0.56611  1.0000
  C   C530      1.0  0.61993  0.84332  0.53931  1.0000
  C   C531      1.0  0.65235  0.97684  0.94388  1.0000
  H   H529      1.0  0.62056  0.68656  0.64295  1.0000
  C   C532      1.0  0.69812  0.69719  0.61363  1.0000
  C   C533      1.0  0.92547  0.73878  0.90138  1.0000
  C   C534      1.0  0.91971  0.66408  0.91779  1.0000
  H   H530      1.0  0.63690  0.66282  0.81140  1.0000
  Fe  Fe91      1.0  0.66468  0.85987  0.97802  1.0000
  S   S180      1.0  0.63413  0.85196  0.93855  1.0000
  S   S181      1.0  0.69993  0.87327  0.96003  1.0000
  Fe  Fe92      1.0  0.61494  0.76804  0.65745  1.0000
  S   S182      1.0  0.58571  0.74489  0.67724  1.0000
  S   S183      1.0  0.63172  0.76149  0.59972  1.0000
  Fe  Fe93      1.0  0.62011  0.79155  0.73620  1.0000
  S   S184      1.0  0.59091  0.77019  0.76096  1.0000
  S   S185      1.0  0.64485  0.81547  0.76888  1.0000
  Fe  Fe94      1.0  0.60812  0.73928  0.72890  1.0000
  S   S186      1.0  0.61612  0.70344  0.75623  1.0000
  Fe  Fe95      1.0  0.57117  0.77794  0.70681  1.0000
  S   S187      1.0  0.53291  0.79270  0.70091  1.0000
  S   S188      1.0  0.63837  0.75993  0.70740  1.0000
  S   S189      1.0  0.59943  0.80175  0.68377  1.0000
  C   C535      1.0  0.61681  0.77015  0.55768  1.0000
  C   C536      1.0  0.67471  0.70597  0.61981  1.0000
  C   C537      1.0  0.59717  0.78638  0.55796  1.0000
  H   H531      1.0  0.76360  0.76780  0.95218  1.0000
  H   H532      1.0  0.58972  0.79260  0.58446  1.0000
  C   C538      1.0  0.50698  0.77576  0.70239  1.0000
  H   H533      1.0  0.62956  0.83281  0.59582  1.0000
  H   H534      1.0  0.52239  0.74619  0.73403  1.0000
  C   C539      1.0  0.66474  0.93431  0.94305  1.0000
  H   H535      1.0  0.72322  0.81273  0.84401  1.0000
  H   H536      1.0  0.80102  0.74784  0.97574  1.0000
  C   C540      1.0  0.63293  0.68195  0.73027  1.0000
  C   C541      1.0  0.65764  0.68360  0.72594  1.0000
  H   H537      1.0  0.62477  0.70768  0.60508  1.0000
  H   H538      1.0  0.71158  0.67646  0.81124  1.0000
  H   H539      1.0  0.65204  0.79282  0.94297  1.0000
  H   H540      1.0  0.66603  0.69988  0.73392  1.0000
  Fe  Fe96      1.0  0.71627  0.84299  0.99452  1.0000
  H   H541      1.0  0.65423  0.77046  0.82736  1.0000
  C   C542      1.0  0.69819  0.98998  0.92704  1.0000
  H   H542      1.0  0.89200  0.73735  0.87213  1.0000
  C   C543      1.0  0.63696  0.84303  0.89072  1.0000
  C   C544      1.0  0.61811  0.83143  0.87356  1.0000
  C   C545      1.0  0.62002  0.82320  0.83613  1.0000
  C   C546      1.0  0.64066  0.82696  0.81515  1.0000
  C   C547      1.0  0.65919  0.83924  0.83196  1.0000
  C   C548      1.0  0.65750  0.84700  0.86963  1.0000
  H   H543      1.0  0.60206  0.82847  0.88950  1.0000
  H   H544      1.0  0.60556  0.81392  0.82356  1.0000
  H   H545      1.0  0.67515  0.84240  0.81590  1.0000
  H   H546      1.0  0.67202  0.85613  0.88227  1.0000
  H   H547      1.0  0.72113  0.66544  0.60808  1.0000
  C   C549      1.0  0.69270  0.96587  0.92987  1.0000
  H   H548      1.0  0.64687  0.93043  0.93191  1.0000
  H   H549      1.0  0.49879  0.79195  0.78085  1.0000
  H   H550      1.0  0.69090  0.66441  0.71316  1.0000
  C   C550      1.0  0.50624  0.75406  0.72194  1.0000
  H   H551      1.0  0.73286  0.79675  0.88609  1.0000
  H   H552      1.0  0.63290  0.77336  0.88868  1.0000
  C   C551      1.0  0.70301  0.67252  0.61259  1.0000
  H   H553      1.0  0.69399  0.78707  0.82078  1.0000
  H   H554      1.0  0.64126  0.74949  0.52243  1.0000
  H   H555      1.0  0.63247  0.71496  0.65270  1.0000
  H   H556      1.0  0.67094  0.72518  0.62050  1.0000
  C   C552      1.0  0.71886  0.80905  0.87390  1.0000
  C   C553      1.0  0.65678  0.81222  0.51602  1.0000
  C   C554      1.0  0.90611  0.72719  0.88651  1.0000
  N   N45       1.0  0.65672  0.69056  0.62504  1.0000
  C   C555      1.0  0.65235  0.81538  0.55447  1.0000
  C   C556      1.0  0.62618  0.76216  0.52297  1.0000
  C   C557      1.0  0.67176  0.66344  0.71451  1.0000
  H   H557      1.0  0.80428  0.68334  0.90653  1.0000
  C   C558      1.0  0.65083  0.77965  0.88606  1.0000
  H   H558      1.0  0.71921  0.82638  0.88917  1.0000
  C   C559      1.0  0.63242  0.70029  0.63167  1.0000
  C   C560      1.0  0.66283  0.77794  0.85169  1.0000
  H   H559      1.0  0.88916  0.69372  0.88079  1.0000
  H   H560      1.0  0.63458  0.97189  0.95188  1.0000
  N   N46       1.0  0.92209  0.68965  0.91040  1.0000
  H   H561      1.0  0.71241  0.70941  0.60972  1.0000
  C   C561      1.0  0.66125  0.66635  0.62314  1.0000
  C   C562      1.0  0.69717  0.66428  0.80815  1.0000
  C   C563      1.0  0.90466  0.70246  0.89139  1.0000
  C   C564      1.0  0.67350  0.67225  0.81338  1.0000
  C   C565      1.0  0.76673  0.79968  0.98547  1.0000
  H   H562      1.0  0.57328  0.80877  0.52439  1.0000
  C   C566      1.0  0.79553  0.76550  0.98569  1.0000
  C   C567      1.0  0.62229  0.66070  0.72061  1.0000
  H   H563      1.0  0.49348  0.83016  0.74614  1.0000
  N   N47       1.0  0.69548  0.79864  0.87792  1.0000
  C   C568      1.0  0.68412  0.79979  0.91197  1.0000
  C   C569      1.0  0.68530  0.78758  0.84808  1.0000
  C   C570      1.0  0.66155  0.79054  0.91651  1.0000
  C   C571      1.0  0.77431  0.77687  0.97241  1.0000
  H   H564      1.0  0.67798  0.92233  0.92826  1.0000
  H   H565      1.0  0.60496  0.85491  0.54803  1.0000
  H   H566      1.0  0.66535  0.92976  0.97348  1.0000
  C   C572      1.0  0.94322  0.72553  0.92048  1.0000
  S   S190      1.0  0.73946  0.81271  0.96860  1.0000
  C   C573      1.0  0.58787  0.79552  0.52385  1.0000
  C   C574      1.0  0.80721  0.67151  0.88277  1.0000
  N   N48       1.0  0.66995  0.95958  0.93785  1.0000
  C   C575      1.0  0.78867  0.66803  0.85690  1.0000
  H   H567      1.0  0.95821  0.73431  0.93270  1.0000
  H   H568      1.0  0.60327  0.65921  0.72425  1.0000
  H   H569      1.0  0.78355  0.66181  0.52516  1.0000
  H   H570      1.0  0.66914  0.69082  0.82017  1.0000
  H   H571      1.0  0.95495  0.69068  0.93992  1.0000
  H   H572      1.0  0.77161  0.67737  0.86097  1.0000
  S   S191      1.0  0.82733  0.69451  0.00868  1.0000
  C   C576      1.0  0.82944  0.65971  0.87777  1.0000
  H   H573      1.0  0.70697  0.95225  0.92741  1.0000
  H   H574      1.0  0.98514  0.66131  0.00866  1.0000
  S   S192      1.0  0.85329  0.66256  0.91016  1.0000
  H   H575      1.0  0.91481  0.66148  0.94780  1.0000
  H   H576      1.0  0.73730  0.97694  0.00730  1.0000
