data_image0
_chemical_formula_structural       FeS2FeS2FeSFeS3FeS2HSHC3H2C2NH3C6H4C6H3C2HNHC2HCH2CHCHCHCHC2FeCH2NSHC2HC2H2CHC3H7SHCSH2SHC2HC2HCH2CHC5H2C3H2NSCFeHSC2HFeCH2NCHC2HCSH2FeCSFeCSHSHC3HCH3SHCHC4H2CH2CHSHSHC4HNCFeS2FeS2FeSFeS3HS2FeSFeC3H2C2H2SC6H4C6H4C3HC2NCHC3H3NH3CH4CHC2H2NCNH3CH2CHC2HC3HCHCH5FeS2FeHCHS2FeS2H3SH4C6H4FeCNC6H2C2H2FeHCH2CHS2H2SCFeS2HFeH2S2FeHSFeCHCH2CHC6H4CSHCHCFeH2NC6HNH3CH2S2HCHSCFeS2FeS2FeSFeS3FeHSH2SH2FeH2C6H4C6H5C2H4C3NHCHCNHC4H2C2H2CSCHSCH2CH3FeS3CFeSHFeS2CHC3H2CNC4H2CHC2H2FeCHCSC2HC2H4CH2CSHC2HC2FeC2HCNCH2NCHC3HC2H2FeS2CS4FeSHC6HCHC4H3FeC2SH4CNCH2CHC2HCHC2HFe2C2H2C2SN2C2H2C2H2CH3CH3CH2FeS2FeS2FeSFeS3CS2FeS2HCHNC6H4C6H4C3HCH2CH3CH2NCHC2H5CHCHCHCH2C2H2C2H2FeCHCHNH
_chemical_formula_sum              "Fe48 S96 H288 C288 N24"
_cell_length_a       43.7868
_cell_length_b       39.6424
_cell_length_c       25.8123
_cell_angle_alpha    90.0364
_cell_angle_beta     90.7198
_cell_angle_gamma    90.1729

_space_group_name_H-M_alt    "P 1"
_space_group_IT_number       1

loop_
  _space_group_symop_operation_xyz
  'x, y, z'

loop_
  _atom_site_type_symbol
  _atom_site_label
  _atom_site_symmetry_multiplicity
  _atom_site_fract_x
  _atom_site_fract_y
  _atom_site_fract_z
  _atom_site_occupancy
  Fe  Fe1       1.0  0.18764  0.23550  0.24034  1.0000
  S   S1        1.0  0.16201  0.22573  0.31441  1.0000
  S   S2        1.0  0.19301  0.20403  0.16707  1.0000
  Fe  Fe2       1.0  0.20206  0.30804  0.26970  1.0000
  S   S3        1.0  0.17771  0.30423  0.34566  1.0000
  S   S4        1.0  0.23163  0.35201  0.24438  1.0000
  Fe  Fe3       1.0  0.20090  0.25406  0.35436  1.0000
  S   S5        1.0  0.21843  0.23690  0.43450  1.0000
  Fe  Fe4       1.0  0.14042  0.27665  0.30105  1.0000
  S   S6        1.0  0.09148  0.29263  0.32174  1.0000
  S   S7        1.0  0.22778  0.25951  0.28114  1.0000
  S   S8        1.0  0.16344  0.28476  0.22447  1.0000
  Fe  Fe5       1.0  0.26498  0.02981  0.07275  1.0000
  S   S9        1.0  0.28061  0.49447  0.06632  1.0000
  S   S10       1.0  0.25182  0.05756  0.14642  1.0000
  H   H1        1.0  0.20175  0.34686  0.04806  1.0000
  S   S11       1.0  0.19695  0.45602  0.06656  1.0000
  H   H2        1.0  0.16231  0.26165  0.47979  1.0000
  C   C1        1.0  0.05400  0.27823  0.30483  1.0000
  C   C2        1.0  0.04869  0.25200  0.26954  1.0000
  C   C3        1.0  0.02873  0.29309  0.32920  1.0000
  H   H3        1.0  0.06777  0.24030  0.25036  1.0000
  H   H4        1.0  0.03250  0.31340  0.35659  1.0000
  C   C4        1.0  0.25070  0.25218  0.47043  1.0000
  C   C5        1.0  0.27533  0.26823  0.44659  1.0000
  N   N1        1.0  0.08975  0.22401  0.41498  1.0000
  H   H5        1.0  0.22129  0.15858  0.24316  1.0000
  H   H6        1.0  0.27425  0.27355  0.40550  1.0000
  H   H7        1.0  0.19636  0.31371  0.12721  1.0000
  C   C6        1.0  0.22118  0.38021  0.19461  1.0000
  C   C7        1.0  0.24375  0.40128  0.17406  1.0000
  C   C8        1.0  0.23668  0.42396  0.13399  1.0000
  C   C9        1.0  0.20677  0.42635  0.11487  1.0000
  C   C10       1.0  0.18409  0.40533  0.13549  1.0000
  C   C11       1.0  0.19130  0.38211  0.17506  1.0000
  H   H8        1.0  0.26694  0.39981  0.18891  1.0000
  H   H9        1.0  0.25438  0.43972  0.11837  1.0000
  H   H10       1.0  0.16086  0.40705  0.12096  1.0000
  H   H11       1.0  0.17370  0.36606  0.19090  1.0000
  C   C12       1.0  0.20985  0.16350  0.16225  1.0000
  C   C13       1.0  0.21089  0.14767  0.11348  1.0000
  C   C14       1.0  0.22373  0.11532  0.10793  1.0000
  C   C15       1.0  0.23583  0.09852  0.15113  1.0000
  C   C16       1.0  0.23486  0.11439  0.19985  1.0000
  C   C17       1.0  0.22200  0.14674  0.20544  1.0000
  H   H12       1.0  0.20123  0.16030  0.07998  1.0000
  H   H13       1.0  0.22351  0.10298  0.07061  1.0000
  H   H14       1.0  0.24400  0.10150  0.23353  1.0000
  C   C18       1.0  0.24352  0.37256  0.02995  1.0000
  C   C19       1.0  0.33437  0.19746  0.48865  1.0000
  H   H15       1.0  0.25114  0.46178  0.25100  1.0000
  N   N2        1.0  0.23882  0.32986  0.09564  1.0000
  H   H16       1.0  0.28198  0.09738  0.05600  1.0000
  C   C20       1.0  0.08960  0.25662  0.43247  1.0000
  C   C21       1.0  0.22592  0.34910  0.05719  1.0000
  H   H17       1.0  0.11561  0.17888  0.40644  1.0000
  C   C22       1.0  0.28346  0.17429  0.48254  1.0000
  H   H18       1.0  0.01482  0.22050  0.23158  1.0000
  H   H19       1.0  0.29197  0.50486  0.23829  1.0000
  C   C23       1.0  0.01856  0.24080  0.25900  1.0000
  H   H20       1.0  0.06903  0.20532  0.34620  1.0000
  C   C24       1.0  0.22021  0.30476  0.12275  1.0000
  H   H21       1.0  0.20060  0.46958  0.20933  1.0000
  C   C25       1.0  0.14169  0.25090  0.46262  1.0000
  H   H22       1.0  0.04335  0.22754  0.38753  1.0000
  C   C26       1.0  0.27455  0.37598  0.04185  1.0000
  H   H23       1.0  0.28845  0.39423  0.02123  1.0000
  C   C27       1.0  0.26924  0.33301  0.10751  1.0000
  C   C28       1.0  0.11521  0.20447  0.42132  1.0000
  Fe  Fe6       1.0  0.23404  0.48797  0.03058  1.0000
  C   C29       1.0  0.30198  0.27627  0.47559  1.0000
  H   H24       1.0  0.22918  0.30002  0.16260  1.0000
  H   H25       1.0  0.32116  0.28785  0.45639  1.0000
  N   N3        1.0  0.29462  0.13779  0.00532  1.0000
  S   S12       1.0  0.31545  0.02460  0.06140  1.0000
  H   H26       1.0  0.21993  0.28047  0.10121  1.0000
  C   C30       1.0  0.29889  0.11819  0.05303  1.0000
  C   C31       1.0  0.28754  0.35611  0.08088  1.0000
  H   H27       1.0  0.27938  0.31798  0.13834  1.0000
  C   C32       1.0  0.06313  0.21000  0.38736  1.0000
  C   C33       1.0  0.24673  0.48407  0.22766  1.0000
  H   H28       1.0  0.26284  0.16919  0.46004  1.0000
  H   H29       1.0  0.06981  0.27254  0.42597  1.0000
  C   C34       1.0  0.21813  0.48864  0.20392  1.0000
  H   H30       1.0  0.05580  0.18594  0.40542  1.0000
  C   C35       1.0  0.30860  0.18917  0.45890  1.0000
  C   C36       1.0  0.11563  0.27065  0.45603  1.0000
  C   C37       1.0  0.14143  0.21750  0.44561  1.0000
  H   H31       1.0  0.11589  0.29696  0.46760  1.0000
  H   H32       1.0  0.31159  0.35882  0.09070  1.0000
  H   H33       1.0  0.32182  0.10618  0.05381  1.0000
  H   H34       1.0  0.29628  0.13468  0.08748  1.0000
  H   H35       1.0  0.30758  0.19557  0.41803  1.0000
  H   H36       1.0  0.16183  0.20218  0.44965  1.0000
  H   H37       1.0  0.16883  0.49729  0.14895  1.0000
  S   S13       1.0  0.31386  0.25999  0.70592  1.0000
  H   H38       1.0  0.23302  0.38842  0.00047  1.0000
  C   C38       1.0  0.30542  0.41217  0.74109  1.0000
  S   S14       1.0  0.25469  0.04353  0.98988  1.0000
  H   H39       1.0  0.30260  0.19538  0.64023  1.0000
  H   H40       1.0  0.29178  0.39547  0.71672  1.0000
  S   S15       1.0  0.25018  0.47597  0.95068  1.0000
  H   H41       1.0  0.33266  0.19347  0.93022  1.0000
  C   C39       1.0  0.33156  0.09985  0.89124  1.0000
  C   C40       1.0  0.28443  0.16802  0.53591  1.0000
  H   H42       1.0  0.26906  0.48014  0.83623  1.0000
  C   C41       1.0  0.25270  0.24547  0.52396  1.0000
  C   C42       1.0  0.29854  0.40558  0.90396  1.0000
  H   H43       1.0  0.27101  0.37434  0.85341  1.0000
  C   C43       1.0  0.28678  0.17594  0.91571  1.0000
  H   H44       1.0  0.26438  0.15765  0.55434  1.0000
  H   H45       1.0  0.27926  0.41953  0.91759  1.0000
  C   C44       1.0  0.30976  0.17161  0.62111  1.0000
  H   H46       1.0  0.24222  0.15288  0.91068  1.0000
  C   C45       1.0  0.30002  0.11804  0.81845  1.0000
  C   C46       1.0  0.30488  0.09667  0.86129  1.0000
  C   C47       1.0  0.32153  0.14300  0.80575  1.0000
  C   C48       1.0  0.29387  0.37963  0.86770  1.0000
  C   C49       1.0  0.26755  0.13624  0.97833  1.0000
  H   H47       1.0  0.27938  0.11540  0.79531  1.0000
  H   H48       1.0  0.28805  0.07777  0.87112  1.0000
  C   C50       1.0  0.29164  0.43797  0.76944  1.0000
  C   C51       1.0  0.30430  0.26872  0.52882  1.0000
  C   C52       1.0  0.27920  0.25386  0.55305  1.0000
  H   H49       1.0  0.28045  0.24814  0.59396  1.0000
  H   H50       1.0  0.23382  0.23317  0.54294  1.0000
  N   N4        1.0  0.30986  0.17612  0.56477  1.0000
  S   S16       1.0  0.31100  0.33164  0.79853  1.0000
  C   C53       1.0  0.31851  0.36096  0.84881  1.0000
  Fe  Fe7       1.0  0.29670  0.48459  0.98477  1.0000
  H   H51       1.0  0.28421  0.18986  0.87966  1.0000
  S   S17       1.0  0.31411  0.16988  0.75257  1.0000
  C   C54       1.0  0.26332  0.15502  0.93291  1.0000
  C   C55       1.0  0.29401  0.48457  0.83224  1.0000
  H   H52       1.0  0.26718  0.44157  0.76570  1.0000
  Fe  Fe8       1.0  0.30501  0.03584  0.97777  1.0000
  C   C56       1.0  0.31402  0.17795  0.94411  1.0000
  H   H53       1.0  0.33282  0.16479  0.63621  1.0000
  H   H54       1.0  0.24922  0.12004  0.99133  1.0000
  N   N5        1.0  0.30863  0.45762  0.80264  1.0000
  C   C57       1.0  0.32798  0.41347  0.92170  1.0000
  H   H55       1.0  0.30384  0.48598  0.87212  1.0000
  C   C58       1.0  0.33454  0.19088  0.54190  1.0000
  C   C59       1.0  0.31764  0.15845  0.98895  1.0000
  H   H56       1.0  0.29398  0.15113  0.63312  1.0000
  C   C60       1.0  0.33679  0.40693  0.74623  1.0000
  S   S18       1.0  0.33472  0.44820  0.96383  1.0000
  H   H57       1.0  0.27586  0.66034  0.14401  1.0000
  H   H58       1.0  0.31232  0.68742  0.20573  1.0000
  Fe  Fe9       1.0  0.30650  0.97033  0.04225  1.0000
  C   C61       1.0  0.33008  0.89953  0.11648  1.0000
  S   S19       1.0  0.25669  0.97418  0.06046  1.0000
  Fe  Fe10      1.0  0.27647  0.54904  0.04236  1.0000
  C   C62       1.0  0.32049  0.85687  0.20232  1.0000
  S   S20       1.0  0.27676  0.59849  0.08737  1.0000
  H   H59       1.0  0.29445  0.81277  0.46820  1.0000
  S   S21       1.0  0.33362  0.74769  0.47353  1.0000
  H   H60       1.0  0.25385  0.81268  0.47260  1.0000
  C   C63       1.0  0.18257  0.52095  0.14875  1.0000
  C   C64       1.0  0.30184  0.88514  0.19373  1.0000
  C   C65       1.0  0.23482  0.54008  0.16646  1.0000
  H   H61       1.0  0.29248  0.92853  0.14553  1.0000
  C   C66       1.0  0.30665  0.90647  0.15110  1.0000
  H   H62       1.0  0.27442  0.85241  0.47302  1.0000
  H   H63       1.0  0.18516  0.52802  0.10734  1.0000
  H   H64       1.0  0.23039  0.56210  0.14258  1.0000
  S   S22       1.0  0.32247  0.74144  0.31482  1.0000
  H   H65       1.0  0.22080  0.73909  0.46756  1.0000
  C   C67       1.0  0.29718  0.64792  0.15338  1.0000
  H   H66       1.0  0.28382  0.89085  0.22067  1.0000
  C   C68       1.0  0.31779  0.66334  0.18845  1.0000
  C   C69       1.0  0.29649  0.74297  0.50001  1.0000
  C   C70       1.0  0.27010  0.74128  0.46896  1.0000
  C   C71       1.0  0.23317  0.89046  0.01522  1.0000
  H   H67       1.0  0.27209  0.74107  0.42721  1.0000
  H   H68       1.0  0.22036  0.90531  0.04276  1.0000
  C   C72       1.0  0.24102  0.74032  0.49200  1.0000
  H   H69       1.0  0.28121  0.55537  0.18393  1.0000
  H   H70       1.0  0.16983  0.54099  0.16920  1.0000
  C   C73       1.0  0.30391  0.61662  0.13063  1.0000
  H   H71       1.0  0.17532  0.86044  0.00865  1.0000
  S   S23       1.0  0.31469  0.83247  0.25854  1.0000
  H   H72       1.0  0.27667  0.90428  0.04914  1.0000
  S   S24       1.0  0.22836  0.54295  0.01183  1.0000
  H   H73       1.0  0.25945  0.65681  0.01651  1.0000
  C   C74       1.0  0.27485  0.82585  0.48652  1.0000
  C   C75       1.0  0.33146  0.60073  0.14330  1.0000
  C   C76       1.0  0.26503  0.89028  0.01877  1.0000
  C   C77       1.0  0.26363  0.53643  0.18983  1.0000
  H   H74       1.0  0.33695  0.57666  0.12603  1.0000
  N   N6        1.0  0.21264  0.51617  0.17322  1.0000
  C   C78       1.0  0.26962  0.50813  0.22038  1.0000
  Fe  Fe11      1.0  0.19666  0.80465  0.74455  1.0000
  S   S25       1.0  0.16972  0.80501  0.66996  1.0000
  S   S26       1.0  0.23217  0.84425  0.76695  1.0000
  Fe  Fe12      1.0  0.17661  0.73307  0.76982  1.0000
  S   S27       1.0  0.14841  0.72757  0.69648  1.0000
  S   S28       1.0  0.17885  0.69798  0.83943  1.0000
  Fe  Fe13      1.0  0.18825  0.75305  0.65707  1.0000
  S   S29       1.0  0.20068  0.74153  0.57313  1.0000
  Fe  Fe14      1.0  0.13158  0.77985  0.71390  1.0000
  S   S30       1.0  0.08348  0.79928  0.69377  1.0000
  S   S31       1.0  0.21765  0.75390  0.72903  1.0000
  S   S32       1.0  0.15734  0.78417  0.78991  1.0000
  H   H75       1.0  0.28328  0.82579  0.69291  1.0000
  S   S33       1.0  0.30060  0.98079  0.95705  1.0000
  S   S34       1.0  0.21195  0.96100  0.93256  1.0000
  Fe  Fe15      1.0  0.24994  0.53175  0.93564  1.0000
  S   S35       1.0  0.24020  0.55326  0.85587  1.0000
  Fe  Fe16      1.0  0.25101  0.98716  0.97591  1.0000
  C   C79       1.0  0.04643  0.78221  0.70555  1.0000
  C   C80       1.0  0.28935  0.62997  0.90329  1.0000
  C   C81       1.0  0.04198  0.75264  0.73409  1.0000
  H   H76       1.0  0.30322  0.60980  0.88775  1.0000
  H   H77       1.0  0.06147  0.73977  0.75094  1.0000
  C   C82       1.0  0.23792  0.74137  0.54621  1.0000
  C   C83       1.0  0.26431  0.74256  0.57725  1.0000
  H   H78       1.0  0.17688  0.87263  0.81216  1.0000
  H   H79       1.0  0.26236  0.74304  0.61898  1.0000
  S   S36       1.0  0.29779  0.53994  0.96467  1.0000
  C   C84       1.0  0.19361  0.65654  0.84109  1.0000
  C   C85       1.0  0.20746  0.64176  0.79817  1.0000
  C   C86       1.0  0.22112  0.60972  0.80281  1.0000
  C   C87       1.0  0.22148  0.59259  0.85050  1.0000
  C   C88       1.0  0.20748  0.60735  0.89323  1.0000
  C   C89       1.0  0.19333  0.63899  0.88835  1.0000
  H   H80       1.0  0.20786  0.65508  0.76161  1.0000
  H   H81       1.0  0.23182  0.59839  0.76952  1.0000
  H   H82       1.0  0.20743  0.59433  0.93001  1.0000
  H   H83       1.0  0.18254  0.65019  0.92166  1.0000
  C   C90       1.0  0.22580  0.87792  0.81059  1.0000
  C   C91       1.0  0.25098  0.89630  0.82986  1.0000
  C   C92       1.0  0.24708  0.92222  0.86653  1.0000
  C   C93       1.0  0.21783  0.93045  0.88352  1.0000
  C   C94       1.0  0.19255  0.91281  0.86288  1.0000
  C   C95       1.0  0.19650  0.88632  0.82716  1.0000
  H   H84       1.0  0.27372  0.89015  0.81698  1.0000
  H   H85       1.0  0.26672  0.93569  0.88176  1.0000
  H   H86       1.0  0.16979  0.91935  0.87519  1.0000
  H   H87       1.0  0.31363  0.74398  0.57865  1.0000
  C   C96       1.0  0.25813  0.67942  0.89091  1.0000
  C   C97       1.0  0.07277  0.68783  0.61453  1.0000
  C   C98       1.0  0.27687  0.65434  0.87039  1.0000
  H   H88       1.0  0.23289  0.83098  0.64951  1.0000
  C   C99       1.0  0.29338  0.74301  0.55424  1.0000
  C   C100      1.0  0.10264  0.68643  0.59637  1.0000
  N   N7        1.0  0.25132  0.67958  0.94253  1.0000
  C   C101      1.0  0.02069  0.79840  0.68381  1.0000
  H   H89       1.0  0.28085  0.65321  0.82903  1.0000
  C   C102      1.0  0.11659  0.71588  0.57822  1.0000
  C   C103      1.0  0.07170  0.74729  0.59494  1.0000
  C   C104      1.0  0.11638  0.77695  0.56155  1.0000
  H   H90       1.0  0.06187  0.66538  0.62980  1.0000
  H   H91       1.0  0.05956  0.77113  0.59524  1.0000
  H   H92       1.0  0.27932  0.84127  0.91399  1.0000
  N   N8        1.0  0.27720  0.82474  0.54323  1.0000
  H   H93       1.0  0.22292  0.84121  0.91040  1.0000
  H   H94       1.0  0.24791  0.69780  0.86482  1.0000
  H   H95       1.0  0.21486  0.71481  0.93265  1.0000
  C   C105      1.0  0.30792  0.82227  0.62100  1.0000
  H   H96       1.0  0.02381  0.82116  0.66136  1.0000
  H   H97       1.0  0.17576  0.86136  0.93871  1.0000
  H   H98       1.0  0.03392  0.71996  0.62799  1.0000
  H   H99       1.0  0.29724  0.50926  0.81270  1.0000
  C   C106      1.0  0.28349  0.63137  0.95623  1.0000
  H   H100      1.0  0.13998  0.71466  0.56492  1.0000
  C   C107      1.0  0.23457  0.85471  0.94147  1.0000
  C   C108      1.0  0.25329  0.82843  0.62641  1.0000
  H   H101      1.0  0.22912  0.82969  0.55361  1.0000
  H   H102      1.0  0.32566  0.81903  0.54386  1.0000
  N   N9        1.0  0.10134  0.74596  0.57899  1.0000
  C   C109      1.0  0.05705  0.71838  0.61343  1.0000
  N   N10       1.0  0.21835  0.87287  0.97686  1.0000
  H   H103      1.0  0.11519  0.66287  0.59728  1.0000
  H   H104      1.0  0.17683  0.90019  0.97411  1.0000
  H   H105      1.0  0.10833  0.78353  0.52192  1.0000
  C   C110      1.0  0.28172  0.82554  0.65085  1.0000
  H   H106      1.0  0.33012  0.81963  0.63961  1.0000
  H   H107      1.0  0.14164  0.77421  0.56129  1.0000
  C   C111      1.0  0.30525  0.82216  0.56687  1.0000
  H   H108      1.0  0.11128  0.79814  0.58841  1.0000
  C   C112      1.0  0.25140  0.82793  0.57224  1.0000
  C   C113      1.0  0.01219  0.73976  0.74117  1.0000
  H   H109      1.0  0.00908  0.71701  0.76367  1.0000
  C   C114      1.0  0.26655  0.85455  0.94335  1.0000
  C   C115      1.0  0.18488  0.87355  0.97450  1.0000
  C   C116      1.0  0.23082  0.70531  0.96322  1.0000
  H   H110      1.0  0.24435  0.72675  0.97908  1.0000
  C   C117      1.0  0.28183  0.87256  0.98232  1.0000
  H   H111      1.0  0.30663  0.87324  0.98417  1.0000
  C   C118      1.0  0.26425  0.65641  0.97533  1.0000
  H   H112      1.0  0.29343  0.61296  0.98240  1.0000
  H   H113      1.0  0.21635  0.69453  0.99422  1.0000
  H   H114      1.0  0.35343  0.21061  0.47128  1.0000
  H   H115      1.0  0.33927  0.15920  0.00982  1.0000
  H   H116      1.0  0.47931  0.18450  0.76814  1.0000
  Fe  Fe17      1.0  0.40145  0.25789  0.73117  1.0000
  S   S37       1.0  0.36685  0.25038  0.79509  1.0000
  S   S38       1.0  0.45137  0.25135  0.75877  1.0000
  Fe  Fe18      1.0  0.35069  0.26666  0.64805  1.0000
  H   H117      1.0  0.50836  0.18173  0.81672  1.0000
  C   C119      1.0  0.35402  0.42750  0.77940  1.0000
  H   H118      1.0  0.58666  0.20314  0.63994  1.0000
  S   S39       1.0  0.37751  0.22158  0.67647  1.0000
  S   S40       1.0  0.37741  0.30374  0.69804  1.0000
  Fe  Fe19      1.0  0.63256  0.26878  0.69491  1.0000
  S   S41       1.0  0.65314  0.26052  0.77427  1.0000
  S   S42       1.0  0.58411  0.28416  0.66970  1.0000
  H   H119      1.0  0.60180  0.18164  0.72728  1.0000
  H   H120      1.0  0.49781  0.14444  0.77967  1.0000
  H   H121      1.0  0.36715  0.35355  0.85361  1.0000
  S   S43       1.0  0.65134  0.22077  0.66187  1.0000
  H   H122      1.0  0.53184  0.20914  0.61695  1.0000
  H   H123      1.0  0.35282  0.46800  0.83466  1.0000
  H   H124      1.0  0.37403  0.12692  0.90093  1.0000
  H   H125      1.0  0.35400  0.19909  0.56516  1.0000
  C   C120      1.0  0.48773  0.26381  0.73472  1.0000
  C   C121      1.0  0.51390  0.25847  0.76597  1.0000
  C   C122      1.0  0.54352  0.26479  0.74708  1.0000
  C   C123      1.0  0.54735  0.27711  0.69677  1.0000
  C   C124      1.0  0.52113  0.28338  0.66607  1.0000
  C   C125      1.0  0.49153  0.27659  0.68471  1.0000
  H   H126      1.0  0.51126  0.24894  0.80491  1.0000
  H   H127      1.0  0.56337  0.26012  0.77136  1.0000
  H   H128      1.0  0.52377  0.29311  0.62722  1.0000
  H   H129      1.0  0.47172  0.28093  0.66017  1.0000
  Fe  Fe20      1.0  0.34171  0.29373  0.75842  1.0000
  C   C126      1.0  0.35265  0.39406  0.90419  1.0000
  N   N11       1.0  0.52485  0.18014  0.73952  1.0000
  C   C127      1.0  0.51640  0.19088  0.69104  1.0000
  C   C128      1.0  0.55508  0.17617  0.75227  1.0000
  C   C129      1.0  0.53851  0.19899  0.65442  1.0000
  C   C130      1.0  0.57781  0.18402  0.71657  1.0000
  C   C131      1.0  0.56937  0.19573  0.66747  1.0000
  C   C132      1.0  0.50147  0.17213  0.77783  1.0000
  H   H130      1.0  0.49247  0.19467  0.68120  1.0000
  H   H131      1.0  0.56184  0.16749  0.79056  1.0000
  C   C133      1.0  0.34796  0.36783  0.86783  1.0000
  C   C134      1.0  0.35330  0.12441  0.87797  1.0000
  H   H132      1.0  0.37553  0.39972  0.91796  1.0000
  H   H133      1.0  0.36498  0.16517  0.82606  1.0000
  Fe  Fe21      1.0  0.34180  0.21740  0.73808  1.0000
  H   H134      1.0  0.66938  0.35405  0.90247  1.0000
  C   C135      1.0  0.34821  0.14615  0.83567  1.0000
  H   H135      1.0  0.34747  0.38609  0.72604  1.0000
  H   H136      1.0  0.37826  0.42291  0.78484  1.0000
  C   C136      1.0  0.33947  0.45287  0.80754  1.0000
  H   H137      1.0  0.66234  0.41365  0.91750  1.0000
  S   S44       1.0  0.33983  0.27552  0.56199  1.0000
  S   S45       1.0  0.66613  0.16691  0.78875  1.0000
  H   H138      1.0  0.66540  0.11599  0.86781  1.0000
  H   H139      1.0  0.65822  0.40851  0.98693  1.0000
  S   S46       1.0  0.33817  0.07486  0.94682  1.0000
  C   C137      1.0  0.43030  0.86714  0.23293  1.0000
  Fe  Fe22      1.0  0.40827  0.77027  0.32902  1.0000
  S   S47       1.0  0.38539  0.76418  0.25107  1.0000
  S   S48       1.0  0.45697  0.78895  0.34648  1.0000
  H   H140      1.0  0.55187  0.67603  0.27802  1.0000
  Fe  Fe23      1.0  0.34902  0.75042  0.38883  1.0000
  H   H141      1.0  0.39463  0.93321  0.12981  1.0000
  H   H142      1.0  0.43682  0.70329  0.26863  1.0000
  S   S49       1.0  0.36908  0.79957  0.36233  1.0000
  S   S50       1.0  0.39023  0.72173  0.36146  1.0000
  Fe  Fe24      1.0  0.63723  0.76063  0.27663  1.0000
  H   H143      1.0  0.37339  0.60378  0.18810  1.0000
  S   S51       1.0  0.58715  0.75123  0.25231  1.0000
  Fe  Fe25      1.0  0.34471  0.78951  0.28685  1.0000
  C   C138      1.0  0.34536  0.64753  0.20116  1.0000
  H   H144      1.0  0.44687  0.66134  0.24855  1.0000
  C   C139      1.0  0.38381  0.87808  0.27903  1.0000
  H   H145      1.0  0.45893  0.70821  0.37254  1.0000
  H   H146      1.0  0.41556  0.83853  0.29899  1.0000
  C   C140      1.0  0.37757  0.90477  0.24509  1.0000
  H   H147      1.0  0.35655  0.91883  0.24966  1.0000
  C   C141      1.0  0.49290  0.78042  0.31753  1.0000
  C   C142      1.0  0.51990  0.78989  0.34411  1.0000
  C   C143      1.0  0.54896  0.78208  0.32420  1.0000
  C   C144      1.0  0.55140  0.76496  0.27701  1.0000
  C   C145      1.0  0.52439  0.75647  0.24964  1.0000
  C   C146      1.0  0.49533  0.76397  0.26979  1.0000
  H   H148      1.0  0.51834  0.80283  0.38090  1.0000
  H   H149      1.0  0.56943  0.78889  0.34570  1.0000
  H   H150      1.0  0.52598  0.74338  0.21298  1.0000
  H   H151      1.0  0.47487  0.75682  0.24855  1.0000
  C   C147      1.0  0.35208  0.61616  0.17847  1.0000
  S   S52       1.0  0.37200  0.66598  0.24507  1.0000
  H   H152      1.0  0.55661  0.70395  0.36367  1.0000
  C   C148      1.0  0.39073  0.94058  0.17081  1.0000
  H   H153      1.0  0.50970  0.72006  0.41122  1.0000
  C   C149      1.0  0.41039  0.85927  0.27292  1.0000
  Fe  Fe26      1.0  0.36514  0.71665  0.28493  1.0000
  H   H154      1.0  0.43055  0.66769  0.31077  1.0000
  H   H155      1.0  0.50059  0.66403  0.24075  1.0000
  N   N12       1.0  0.47677  0.68418  0.30542  1.0000
  C   C150      1.0  0.50243  0.67531  0.27893  1.0000
  C   C151      1.0  0.47921  0.69978  0.35259  1.0000
  C   C152      1.0  0.53151  0.68172  0.29995  1.0000
  C   C153      1.0  0.50791  0.70651  0.37477  1.0000
  C   C154      1.0  0.53419  0.69746  0.34814  1.0000
  C   C155      1.0  0.44643  0.67887  0.28215  1.0000
  H   H156      1.0  0.45098  0.85249  0.22803  1.0000
  N   N13       1.0  0.39710  0.91218  0.20566  1.0000
  H   H157      1.0  0.40561  0.96239  0.18093  1.0000
  H   H158      1.0  0.36648  0.94876  0.17274  1.0000
  H   H159      1.0  0.43878  0.89983  0.16830  1.0000
  C   C156      1.0  0.42326  0.89388  0.19944  1.0000
  H   H160      1.0  0.36677  0.86557  0.09800  1.0000
  H   H161      1.0  0.36773  0.87158  0.30914  1.0000
  S   S53       1.0  0.65756  0.80295  0.32484  1.0000
  S   S54       1.0  0.66400  0.72004  0.31861  1.0000
  H   H162      1.0  0.66396  0.91003  0.10449  1.0000
  C   C157      1.0  0.34381  0.84974  0.16747  1.0000
  H   H163      1.0  0.35832  0.82805  0.17379  1.0000
  S   S55       1.0  0.33797  0.92681  0.06423  1.0000
  C   C158      1.0  0.34855  0.87104  0.12465  1.0000
  Fe  Fe27      1.0  0.90677  0.25602  0.28803  1.0000
  S   S56       1.0  0.87627  0.27377  0.22227  1.0000
  S   S57       1.0  0.95581  0.24064  0.26757  1.0000
  Fe  Fe28      1.0  0.85357  0.25876  0.36616  1.0000
  S   S58       1.0  0.82015  0.27728  0.30630  1.0000
  S   S59       1.0  0.84159  0.24815  0.45086  1.0000
  Fe  Fe29      1.0  0.84098  0.23831  0.25388  1.0000
  S   S60       1.0  0.80685  0.20875  0.20460  1.0000
  Fe  Fe30      1.0  0.85802  0.31109  0.27930  1.0000
  S   S61       1.0  0.85232  0.36706  0.26267  1.0000
  S   S62       1.0  0.87230  0.21746  0.31540  1.0000
  S   S63       1.0  0.89057  0.29570  0.34353  1.0000
  Fe  Fe31      1.0  0.80184  0.03340  0.05795  1.0000
  H   H164      1.0  0.89041  0.34242  0.09900  1.0000
  S   S64       1.0  0.83214  0.06222  0.11492  1.0000
  H   H165      1.0  0.97954  0.29347  0.33804  1.0000
  H   H166      1.0  0.89517  0.37965  0.17529  1.0000
  S   S65       1.0  0.79247  0.42017  0.05186  1.0000
  H   H167      1.0  0.72935  0.26116  0.45143  1.0000
  H   H168      1.0  0.74443  0.18523  0.30453  1.0000
  Fe  Fe32      1.0  0.77980  0.47302  0.02447  1.0000
  H   H169      1.0  0.75536  0.20614  0.36357  1.0000
  H   H170      1.0  0.80500  0.19594  0.40296  1.0000
  C   C159      1.0  0.80853  0.40634  0.11149  1.0000
  C   C160      1.0  0.81724  0.42875  0.15088  1.0000
  C   C161      1.0  0.83025  0.41635  0.19735  1.0000
  C   C162      1.0  0.83442  0.38153  0.20494  1.0000
  C   C163      1.0  0.82573  0.35916  0.16552  1.0000
  C   C164      1.0  0.81292  0.37155  0.11902  1.0000
  H   H171      1.0  0.81404  0.45558  0.14552  1.0000
  H   H172      1.0  0.83705  0.43385  0.22757  1.0000
  H   H173      1.0  0.82894  0.33232  0.17079  1.0000
  H   H174      1.0  0.80630  0.35402  0.08876  1.0000
  C   C165      1.0  0.81500  0.16899  0.17712  1.0000
  C   C166      1.0  0.79176  0.15173  0.14986  1.0000
  C   C167      1.0  0.79671  0.11908  0.13030  1.0000
  C   C168      1.0  0.82506  0.10353  0.13754  1.0000
  C   C169      1.0  0.84833  0.12087  0.16457  1.0000
  C   C170      1.0  0.84337  0.15350  0.18428  1.0000
  H   H175      1.0  0.76964  0.16344  0.14471  1.0000
  H   H176      1.0  0.77843  0.10560  0.11075  1.0000
  H   H177      1.0  0.87031  0.10895  0.17041  1.0000
  H   H178      1.0  0.86139  0.16649  0.20540  1.0000
  H   H179      1.0  0.77220  0.21882  0.30284  1.0000
  C   C171      1.0  0.99330  0.25564  0.28336  1.0000
  C   C172      1.0  0.83868  0.12975  0.34365  1.0000
  H   H180      1.0  0.82276  0.10761  0.27174  1.0000
  H   H181      1.0  0.91969  0.39561  0.25290  1.0000
  H   H182      1.0  0.77896  0.14637  0.26290  1.0000
  H   H183      1.0  0.84915  0.15806  0.41327  1.0000
  C   C173      1.0  0.79385  0.14841  0.29668  1.0000
  C   C174      1.0  0.80846  0.17621  0.37462  1.0000
  C   C175      1.0  0.80474  0.24815  0.47916  1.0000
  N   N14       1.0  0.78897  0.17282  0.33310  1.0000
  H   H184      1.0  0.85838  0.11335  0.34721  1.0000
  C   C176      1.0  0.77836  0.25549  0.45025  1.0000
  H   H185      1.0  0.75401  0.12146  0.02723  1.0000
  C   C177      1.0  0.76398  0.19695  0.32578  1.0000
  N   N15       1.0  0.92951  0.34977  0.21236  1.0000
  H   H186      1.0  0.91912  0.35795  0.29116  1.0000
  C   C178      1.0  0.94714  0.32142  0.20978  1.0000
  C   C179      1.0  0.90684  0.33652  0.12949  1.0000
  C   C180      1.0  0.94524  0.30002  0.16676  1.0000
  C   C181      1.0  0.92486  0.30761  0.12646  1.0000
  H   H187      1.0  0.78014  0.26140  0.40949  1.0000
  H   H188      1.0  0.96244  0.31486  0.24151  1.0000
  C   C182      1.0  0.93109  0.37086  0.25900  1.0000
  C   C183      1.0  0.81869  0.12646  0.30142  1.0000
  H   H189      1.0  0.92265  0.29076  0.09349  1.0000
  H   H190      1.0  0.95886  0.27716  0.16567  1.0000
  C   C184      1.0  0.99861  0.28188  0.31869  1.0000
  S   S66       1.0  0.75394  0.04633  0.03302  1.0000
  C   C185      1.0  0.90955  0.35749  0.17293  1.0000
  H   H191      1.0  0.95521  0.37569  0.27067  1.0000
  S   S67       1.0  0.72939  0.48248  0.01417  1.0000
  C   C186      1.0  0.83350  0.15469  0.38069  1.0000
  H   H192      1.0  0.82650  0.13658  0.01760  1.0000
  H   H193      1.0  0.80377  0.09879  0.01973  1.0000
  C   C187      1.0  0.74959  0.25539  0.47419  1.0000
  H   H194      1.0  0.76405  0.36007  0.00846  1.0000
  H   H195      1.0  0.75377  0.32986  0.47057  1.0000
  H   H196      1.0  0.72761  0.40727  0.00815  1.0000
  Fe  Fe33      1.0  0.69308  0.25086  0.63980  1.0000
  S   S68       1.0  0.71746  0.23954  0.71514  1.0000
  S   S69       1.0  0.71011  0.25221  0.55598  1.0000
  S   S70       1.0  0.72820  0.31875  0.79228  1.0000
  C   C188      1.0  0.69739  0.37980  0.79443  1.0000
  Fe  Fe34      1.0  0.77087  0.03724  0.95206  1.0000
  S   S71       1.0  0.77157  0.07535  0.88602  1.0000
  H   H197      1.0  0.82211  0.23464  0.55488  1.0000
  Fe  Fe35      1.0  0.74035  0.49088  0.93074  1.0000
  S   S72       1.0  0.71033  0.47031  0.86576  1.0000
  S   S73       1.0  0.79010  0.47973  0.93978  1.0000
  C   C189      1.0  0.72324  0.36147  0.80953  1.0000
  H   H198      1.0  0.77037  0.19032  0.87059  1.0000
  C   C190      1.0  0.71589  0.42858  0.84384  1.0000
  C   C191      1.0  0.74170  0.41021  0.85883  1.0000
  C   C192      1.0  0.74550  0.37695  0.84125  1.0000
  H   H199      1.0  0.75872  0.42148  0.88418  1.0000
  H   H200      1.0  0.76550  0.36287  0.85325  1.0000
  C   C193      1.0  0.69557  0.14120  0.81486  1.0000
  N   N16       1.0  0.75635  0.32886  0.55354  1.0000
  C   C194      1.0  0.71146  0.09721  0.87612  1.0000
  C   C195      1.0  0.74143  0.09929  0.85832  1.0000
  C   C196      1.0  0.74827  0.12217  0.81845  1.0000
  C   C197      1.0  0.72556  0.14332  0.79721  1.0000
  H   H201      1.0  0.77134  0.23573  0.59733  1.0000
  H   H202      1.0  0.70588  0.07962  0.90662  1.0000
  C   C198      1.0  0.78653  0.31406  0.64616  1.0000
  H   H203      1.0  0.73115  0.16085  0.76664  1.0000
  C   C199      1.0  0.80189  0.24063  0.53220  1.0000
  C   C200      1.0  0.74678  0.24876  0.52752  1.0000
  H   H204      1.0  0.68007  0.36809  0.77006  1.0000
  H   H205      1.0  0.75312  0.30903  0.95488  1.0000
  Fe  Fe36      1.0  0.69502  0.28686  0.74456  1.0000
  C   C201      1.0  0.77312  0.24111  0.55639  1.0000
  H   H206      1.0  0.70531  0.30617  0.90192  1.0000
  C   C202      1.0  0.79085  0.15768  0.92835  1.0000
  S   S74       1.0  0.67294  0.29961  0.66814  1.0000
  C   C203      1.0  0.76683  0.17595  0.90577  1.0000
  C   C204      1.0  0.69388  0.41338  0.81125  1.0000
  H   H207      1.0  0.71605  0.33258  0.59852  1.0000
  C   C205      1.0  0.73775  0.17387  0.92703  1.0000
  C   C206      1.0  0.73318  0.15428  0.97115  1.0000
  H   H208      1.0  0.79806  0.30761  0.68227  1.0000
  H   H209      1.0  0.82779  0.48649  0.82446  1.0000
  H   H210      1.0  0.81311  0.15832  0.91047  1.0000
  H   H211      1.0  0.77136  0.12377  0.80423  1.0000
  C   C207      1.0  0.68860  0.11793  0.85417  1.0000
  H   H212      1.0  0.71055  0.15195  0.98735  1.0000
  H   H213      1.0  0.74250  0.31959  0.68152  1.0000
  C   C208      1.0  0.80267  0.31533  0.59988  1.0000
  S   S75       1.0  0.81935  0.02662  0.97740  1.0000
  H   H214      1.0  0.71861  0.18653  0.90831  1.0000
  C   C209      1.0  0.74048  0.32817  0.59883  1.0000
  C   C210      1.0  0.75528  0.32070  0.64577  1.0000
  H   H215      1.0  0.82539  0.10722  0.96338  1.0000
  C   C211      1.0  0.72245  0.38511  0.98492  1.0000
  C   C212      1.0  0.78715  0.32300  0.55364  1.0000
  Fe  Fe37      1.0  0.67409  0.21388  0.73996  1.0000
  C   C213      1.0  0.71004  0.32797  0.92628  1.0000
  C   C214      1.0  0.74317  0.35833  0.98544  1.0000
  H   H216      1.0  0.82687  0.30957  0.59947  1.0000
  C   C215      1.0  0.68986  0.35527  0.92650  1.0000
  N   N17       1.0  0.69643  0.38356  0.95501  1.0000
  C   C216      1.0  0.73695  0.32968  0.95567  1.0000
  H   H217      1.0  0.68695  0.43618  0.96034  1.0000
  H   H218      1.0  0.77192  0.47485  0.82068  1.0000
  N   N18       1.0  0.78608  0.13817  0.97120  1.0000
  C   C217      1.0  0.81172  0.11945  0.99415  1.0000
  H   H219      1.0  0.79973  0.32303  0.51767  1.0000
  C   C218      1.0  0.67483  0.41173  0.95517  1.0000
  C   C219      1.0  0.78073  0.49931  0.80920  1.0000
  C   C220      1.0  0.75782  0.13676  0.99317  1.0000
  H   H220      1.0  0.67383  0.42746  0.79945  1.0000
  C   C221      1.0  0.74004  0.33653  0.50503  1.0000
  C   C222      1.0  0.81206  0.50576  0.81093  1.0000
  H   H221      1.0  0.71856  0.32144  0.50242  1.0000
  H   H222      1.0  0.73434  0.36377  0.50339  1.0000
  Fe  Fe38      1.0  0.68709  0.76270  0.36159  1.0000
  S   S76       1.0  0.72396  0.76799  0.30378  1.0000
  S   S77       1.0  0.69815  0.76029  0.44813  1.0000
  C   C223      1.0  0.72818  0.68035  0.42348  1.0000
  S   S78       1.0  0.72209  0.85160  0.24336  1.0000
  S   S79       1.0  0.67204  0.76568  0.21223  1.0000
  S   S80       1.0  0.70423  0.96183  0.06608  1.0000
  S   S81       1.0  0.79232  0.97793  0.06647  1.0000
  Fe  Fe39      1.0  0.74075  0.53737  0.02651  1.0000
  S   S82       1.0  0.70776  0.57493  0.06138  1.0000
  H   H223      1.0  0.68052  0.67372  0.16522  1.0000
  C   C224      1.0  0.72585  0.65665  0.18449  1.0000
  C   C225      1.0  0.74841  0.63251  0.17387  1.0000
  C   C226      1.0  0.74320  0.60710  0.13659  1.0000
  C   C227      1.0  0.71541  0.60582  0.10939  1.0000
  C   C228      1.0  0.69292  0.63001  0.11991  1.0000
  C   C229      1.0  0.69807  0.65533  0.15732  1.0000
  H   H224      1.0  0.76045  0.58824  0.12956  1.0000
  C   C230      1.0  0.77256  0.85163  0.34966  1.0000
  H   H225      1.0  0.79590  0.62756  0.06984  1.0000
  C   C231      1.0  0.70839  0.93237  0.11738  1.0000
  C   C232      1.0  0.73506  0.93118  0.14762  1.0000
  C   C233      1.0  0.73840  0.90675  0.18670  1.0000
  C   C234      1.0  0.71531  0.88290  0.19571  1.0000
  H   H226      1.0  0.74156  0.82752  0.12593  1.0000
  H   H227      1.0  0.75303  0.94933  0.14143  1.0000
  H   H228      1.0  0.75922  0.90615  0.20968  1.0000
  Fe  Fe40      1.0  0.69362  0.80539  0.26324  1.0000
  C   C235      1.0  0.73574  0.76017  0.47485  1.0000
  C   C236      1.0  0.76164  0.76101  0.44365  1.0000
  S   S83       1.0  0.79057  0.52763  0.04388  1.0000
  H   H229      1.0  0.75905  0.76199  0.40201  1.0000
  H   H230      1.0  0.81094  0.76015  0.44186  1.0000
  H   H231      1.0  0.81399  0.67529  0.39268  1.0000
  H   H232      1.0  0.76916  0.82866  0.32547  1.0000
  C   C237      1.0  0.77780  0.85896  0.09689  1.0000
  N   N19       1.0  0.75411  0.84915  0.39650  1.0000
  C   C238      1.0  0.71843  0.84266  0.48428  1.0000
  H   H233      1.0  0.73361  0.64070  0.01272  1.0000
  H   H234      1.0  0.72076  0.68075  0.34076  1.0000
  C   C239      1.0  0.73750  0.67967  0.37205  1.0000
  H   H235      1.0  0.71211  0.85227  0.35402  1.0000
  C   C240      1.0  0.75021  0.84218  0.48871  1.0000
  C   C241      1.0  0.78582  0.88299  0.05999  1.0000
  H   H236      1.0  0.80869  0.89366  0.05973  1.0000
  C   C242      1.0  0.68838  0.88419  0.16600  1.0000
  H   H237      1.0  0.76988  0.63325  0.19500  1.0000
  C   C243      1.0  0.78989  0.67663  0.40163  1.0000
  C   C244      1.0  0.74828  0.84561  0.09657  1.0000
  H   H238      1.0  0.77580  0.67750  0.32081  1.0000
  Fe  Fe41      1.0  0.69966  0.72790  0.25773  1.0000
  Fe  Fe42      1.0  0.74571  0.98987  0.03537  1.0000
  C   C245      1.0  0.79108  0.76001  0.46638  1.0000
  C   C246      1.0  0.76852  0.67783  0.36090  1.0000
  H   H239      1.0  0.79426  0.85105  0.12612  1.0000
  H   H240      1.0  0.79249  0.84384  0.44786  1.0000
  C   C247      1.0  0.70466  0.84648  0.43560  1.0000
  C   C248      1.0  0.68485  0.90908  0.12727  1.0000
  S   S84       1.0  0.73346  0.68790  0.23194  1.0000
  N   N20       1.0  0.73485  0.88121  0.02450  1.0000
  N   N21       1.0  0.78057  0.67744  0.45204  1.0000
  C   C249      1.0  0.76783  0.84528  0.44410  1.0000
  C   C250      1.0  0.72699  0.85700  0.05971  1.0000
  H   H241      1.0  0.79729  0.85440  0.35870  1.0000
  H   H242      1.0  0.76536  0.87386  0.32625  1.0000
  C   C251      1.0  0.79027  0.61844  0.03016  1.0000
  C   C252      1.0  0.75013  0.67898  0.46329  1.0000
  H   H243      1.0  0.81038  0.60518  0.01396  1.0000
  H   H244      1.0  0.70412  0.68285  0.43242  1.0000
  C   C253      1.0  0.72296  0.84972  0.39186  1.0000
  H   H245      1.0  0.67031  0.86612  0.17285  1.0000
  H   H246      1.0  0.82392  0.69066  0.48487  1.0000
  H   H247      1.0  0.70384  0.84726  0.06068  1.0000
  C   C254      1.0  0.76399  0.89370  0.02363  1.0000
  H   H248      1.0  0.77157  0.59952  0.03273  1.0000
  H   H249      1.0  0.67997  0.84584  0.43158  1.0000
  H   H250      1.0  0.68934  0.89542  0.00468  1.0000
  C   C255      1.0  0.80338  0.67527  0.49401  1.0000
  H   H251      1.0  0.67129  0.62908  0.09918  1.0000
  H   H252      1.0  0.81029  0.64865  0.50012  1.0000
  Fe  Fe43      1.0  0.84912  0.80469  0.72591  1.0000
  S   S85       1.0  0.88133  0.79419  0.66051  1.0000
  S   S86       1.0  0.83757  0.85922  0.74286  1.0000
  Fe  Fe44      1.0  0.83530  0.73001  0.74283  1.0000
  S   S87       1.0  0.86636  0.71401  0.67859  1.0000
  S   S88       1.0  0.80217  0.69619  0.78637  1.0000
  Fe  Fe45      1.0  0.89961  0.75266  0.71148  1.0000
  S   S89       1.0  0.94943  0.73846  0.73054  1.0000
  Fe  Fe46      1.0  0.84548  0.75700  0.63296  1.0000
  S   S90       1.0  0.83251  0.75390  0.54673  1.0000
  S   S91       1.0  0.86944  0.76575  0.77913  1.0000
  S   S92       1.0  0.81238  0.77040  0.69488  1.0000
  C   C256      1.0  0.76396  0.70104  0.93526  1.0000
  S   S93       1.0  0.75803  0.98201  0.95153  1.0000
  S   S94       1.0  0.83261  0.92518  0.96607  1.0000
  Fe  Fe47      1.0  0.79583  0.53489  0.95767  1.0000
  S   S95       1.0  0.74679  0.54654  0.94149  1.0000
  S   S96       1.0  0.83340  0.56712  0.92301  1.0000
  H   H253      1.0  0.71983  0.75810  0.55351  1.0000
  C   C257      1.0  0.76914  0.75784  0.55171  1.0000
  H   H254      1.0  0.77178  0.75629  0.59338  1.0000
  N   N22       1.0  0.77154  0.55602  0.78029  1.0000
  C   C258      1.0  0.81187  0.66021  0.82316  1.0000
  C   C259      1.0  0.78818  0.64154  0.84552  1.0000
  C   C260      1.0  0.79455  0.61332  0.87662  1.0000
  C   C261      1.0  0.82472  0.60317  0.88530  1.0000
  C   C262      1.0  0.84848  0.62173  0.86269  1.0000
  C   C263      1.0  0.84211  0.65020  0.83172  1.0000
  H   H255      1.0  0.76474  0.64934  0.83942  1.0000
  H   H256      1.0  0.77605  0.59963  0.89390  1.0000
  H   H257      1.0  0.87194  0.61408  0.86914  1.0000
  H   H258      1.0  0.86057  0.66447  0.81472  1.0000
  C   C264      1.0  0.83237  0.87492  0.80613  1.0000
  C   C265      1.0  0.81979  0.90720  0.81233  1.0000
  C   C266      1.0  0.81864  0.92238  0.86152  1.0000
  C   C267      1.0  0.83057  0.90556  0.90476  1.0000
  C   C268      1.0  0.84264  0.87299  0.89878  1.0000
  C   C269      1.0  0.84327  0.85754  0.84968  1.0000
  H   H259      1.0  0.81146  0.92086  0.77874  1.0000
  H   H260      1.0  0.80942  0.94753  0.86567  1.0000
  H   H261      1.0  0.85187  0.85985  0.93216  1.0000
  H   H262      1.0  0.85314  0.83275  0.84524  1.0000
  C   C270      1.0  0.91551  0.86047  0.76329  1.0000
  C   C271      1.0  0.98642  0.75605  0.71970  1.0000
  C   C272      1.0  0.93312  0.83578  0.85955  1.0000
  H   H263      1.0  0.97157  0.79796  0.67291  1.0000
  C   C273      1.0  0.74984  0.58289  0.76722  1.0000
  H   H264      1.0  0.94723  0.79090  0.81864  1.0000
  H   H265      1.0  0.76112  0.83820  0.52622  1.0000
  C   C274      1.0  0.73969  0.75874  0.52896  1.0000
  H   H266      1.0  0.82694  0.65878  0.97652  1.0000
  H   H267      1.0  0.84721  0.54312  0.79947  1.0000
  H   H268      1.0  0.77041  0.91243  0.99519  1.0000
  C   C275      1.0  0.92852  0.82836  0.76713  1.0000
  H   H269      1.0  0.88300  0.91587  0.76843  1.0000
  H   H270      1.0  0.91700  0.88324  0.88869  1.0000
  N   N23       1.0  0.91152  0.87979  0.80662  1.0000
  C   C276      1.0  0.74186  0.68231  0.96127  1.0000
  H   H271      1.0  0.75731  0.72158  0.90972  1.0000
  C   C277      1.0  0.99092  0.78538  0.69057  1.0000
  C   C278      1.0  0.80301  0.66559  0.97301  1.0000
  H   H272      1.0  0.81103  0.58715  0.77092  1.0000
  H   H273      1.0  0.73623  0.52007  0.79488  1.0000
  H   H274      1.0  0.73263  0.57371  0.73847  1.0000
  H   H275      1.0  0.93155  0.81297  0.73290  1.0000
  H   H276      1.0  0.90815  0.86961  0.72554  1.0000
  C   C279      1.0  0.79475  0.69288  0.94150  1.0000
  H   H277      1.0  0.93977  0.82629  0.89742  1.0000
  C   C280      1.0  0.93733  0.81596  0.81552  1.0000
  H   H278      1.0  0.88660  0.92156  0.83673  1.0000
  C   C281      1.0  0.71212  0.89295  0.98648  1.0000
  H   H279      1.0  0.71784  0.68849  0.95697  1.0000
  C   C282      1.0  0.89942  0.91411  0.80159  1.0000
  H   H280      1.0  0.71793  0.91856  0.97193  1.0000
  H   H281      1.0  0.91838  0.93226  0.79556  1.0000
  C   C283      1.0  0.92027  0.86794  0.85433  1.0000
  C   C284      1.0  0.79502  0.75825  0.52050  1.0000
  H   H282      1.0  0.71073  0.87523  0.95325  1.0000
  H   H283      1.0  0.76142  0.60531  0.75037  1.0000
  C   C285      1.0  0.75092  0.65523  0.99260  1.0000
  C   C286      1.0  0.80230  0.56235  0.78079  1.0000
  H   H284      1.0  0.81202  0.70683  0.92047  1.0000
  H   H285      1.0  0.73792  0.59114  0.80281  1.0000
  Fe  Fe48      1.0  0.80515  0.97241  0.98301  1.0000
  C   C287      1.0  0.82298  0.53744  0.79655  1.0000
  H   H286      1.0  0.70446  0.83894  0.51825  1.0000
  C   C288      1.0  0.76064  0.52500  0.79432  1.0000
  H   H287      1.0  0.79448  0.68554  0.53099  1.0000
  N   N24       1.0  0.78113  0.64686  0.99730  1.0000
  H   H288      1.0  0.74267  0.68022  0.50315  1.0000
