data_image0
_chemical_formula_structural       NCS2FeSH4C6H4CHFeCH2CSCHC2HCHCHC2H2NC2HCHS2HCFeS2FeHSCHSC6H2SHC6H6FeCH2NC2SCHC3HFeC2NCH2CH2CSFeCHCHCH3SH2CHCH2SCFeH2FeSHSC7HCH2CNC2FeH2SCH2SCSHNSCHSC2HFeHCH2CH2CFeC2SFeS2FeCSFeS3C5SCH3CHC2HCH3NCSH2CHC6HCHCNHCH3CH5FeNFeHFeS2HSFeS2CSHFeSHC6H5C7H4C2NHC2HC2HCFeCSHSCSCH6C3NCH6FeCS2FeH3FeSCHC2H2SC6H5CNCHCH2CHC2HC2HSNHSHCHC2HCHFeS2HFeSFeH3SCHCH2C3HCFeHC2H2SC2S2HCHCHSCH3C2SHC5NH3CH2CHCHSFeS2CSNFeSHFeS2NS2C9H4C6H4CHNH2CH4CH2CH2CFeH2CHCHC2HCSH2SFeCNH3CH2FeHC2HFeSHS2CH2C5H2SFeHCS2FeHCHCHCSH2C2HNCH2SCFeSC6H2NSHC2H2C2H2CHCSH4C2HC2FeCH3NH3CHFeS2FeHSH2SFeCHS3HC2HNC6H4C6HCH3C3FeSCHCHSH4C3SCHC3H3CHFeH3C2HCSFeHCFeSCSH2C6NH2CHCSCHSCHC2H2FeS3H2CH4NHC2HC3HCH2CFeH2CH2CHC
_chemical_formula_sum              "N24 C288 S96 Fe48 H288"
_cell_length_a       36.605
_cell_length_b       29.2567
_cell_length_c       43.017
_cell_angle_alpha    90.1532
_cell_angle_beta     89.5687
_cell_angle_gamma    89.7958

_space_group_name_H-M_alt    "P 1"
_space_group_IT_number       1

loop_
  _space_group_symop_operation_xyz
  'x, y, z'

loop_
  _atom_site_type_symbol
  _atom_site_label
  _atom_site_symmetry_multiplicity
  _atom_site_fract_x
  _atom_site_fract_y
  _atom_site_fract_z
  _atom_site_occupancy
  N   N1        1.0  0.07255  0.20589  0.17033  1.0000
  C   C1        1.0  0.06100  0.14626  0.20741  1.0000
  S   S1        1.0  0.08144  0.19709  0.07583  1.0000
  S   S2        1.0  0.29407  0.05124  0.05355  1.0000
  Fe  Fe1       1.0  0.23637  0.03076  0.04424  1.0000
  S   S3        1.0  0.18969  0.02736  0.07871  1.0000
  H   H1        1.0  0.39324  0.33210  0.05143  1.0000
  H   H2        1.0  0.06824  0.25350  0.13305  1.0000
  H   H3        1.0  0.04629  0.13402  0.22775  1.0000
  H   H4        1.0  0.03555  0.21244  0.20862  1.0000
  C   C2        1.0  0.11088  0.14923  0.07610  1.0000
  C   C3        1.0  0.09899  0.10664  0.08682  1.0000
  C   C4        1.0  0.12341  0.06947  0.08778  1.0000
  C   C5        1.0  0.15960  0.07441  0.07741  1.0000
  C   C6        1.0  0.17128  0.11676  0.06619  1.0000
  C   C7        1.0  0.14705  0.15411  0.06573  1.0000
  H   H5        1.0  0.07107  0.10224  0.09447  1.0000
  H   H6        1.0  0.11411  0.03667  0.09623  1.0000
  H   H7        1.0  0.19922  0.12102  0.05831  1.0000
  H   H8        1.0  0.15645  0.18693  0.05736  1.0000
  C   C8        1.0  0.09809  0.17901  0.15570  1.0000
  H   H9        1.0  0.09059  0.08330  0.19991  1.0000
  Fe  Fe2       1.0  0.02278  0.18586  0.09013  1.0000
  C   C9        1.0  0.10485  0.13447  0.16597  1.0000
  H   H10       1.0  0.12444  0.11292  0.15369  1.0000
  H   H11       1.0  0.03684  0.26301  0.16444  1.0000
  C   C10       1.0  0.08591  0.11793  0.19186  1.0000
  S   S4        1.0  0.00793  0.13754  0.12839  1.0000
  C   C11       1.0  0.48863  0.29194  0.02378  1.0000
  H   H12       1.0  0.11308  0.19177  0.13570  1.0000
  C   C12       1.0  0.06532  0.25213  0.15882  1.0000
  C   C13       1.0  0.05485  0.19055  0.19638  1.0000
  H   H13       1.0  0.08471  0.27664  0.16939  1.0000
  C   C14       1.0  0.46432  0.47770  0.03697  1.0000
  H   H14       1.0  0.48223  0.45726  0.05122  1.0000
  C   C15       1.0  0.48502  0.33412  0.03899  1.0000
  H   H15       1.0  0.44719  0.38182  0.06018  1.0000
  C   C16       1.0  0.45054  0.34874  0.04898  1.0000
  C   C17       1.0  0.42025  0.32089  0.04403  1.0000
  H   H16       1.0  0.40113  0.25751  0.02512  1.0000
  H   H17       1.0  0.05442  0.11993  0.02844  1.0000
  N   N2        1.0  0.45873  0.26496  0.01888  1.0000
  C   C18       1.0  0.42488  0.27879  0.02896  1.0000
  C   C19       1.0  0.14432  0.25438  0.48205  1.0000
  H   H18       1.0  0.07982  0.46807  0.48847  1.0000
  C   C20       1.0  0.33952  0.32077  0.62480  1.0000
  H   H19       1.0  0.32683  0.29628  0.64127  1.0000
  S   S5        1.0  0.04094  0.29054  0.40235  1.0000
  S   S6        1.0  0.03757  0.16069  0.38627  1.0000
  H   H20       1.0  0.40877  0.42940  0.50042  1.0000
  C   C21       1.0  0.02599  0.02671  0.49717  1.0000
  Fe  Fe3       1.0  0.44610  0.35818  0.59025  1.0000
  S   S7        1.0  0.39476  0.35248  0.56131  1.0000
  S   S8        1.0  0.45434  0.41869  0.62104  1.0000
  Fe  Fe4       1.0  0.16492  0.46050  0.50230  1.0000
  H   H21       1.0  0.15905  0.27939  0.49576  1.0000
  S   S9        1.0  0.12965  0.39654  0.50656  1.0000
  C   C22       1.0  0.40462  0.46605  0.49826  1.0000
  H   H22       1.0  0.09091  0.16614  0.43397  1.0000
  S   S10       1.0  0.22618  0.45587  0.50022  1.0000
  C   C23       1.0  0.36092  0.39560  0.56371  1.0000
  C   C24       1.0  0.32619  0.38708  0.55145  1.0000
  C   C25       1.0  0.29797  0.41955  0.55461  1.0000
  C   C26       1.0  0.30435  0.46102  0.56987  1.0000
  C   C27       1.0  0.33933  0.47007  0.58138  1.0000
  C   C28       1.0  0.36752  0.43759  0.57822  1.0000
  H   H23       1.0  0.32084  0.35480  0.54002  1.0000
  H   H24       1.0  0.27099  0.41175  0.54615  1.0000
  S   S11       1.0  0.50308  0.35801  0.56984  1.0000
  H   H25       1.0  0.39427  0.44527  0.58700  1.0000
  C   C29       1.0  0.06245  0.32208  0.43223  1.0000
  C   C30       1.0  0.06188  0.30760  0.46317  1.0000
  C   C31       1.0  0.08154  0.33191  0.48583  1.0000
  C   C32       1.0  0.10225  0.37054  0.47777  1.0000
  C   C33       1.0  0.10193  0.38591  0.44702  1.0000
  C   C34       1.0  0.08200  0.36180  0.42440  1.0000
  H   H26       1.0  0.04673  0.27730  0.46954  1.0000
  H   H27       1.0  0.08135  0.32002  0.50963  1.0000
  H   H28       1.0  0.11776  0.41557  0.44047  1.0000
  H   H29       1.0  0.08243  0.37332  0.40051  1.0000
  H   H30       1.0  0.16580  0.32566  0.45043  1.0000
  H   H31       1.0  0.09359  0.15781  0.49105  1.0000
  Fe  Fe5       1.0  0.47237  0.36865  0.65728  1.0000
  C   C35       1.0  0.36692  0.42673  0.66757  1.0000
  H   H32       1.0  0.07565  0.44773  0.54397  1.0000
  H   H33       1.0  0.18891  0.28340  0.42657  1.0000
  N   N3        1.0  0.14210  0.25893  0.45045  1.0000
  C   C36       1.0  0.36757  0.38287  0.65455  1.0000
  C   C37       1.0  0.30784  0.39346  0.63463  1.0000
  S   S12       1.0  0.45987  0.30740  0.62766  1.0000
  C   C38       1.0  0.37016  0.48521  0.50398  1.0000
  H   H34       1.0  0.34457  0.50212  0.59313  1.0000
  C   C39       1.0  0.07088  0.49378  0.50508  1.0000
  C   C40       1.0  0.12669  0.21825  0.49724  1.0000
  C   C41       1.0  0.10735  0.18627  0.47981  1.0000
  H   H35       1.0  0.39169  0.36177  0.65754  1.0000
  Fe  Fe6       1.0  0.01841  0.12355  0.42919  1.0000
  C   C42       1.0  0.05896  0.04216  0.48395  1.0000
  C   C43       1.0  0.12305  0.22781  0.43322  1.0000
  N   N4        1.0  0.33849  0.36705  0.63795  1.0000
  C   C44       1.0  0.16180  0.29587  0.43469  1.0000
  H   H36       1.0  0.28485  0.38115  0.62127  1.0000
  H   H37       1.0  0.12075  0.23164  0.40822  1.0000
  C   C45       1.0  0.10567  0.19098  0.44763  1.0000
  H   H38       1.0  0.14609  0.30849  0.41440  1.0000
  H   H39       1.0  0.12789  0.21514  0.52233  1.0000
  C   C46       1.0  0.33607  0.45425  0.66380  1.0000
  S   S13       1.0  0.06178  0.08052  0.45230  1.0000
  Fe  Fe7       1.0  0.01115  0.22262  0.40790  1.0000
  C   C47       1.0  0.09206  0.02627  0.49586  1.0000
  H   H40       1.0  0.32499  0.31953  0.60222  1.0000
  C   C48       1.0  0.30620  0.43749  0.64739  1.0000
  H   H41       1.0  0.34764  0.46294  0.51011  1.0000
  C   C49       1.0  0.06846  0.48203  0.53653  1.0000
  H   H42       1.0  0.36809  0.30976  0.61974  1.0000
  H   H43       1.0  0.28239  0.45900  0.64359  1.0000
  H   H44       1.0  0.11759  0.03787  0.48583  1.0000
  S   S14       1.0  0.26873  0.50063  0.57676  1.0000
  H   H45       1.0  0.33544  0.48862  0.67332  1.0000
  H   H46       1.0  0.46041  0.48008  0.48527  1.0000
  C   C50       1.0  0.43362  0.49449  0.49001  1.0000
  H   H47       1.0  0.46885  0.27496  0.74076  1.0000
  C   C51       1.0  0.07196  0.11663  0.00734  1.0000
  H   H48       1.0  0.05542  0.12491  0.98655  1.0000
  H   H49       1.0  0.42225  0.39198  0.76759  1.0000
  S   S15       1.0  0.44537  0.37428  0.70492  1.0000
  C   C52       1.0  0.46975  0.38468  0.79656  1.0000
  Fe  Fe8       1.0  0.45468  0.41244  0.93072  1.0000
  H   H50       1.0  0.43604  0.26693  0.85226  1.0000
  H   H51       1.0  0.43785  0.20095  0.00216  1.0000
  Fe  Fe9       1.0  0.45629  0.30927  0.91992  1.0000
  S   S16       1.0  0.43297  0.23811  0.91510  1.0000
  H   H52       1.0  0.40477  0.14791  0.92460  1.0000
  S   S17       1.0  0.44269  0.36840  0.88860  1.0000
  C   C53       1.0  0.06266  0.03423  0.00309  1.0000
  C   C54       1.0  0.34417  0.18230  0.98047  1.0000
  C   C55       1.0  0.36325  0.15309  0.96030  1.0000
  C   C56       1.0  0.39017  0.17076  0.94016  1.0000
  C   C57       1.0  0.39837  0.21761  0.94020  1.0000
  C   C58       1.0  0.37930  0.24688  0.96035  1.0000
  C   C59       1.0  0.35217  0.22924  0.98029  1.0000
  H   H53       1.0  0.33715  0.25206  0.99560  1.0000
  C   C60       1.0  0.41638  0.27933  0.80619  1.0000
  H   H54       1.0  0.38513  0.28311  0.96031  1.0000
  H   H55       1.0  0.39039  0.43924  0.68032  1.0000
  C   C61       1.0  0.45139  0.38579  0.76792  1.0000
  N   N5        1.0  0.08653  0.06999  0.00494  1.0000
  C   C62       1.0  0.46303  0.22219  0.00135  1.0000
  C   C63       1.0  0.47035  0.37791  0.73987  1.0000
  Fe  Fe10      1.0  0.29212  0.08768  0.00764  1.0000
  H   H56       1.0  0.16653  0.01157  0.00174  1.0000
  H   H57       1.0  0.38886  0.28744  0.81403  1.0000
  S   S18       1.0  0.46203  0.35267  0.96251  1.0000
  C   C64       1.0  0.43432  0.49092  0.98749  1.0000
  H   H58       1.0  0.35727  0.11690  0.96023  1.0000
  H   H59       1.0  0.47094  0.43486  0.99649  1.0000
  S   S19       1.0  0.31176  0.02701  0.97983  1.0000
  C   C65       1.0  0.48752  0.26091  0.78734  1.0000
  S   S20       1.0  0.31089  0.16166  0.00682  1.0000
  H   H60       1.0  0.45482  0.39035  0.81801  1.0000
  N   N6        1.0  0.47818  0.25818  0.81813  1.0000
  S   S21       1.0  0.42582  0.47590  0.94840  1.0000
  C   C66       1.0  0.44327  0.26782  0.82777  1.0000
  H   H61       1.0  0.03342  0.04043  0.00339  1.0000
  S   S22       1.0  0.23262  0.07201  0.00087  1.0000
  C   C67       1.0  0.42545  0.28108  0.77465  1.0000
  C   C68       1.0  0.46123  0.27183  0.76510  1.0000
  H   H62       1.0  0.49411  0.23729  0.86378  1.0000
  Fe  Fe11      1.0  0.50316  0.37140  0.87985  1.0000
  H   H63       1.0  0.46892  0.22993  0.97651  1.0000
  C   C69       1.0  0.45783  0.46491  0.00597  1.0000
  H   H64       1.0  0.40521  0.29118  0.75767  1.0000
  H   H65       1.0  0.09397  0.14257  0.00934  1.0000
  C   C70       1.0  0.12345  0.06227  0.00431  1.0000
  H   H66       1.0  0.14252  0.09049  0.00568  1.0000
  H   H67       1.0  0.48577  0.20143  0.01088  1.0000
  C   C71       1.0  0.13727  0.01771  0.00216  1.0000
  Fe  Fe12      1.0  0.25200  0.00793  0.97722  1.0000
  C   C72       1.0  0.24298  0.87088  0.08310  1.0000
  C   C73       1.0  0.34824  0.81337  0.03266  1.0000
  S   S23       1.0  0.35838  0.95075  0.04638  1.0000
  Fe  Fe13      1.0  0.45839  0.60803  0.09752  1.0000
  S   S24       1.0  0.46512  0.65060  0.05513  1.0000
  S   S25       1.0  0.45623  0.53206  0.08861  1.0000
  Fe  Fe14      1.0  0.46909  0.68944  0.14083  1.0000
  C   C74       1.0  0.44796  0.51710  0.04954  1.0000
  S   S26       1.0  0.47454  0.72220  0.18854  1.0000
  Fe  Fe15      1.0  0.42975  0.70264  0.07934  1.0000
  S   S27       1.0  0.38424  0.73574  0.05141  1.0000
  S   S28       1.0  0.41875  0.65701  0.12052  1.0000
  S   S29       1.0  0.25243  0.96534  0.02044  1.0000
  C   C75       1.0  0.32367  0.95988  0.11935  1.0000
  C   C76       1.0  0.36584  0.89101  0.04595  1.0000
  C   C77       1.0  0.39548  0.87325  0.06267  1.0000
  C   C78       1.0  0.40141  0.82580  0.06456  1.0000
  C   C79       1.0  0.37779  0.79563  0.04958  1.0000
  S   S30       1.0  0.48608  0.61058  0.31472  1.0000
  C   C80       1.0  0.42482  0.54347  0.03097  1.0000
  H   H68       1.0  0.41386  0.89634  0.07441  1.0000
  H   H69       1.0  0.42422  0.81262  0.07764  1.0000
  H   H70       1.0  0.28540  0.81937  0.08335  1.0000
  C   C81       1.0  0.39697  0.67758  0.28629  1.0000
  H   H71       1.0  0.20722  0.92968  0.08527  1.0000
  C   C82       1.0  0.48642  0.69006  0.27976  1.0000
  C   C83       1.0  0.47889  0.69058  0.22328  1.0000
  H   H72       1.0  0.39253  0.74759  0.30151  1.0000
  C   C84       1.0  0.48515  0.64231  0.27982  1.0000
  H   H73       1.0  0.25464  0.98075  0.10625  1.0000
  H   H74       1.0  0.38513  0.54943  0.31692  1.0000
  H   H75       1.0  0.41147  0.57338  0.04067  1.0000
  N   N7        1.0  0.29593  0.92900  0.10683  1.0000
  C   C85       1.0  0.47809  0.64283  0.22331  1.0000
  S   S31       1.0  0.47764  0.73794  0.10068  1.0000
  H   H76       1.0  0.33164  0.87113  0.10526  1.0000
  H   H77       1.0  0.32294  0.99316  0.10693  1.0000
  C   C86       1.0  0.30428  0.88408  0.10119  1.0000
  H   H78       1.0  0.22257  0.84855  0.07309  1.0000
  C   C87       1.0  0.39710  0.63184  0.29571  1.0000
  C   C88       1.0  0.27812  0.85450  0.08889  1.0000
  C   C89       1.0  0.23436  0.91633  0.08990  1.0000
  C   C90       1.0  0.48117  0.61884  0.25150  1.0000
  C   C91       1.0  0.38644  0.70029  0.33956  1.0000
  C   C92       1.0  0.39176  0.71197  0.30842  1.0000
  H   H79       1.0  0.47474  0.62439  0.20168  1.0000
  C   C93       1.0  0.34220  0.86090  0.03088  1.0000
  H   H80       1.0  0.48011  0.58188  0.25139  1.0000
  C   C94       1.0  0.26137  0.94515  0.10174  1.0000
  N   N8        1.0  0.39165  0.62068  0.32627  1.0000
  H   H81       1.0  0.40229  0.68625  0.26213  1.0000
  C   C95       1.0  0.48327  0.71407  0.25156  1.0000
  H   H82       1.0  0.32989  0.79023  0.02092  1.0000
  H   H83       1.0  0.40289  0.60545  0.27859  1.0000
  H   H84       1.0  0.48404  0.75104  0.25168  1.0000
  C   C96       1.0  0.39355  0.57274  0.33597  1.0000
  H   H85       1.0  0.31925  0.87421  0.01799  1.0000
  H   H86       1.0  0.31892  0.96557  0.14456  1.0000
  H   H87       1.0  0.48939  0.70848  0.30144  1.0000
  H   H88       1.0  0.35174  0.94605  0.11563  1.0000
  H   H89       1.0  0.42208  0.56411  0.34251  1.0000
  Fe  Fe16      1.0  0.31034  0.98919  0.02554  1.0000
  N   N9        1.0  0.06263  0.53716  0.49553  1.0000
  Fe  Fe17      1.0  0.49068  0.64098  0.36320  1.0000
  H   H90       1.0  0.17060  0.72560  0.54112  1.0000
  Fe  Fe18      1.0  0.22577  0.50610  0.53935  1.0000
  S   S32       1.0  0.04546  0.73238  0.61687  1.0000
  S   S33       1.0  0.04330  0.86270  0.63287  1.0000
  H   H91       1.0  0.15714  0.73237  0.59772  1.0000
  S   S34       1.0  0.46814  0.70734  0.38145  1.0000
  Fe  Fe19      1.0  0.44521  0.66527  0.42075  1.0000
  S   S35       1.0  0.38726  0.67498  0.43840  1.0000
  S   S36       1.0  0.46398  0.59891  0.40054  1.0000
  C   C97       1.0  0.14701  0.75796  0.58169  1.0000
  S   S37       1.0  0.22689  0.56837  0.50896  1.0000
  H   H92       1.0  0.11562  0.88863  0.52257  1.0000
  Fe  Fe20      1.0  0.16548  0.56465  0.50975  1.0000
  S   S38       1.0  0.12917  0.62818  0.50715  1.0000
  H   H93       1.0  0.07273  0.85886  0.52340  1.0000
  C   C98       1.0  0.35405  0.63140  0.43596  1.0000
  C   C99       1.0  0.31861  0.64018  0.44714  1.0000
  C   C100      1.0  0.29152  0.60627  0.44584  1.0000
  C   C101      1.0  0.29959  0.56338  0.43304  1.0000
  C   C102      1.0  0.33496  0.55464  0.42166  1.0000
  C   C103      1.0  0.36220  0.58834  0.42340  1.0000
  H   H94       1.0  0.31202  0.67340  0.45684  1.0000
  H   H95       1.0  0.26421  0.61362  0.45425  1.0000
  H   H96       1.0  0.30711  0.53128  0.49741  1.0000
  H   H97       1.0  0.38944  0.58079  0.41515  1.0000
  H   H98       1.0  0.07423  0.52015  0.44786  1.0000
  C   C104      1.0  0.04890  0.55901  0.54826  1.0000
  C   C105      1.0  0.06749  0.70290  0.58593  1.0000
  C   C106      1.0  0.06361  0.71647  0.55498  1.0000
  C   C107      1.0  0.08247  0.69287  0.53117  1.0000
  C   C108      1.0  0.10567  0.65589  0.53805  1.0000
  C   C109      1.0  0.10932  0.64204  0.56895  1.0000
  C   C110      1.0  0.09013  0.66532  0.59274  1.0000
  H   H99       1.0  0.04615  0.74517  0.54944  1.0000
  H   H100      1.0  0.07934  0.70367  0.50730  1.0000
  H   H101      1.0  0.12698  0.61352  0.57454  1.0000
  H   H102      1.0  0.09324  0.65460  0.61664  1.0000
  C   C111      1.0  0.42799  0.54157  0.48791  1.0000
  C   C112      1.0  0.12519  0.79383  0.59261  1.0000
  N   N10       1.0  0.11809  0.82116  0.54037  1.0000
  H   H103      1.0  0.04568  0.60414  0.50909  1.0000
  C   C113      1.0  0.39326  0.55965  0.49434  1.0000
  C   C114      1.0  0.15453  0.75417  0.54994  1.0000
  H   H104      1.0  0.11867  0.98423  0.52968  1.0000
  C   C115      1.0  0.09267  0.99564  0.52069  1.0000
  C   C116      1.0  0.10255  0.85479  0.51893  1.0000
  H   H105      1.0  0.04098  0.58522  0.56495  1.0000
  C   C117      1.0  0.32882  0.55036  0.50988  1.0000
  Fe  Fe21      1.0  0.02201  0.89924  0.59066  1.0000
  C   C118      1.0  0.02660  0.99512  0.52216  1.0000
  S   S39       1.0  0.06450  0.94075  0.56513  1.0000
  H   H106      1.0  0.09419  0.85329  0.58011  1.0000
  S   S40       1.0  0.26610  0.52022  0.43100  1.0000
  C   C119      1.0  0.11112  0.82549  0.57151  1.0000
  S   S41       1.0  0.49422  0.67449  0.45168  1.0000
  C   C120      1.0  0.13971  0.78626  0.52945  1.0000
  H   H107      1.0  0.10619  0.84466  0.49421  1.0000
  H   H108      1.0  0.38339  0.64558  0.37247  1.0000
  H   H109      1.0  0.32640  0.58684  0.50316  1.0000
  H   H110      1.0  0.11824  0.79635  0.61715  1.0000
  H   H111      1.0  0.38294  0.72664  0.35717  1.0000
  H   H112      1.0  0.14511  0.78245  0.50476  1.0000
  C   C121      1.0  0.05761  0.51500  0.55824  1.0000
  C   C122      1.0  0.06019  0.97969  0.53396  1.0000
  C   C123      1.0  0.05150  0.56950  0.51661  1.0000
  N   N11       1.0  0.36488  0.53142  0.50213  1.0000
  C   C124      1.0  0.06643  0.54985  0.46271  1.0000
  H   H113      1.0  0.08811  0.57617  0.46014  1.0000
  H   H114      1.0  0.45046  0.56388  0.48146  1.0000
  H   H115      1.0  0.38916  0.59635  0.49279  1.0000
  H   H116      1.0  0.32364  0.54772  0.53529  1.0000
  H   H117      1.0  0.04026  0.56394  0.45394  1.0000
  H   H118      1.0  0.34140  0.52145  0.41185  1.0000
  Fe  Fe22      1.0  0.01575  0.80074  0.61303  1.0000
  C   C125      1.0  0.38669  0.65422  0.34813  1.0000
  S   S42       1.0  0.16265  0.51804  0.46781  1.0000
  S   S43       1.0  0.16435  0.50706  0.54430  1.0000
  Fe  Fe23      1.0  0.22423  0.51806  0.46989  1.0000
  H   H119      1.0  0.37514  0.56624  0.35613  1.0000
  H   H120      1.0  0.05631  0.50656  0.58277  1.0000
  H   H121      1.0  0.10805  0.76724  0.89097  1.0000
  Fe  Fe24      1.0  0.04494  0.83822  0.93548  1.0000
  S   S44       1.0  0.10190  0.83026  0.95441  1.0000
  C   C126      1.0  0.42935  0.69807  0.98514  1.0000
  H   H122      1.0  0.08801  0.89981  0.80234  1.0000
  C   C127      1.0  0.11536  0.79790  0.87823  1.0000
  C   C128      1.0  0.41772  0.53010  0.00017  1.0000
  H   H123      1.0  0.05666  0.96094  0.99895  1.0000
  H   H124      1.0  0.05088  0.88798  0.82896  1.0000
  S   S45       1.0  0.02692  0.88827  0.89928  1.0000
  C   C129      1.0  0.13249  0.87632  0.95100  1.0000
  C   C130      1.0  0.16638  0.87362  0.96584  1.0000
  C   C131      1.0  0.19233  0.90845  0.96205  1.0000
  C   C132      1.0  0.18481  0.94578  0.94288  1.0000
  C   C133      1.0  0.15083  0.94863  0.92813  1.0000
  C   C134      1.0  0.12450  0.91432  0.93254  1.0000
  H   H125      1.0  0.17283  0.84416  0.97997  1.0000
  H   H126      1.0  0.21873  0.90548  0.97297  1.0000
  H   H127      1.0  0.14490  0.97748  0.91328  1.0000
  H   H128      1.0  0.09850  0.91675  0.92099  1.0000
  H   H129      1.0  0.39900  0.54986  0.98622  1.0000
  C   C135      1.0  0.13142  0.87890  0.84787  1.0000
  N   N12       1.0  0.10059  0.85506  0.84032  1.0000
  C   C136      1.0  0.07526  0.87308  0.81712  1.0000
  H   H130      1.0  0.13748  0.91128  0.83679  1.0000
  C   C137      1.0  0.48937  0.59570  0.97239  1.0000
  H   H131      1.0  0.06718  0.79714  0.85013  1.0000
  H   H132      1.0  0.17942  0.88163  0.87690  1.0000
  C   C138      1.0  0.09220  0.81529  0.85540  1.0000
  H   H133      1.0  0.06598  0.84527  0.80139  1.0000
  C   C139      1.0  0.15540  0.86222  0.87038  1.0000
  C   C140      1.0  0.14727  0.82139  0.88555  1.0000
  H   H134      1.0  0.40039  0.70630  0.98567  1.0000
  C   C141      1.0  0.07558  0.98926  0.00072  1.0000
  C   C142      1.0  0.44126  0.65394  0.97742  1.0000
  H   H135      1.0  0.16479  0.80902  0.90400  1.0000
  S   S46       1.0  0.01381  0.77919  0.91561  1.0000
  N   N13       1.0  0.47765  0.64300  0.97811  1.0000
  H   H136      1.0  0.42109  0.62819  0.97179  1.0000
  S   S47       1.0  0.21810  0.98781  0.93576  1.0000
  H   H137      1.0  0.44561  0.76472  0.00113  1.0000
  C   C143      1.0  0.45482  0.73096  0.99388  1.0000
  H   H138      1.0  0.47006  0.57750  0.95678  1.0000
  C   C144      1.0  0.50286  0.67505  0.98669  1.0000
  C   C145      1.0  0.49186  0.71951  0.99458  1.0000
  H   H139      1.0  0.12357  0.94640  0.99886  1.0000
  C   C146      1.0  0.11314  0.98107  0.00050  1.0000
  H   H140      1.0  0.49046  0.57693  0.99482  1.0000
  Fe  Fe25      1.0  0.94307  0.21087  0.07668  1.0000
  S   S48       1.0  0.92213  0.16297  0.11355  1.0000
  S   S49       1.0  0.90156  0.24645  0.04608  1.0000
  H   H141      1.0  0.83262  0.38305  0.01617  1.0000
  Fe  Fe26      1.0  0.96470  0.11411  0.09499  1.0000
  S   S50       1.0  0.95860  0.03866  0.08534  1.0000
  Fe  Fe27      1.0  0.96727  0.19113  0.14313  1.0000
  H   H142      1.0  0.97089  0.08356  0.25494  1.0000
  H   H143      1.0  0.80393  0.39784  0.08649  1.0000
  H   H144      1.0  0.91689  0.40452  0.08358  1.0000
  S   S51       1.0  0.96012  0.22273  0.19109  1.0000
  C   C147      1.0  0.96382  0.19165  0.22623  1.0000
  H   H145      1.0  0.89219  0.34697  0.15725  1.0000
  C   C148      1.0  0.89288  0.30593  0.04680  1.0000
  H   H146      1.0  0.89870  0.26385  0.14636  1.0000
  H   H147      1.0  0.84460  0.39205  0.13015  1.0000
  C   C149      1.0  0.87334  0.39930  0.05029  1.0000
  C   C150      1.0  0.85484  0.37006  0.03011  1.0000
  C   C151      1.0  0.91203  0.33545  0.06638  1.0000
  H   H148      1.0  0.85737  0.22693  0.10814  1.0000
  C   C152      1.0  0.90232  0.38202  0.06804  1.0000
  Fe  Fe28      1.0  0.81018  0.48513  0.03010  1.0000
  H   H149      1.0  0.93396  0.32228  0.08052  1.0000
  C   C153      1.0  0.97089  0.14450  0.28324  1.0000
  C   C154      1.0  0.96305  0.02329  0.04589  1.0000
  H   H150      1.0  0.97005  0.21111  0.30458  1.0000
  H   H151      1.0  0.79007  0.34812  0.06580  1.0000
  S   S52       1.0  0.85944  0.45674  0.05551  1.0000
  C   C155      1.0  0.84681  0.35559  0.12580  1.0000
  C   C156      1.0  0.96617  0.14394  0.22648  1.0000
  S   S53       1.0  0.98219  0.15950  0.05597  1.0000
  S   S54       1.0  0.97442  0.11332  0.31834  1.0000
  H   H152      1.0  0.77003  0.36046  0.10352  1.0000
  C   C157      1.0  0.87380  0.33037  0.14115  1.0000
  H   H153      1.0  0.90854  0.06498  0.33428  1.0000
  C   C158      1.0  0.96947  0.12051  0.25490  1.0000
  H   H154      1.0  0.62289  0.38652  0.02470  1.0000
  S   S55       1.0  0.98562  0.24216  0.10718  1.0000
  C   C159      1.0  0.87745  0.28369  0.13506  1.0000
  H   H155      1.0  0.96511  0.12507  0.20484  1.0000
  H   H156      1.0  0.96361  0.25258  0.25455  1.0000
  H   H157      1.0  0.81026  0.27273  0.08177  1.0000
  C   C160      1.0  0.96525  0.21564  0.25455  1.0000
  C   C161      1.0  0.96892  0.19223  0.28295  1.0000
  S   S56       1.0  0.75208  0.46162  0.03490  1.0000
  H   H158      1.0  0.93872  0.08489  0.02799  1.0000
  C   C162      1.0  0.79558  0.36156  0.08951  1.0000
  C   C163      1.0  0.86458  0.32354  0.02843  1.0000
  C   C164      1.0  0.85409  0.26285  0.11387  1.0000
  C   C165      1.0  0.95038  0.05189  0.02225  1.0000
  C   C166      1.0  0.82750  0.28907  0.09889  1.0000
  N   N14       1.0  0.82433  0.33491  0.10477  1.0000
  H   H159      1.0  0.84979  0.30093  0.01309  1.0000
  H   H160      1.0  0.85511  0.01442  0.34402  1.0000
  H   H161      1.0  0.61448  0.49942  0.04888  1.0000
  C   C167      1.0  0.60519  0.49750  0.02505  1.0000
  H   H162      1.0  0.51536  0.28168  0.01505  1.0000
  H   H163      1.0  0.55119  0.47402  0.03717  1.0000
  C   C168      1.0  0.56981  0.48306  0.01845  1.0000
  H   H164      1.0  0.50871  0.35585  0.04205  1.0000
  C   C169      1.0  0.88381  0.07857  0.34498  1.0000
  H   H165      1.0  0.83931  0.21092  0.35683  1.0000
  S   S57       1.0  0.95713  0.20921  0.38460  1.0000
  Fe  Fe29      1.0  0.94387  0.16718  0.42702  1.0000
  S   S58       1.0  0.88797  0.17309  0.44969  1.0000
  S   S59       1.0  0.96593  0.10161  0.40724  1.0000
  C   C170      1.0  0.62334  0.31947  0.58335  1.0000
  S   S60       1.0  0.72659  0.06675  0.51319  1.0000
  N   N15       1.0  0.61889  0.35429  0.60434  1.0000
  Fe  Fe30      1.0  0.66540  0.06070  0.51385  1.0000
  S   S61       1.0  0.62620  0.12143  0.50966  1.0000
  H   H166      1.0  0.63054  0.28540  0.59121  1.0000
  Fe  Fe31      1.0  0.98277  0.14474  0.36623  1.0000
  S   S62       1.0  0.99554  0.18663  0.45208  1.0000
  S   S63       1.0  0.76970  0.01610  0.43815  1.0000
  N   N16       1.0  0.85072  0.03350  0.52181  1.0000
  S   S64       1.0  0.55795  0.25309  0.61373  1.0000
  S   S65       1.0  0.53110  0.37199  0.64235  1.0000
  C   C171      1.0  0.84949  0.19026  0.37656  1.0000
  C   C172      1.0  0.82220  0.06843  0.36397  1.0000
  C   C173      1.0  0.60828  0.37052  0.54137  1.0000
  C   C174      1.0  0.60836  0.15843  0.53890  1.0000
  C   C175      1.0  0.61763  0.15381  0.57021  1.0000
  C   C176      1.0  0.60162  0.18283  0.59275  1.0000
  C   C177      1.0  0.57622  0.21673  0.58433  1.0000
  C   C178      1.0  0.56708  0.22154  0.55300  1.0000
  C   C179      1.0  0.58306  0.19247  0.53045  1.0000
  H   H167      1.0  0.63709  0.12787  0.57709  1.0000
  H   H168      1.0  0.60900  0.17896  0.61692  1.0000
  H   H169      1.0  0.54764  0.24752  0.54616  1.0000
  H   H170      1.0  0.57561  0.19623  0.50629  1.0000
  C   C180      1.0  0.85634  0.12780  0.44817  1.0000
  C   C181      1.0  0.81996  0.13640  0.45687  1.0000
  C   C182      1.0  0.79344  0.10202  0.45445  1.0000
  C   C183      1.0  0.80315  0.05859  0.44352  1.0000
  C   C184      1.0  0.83971  0.04958  0.43547  1.0000
  C   C185      1.0  0.86625  0.08410  0.43776  1.0000
  H   H171      1.0  0.81208  0.17011  0.46497  1.0000
  H   H172      1.0  0.76526  0.10960  0.46023  1.0000
  H   H173      1.0  0.55965  0.01540  0.44830  1.0000
  H   H174      1.0  0.89423  0.07693  0.43123  1.0000
  C   C186      1.0  0.53282  0.46968  0.52665  1.0000
  H   H175      1.0  0.60354  0.37681  0.51687  1.0000
  N   N17       1.0  0.85117  0.14184  0.36781  1.0000
  H   H176      1.0  0.61555  0.37415  0.65235  1.0000
  H   H177      1.0  0.85519  0.10604  0.52340  1.0000
  C   C187      1.0  0.53469  0.48438  0.49565  1.0000
  H   H178      1.0  0.84745  0.01600  0.42705  1.0000
  H   H179      1.0  0.83052  0.07982  0.55571  1.0000
  H   H180      1.0  0.59784  0.44032  0.55521  1.0000
  H   H181      1.0  0.53659  0.45941  0.47709  1.0000
  C   C188      1.0  0.83590  0.07849  0.53025  1.0000
  H   H182      1.0  0.65427  0.33885  0.64173  1.0000
  H   H183      1.0  0.55338  0.08970  0.54504  1.0000
  C   C189      1.0  0.88192  0.12461  0.35371  1.0000
  H   H184      1.0  0.53325  0.43358  0.53179  1.0000
  H   H185      1.0  0.56484  0.07174  0.49095  1.0000
  C   C190      1.0  0.62482  0.34519  0.63744  1.0000
  Fe  Fe32      1.0  0.51796  0.31299  0.61032  1.0000
  H   H186      1.0  0.60610  0.42511  0.61095  1.0000
  H   H187      1.0  0.62013  0.29866  0.53526  1.0000
  C   C191      1.0  0.60486  0.40611  0.56285  1.0000
  H   H188      1.0  0.60897  0.31460  0.64477  1.0000
  C   C192      1.0  0.61762  0.32683  0.55163  1.0000
  H   H189      1.0  0.79699  0.12809  0.38389  1.0000
  C   C193      1.0  0.60991  0.39730  0.59446  1.0000
  C   C194      1.0  0.82133  0.11459  0.37255  1.0000
  H   H190      1.0  0.80970  0.08547  0.51829  1.0000
  C   C195      1.0  0.56355  0.05540  0.55204  1.0000
  S   S66       1.0  0.66431  0.01173  0.47302  1.0000
  H   H191      1.0  0.80005  0.00867  0.50454  1.0000
  H   H192      1.0  0.83152  0.19558  0.39724  1.0000
  S   S67       1.0  0.53717  0.48387  0.58985  1.0000
  Fe  Fe33      1.0  0.72587  0.01408  0.47553  1.0000
  C   C196      1.0  0.56084  0.03596  0.49656  1.0000
  N   N18       1.0  0.55923  0.02201  0.52688  1.0000
  H   H193      1.0  0.79892  0.04660  0.36888  1.0000
  H   H194      1.0  0.87684  0.20296  0.38343  1.0000
  H   H195      1.0  0.00027  0.03875  0.48802  1.0000
  C   C197      1.0  0.85379  0.05032  0.35030  1.0000
  H   H196      1.0  0.54802  0.04525  0.57318  1.0000
  H   H197      1.0  0.59293  0.05851  0.55795  1.0000
  Fe  Fe34      1.0  0.51177  0.41632  0.60299  1.0000
  H   H198      1.0  0.90382  0.04899  0.53886  1.0000
  C   C198      1.0  0.88636  0.02343  0.52840  1.0000
  C   C199      1.0  0.53270  0.50167  0.55085  1.0000
  H   H199      1.0  0.90537  0.14629  0.34927  1.0000
  Fe  Fe35      1.0  0.72713  0.00633  0.54522  1.0000
  S   S68       1.0  0.77166  0.00783  0.58153  1.0000
  H   H200      1.0  0.51558  0.25547  0.77992  1.0000
  S   S69       1.0  0.80781  0.49017  0.97817  1.0000
  S   S70       1.0  0.56126  0.35878  0.98832  1.0000
  C   C200      1.0  0.52646  0.36948  0.76918  1.0000
  H   H201      1.0  0.55560  0.36324  0.76959  1.0000
  H   H202      1.0  0.65803  0.39762  0.91348  1.0000
  C   C201      1.0  0.60529  0.37695  0.97744  1.0000
  C   C202      1.0  0.61519  0.38047  0.94608  1.0000
  C   C203      1.0  0.65032  0.39549  0.93778  1.0000
  C   C204      1.0  0.67537  0.40823  0.96071  1.0000
  C   C205      1.0  0.66529  0.40528  0.99207  1.0000
  H   H203      1.0  0.52249  0.21640  0.83273  1.0000
  H   H204      1.0  0.59598  0.37102  0.92820  1.0000
  S   S71       1.0  0.71857  0.42891  0.94941  1.0000
  Fe  Fe36      1.0  0.52101  0.35923  0.94902  1.0000
  H   H205      1.0  0.52496  0.27585  0.84404  1.0000
  C   C206      1.0  0.95111  0.03691  0.99113  1.0000
  S   S72       1.0  0.53140  0.37304  0.83272  1.0000
  S   S73       1.0  0.51639  0.31037  0.90934  1.0000
  Fe  Fe37      1.0  0.74832  0.47346  0.98361  1.0000
  H   H206      1.0  0.94048  0.05881  0.97306  1.0000
  C   C207      1.0  0.63046  0.38910  0.00041  1.0000
  H   H207      1.0  0.52291  0.36393  0.71913  1.0000
  C   C208      1.0  0.50737  0.37634  0.79729  1.0000
  H   H208      1.0  0.57488  0.48604  0.93977  1.0000
  C   C209      1.0  0.58340  0.49009  0.96370  1.0000
  S   S74       1.0  0.51399  0.42076  0.91894  1.0000
  H   H209      1.0  0.63753  0.49573  0.92373  1.0000
  H   H210      1.0  0.53165  0.46710  0.98217  1.0000
  C   C210      1.0  0.55875  0.47947  0.98759  1.0000
  C   C211      1.0  0.50803  0.37008  0.74056  1.0000
  H   H211      1.0  0.68444  0.41495  0.00989  1.0000
  N   N19       1.0  0.61811  0.50404  0.97040  1.0000
  C   C212      1.0  0.50629  0.24635  0.84083  1.0000
  H   H212      1.0  0.91603  0.94340  0.07525  1.0000
  H   H213      1.0  0.91327  0.83945  0.02481  1.0000
  S   S75       1.0  0.56439  0.69377  0.05282  1.0000
  C   C213      1.0  0.93748  0.59214  0.02259  1.0000
  Fe  Fe38      1.0  0.73776  0.53634  0.03851  1.0000
  S   S76       1.0  0.69238  0.55108  0.07318  1.0000
  C   C214      1.0  0.59843  0.65101  0.05531  1.0000
  C   C215      1.0  0.59362  0.61319  0.07465  1.0000
  C   C216      1.0  0.62251  0.58244  0.07943  1.0000
  C   C217      1.0  0.65601  0.58812  0.06397  1.0000
  C   C218      1.0  0.66029  0.62445  0.04320  1.0000
  C   C219      1.0  0.63166  0.65616  0.03918  1.0000
  H   H214      1.0  0.56807  0.60822  0.08672  1.0000
  H   H215      1.0  0.61899  0.55442  0.09555  1.0000
  N   N20       1.0  0.58264  0.70610  0.14818  1.0000
  S   S77       1.0  0.79653  0.55944  0.03842  1.0000
  H   H216      1.0  0.62063  0.70734  0.11030  1.0000
  C   C220      1.0  0.57143  0.68405  0.17459  1.0000
  C   C221      1.0  0.61831  0.62686  0.16691  1.0000
  H   H217      1.0  0.56073  0.74861  0.11280  1.0000
  H   H218      1.0  0.58109  0.77837  0.14530  1.0000
  C   C222      1.0  0.56448  0.74838  0.13846  1.0000
  C   C223      1.0  0.97734  0.98027  0.03814  1.0000
  H   H219      1.0  0.65322  0.63743  0.12694  1.0000
  H   H220      1.0  0.88848  0.98154  0.03347  1.0000
  C   C224      1.0  0.91173  0.90858  0.06538  1.0000
  H   H221      1.0  0.68613  0.62922  0.03126  1.0000
  C   C225      1.0  0.61183  0.68997  0.13134  1.0000
  S   S78       1.0  0.50768  0.63643  0.12172  1.0000
  H   H222      1.0  0.63191  0.59553  0.17386  1.0000
  H   H223      1.0  0.57908  0.62595  0.20469  1.0000
  H   H224      1.0  0.90975  0.53314  0.04139  1.0000
  H   H225      1.0  0.53689  0.75191  0.14926  1.0000
  C   C226      1.0  0.58874  0.64381  0.18413  1.0000
  C   C227      1.0  0.63027  0.65035  0.14057  1.0000
  H   H226      1.0  0.54872  0.69717  0.18829  1.0000
  C   C228      1.0  0.88981  0.95047  0.01965  1.0000
  C   C229      1.0  0.90393  0.87143  0.01479  1.0000
  Fe  Fe39      1.0  0.51214  0.68171  0.08001  1.0000
  C   C230      1.0  0.91557  0.55330  0.02077  1.0000
  H   H227      1.0  0.94866  0.60274  0.04473  1.0000
  H   H228      1.0  0.88981  0.89144  0.07892  1.0000
  H   H229      1.0  0.98748  0.95813  0.05627  1.0000
  N   N21       1.0  0.90183  0.91038  0.03243  1.0000
  H   H230      1.0  0.93784  0.88958  0.06828  1.0000
  H   H231      1.0  0.63561  0.68529  0.02408  1.0000
  H   H232      1.0  0.89215  0.70324  0.02197  1.0000
  C   C231      1.0  0.55152  0.94424  0.51022  1.0000
  H   H233      1.0  0.92867  0.97162  0.52805  1.0000
  Fe  Fe40      1.0  0.94758  0.85630  0.59676  1.0000
  S   S79       1.0  0.89114  0.84976  0.57607  1.0000
  S   S80       1.0  0.97054  0.92210  0.61470  1.0000
  Fe  Fe41      1.0  0.66763  0.95613  0.50891  1.0000
  H   H234      1.0  0.67247  0.78885  0.41829  1.0000
  S   S81       1.0  0.63290  0.89166  0.51373  1.0000
  H   H235      1.0  0.59885  0.64977  0.47698  1.0000
  H   H236      1.0  0.57392  0.68704  0.45130  1.0000
  S   S82       1.0  0.72902  0.95377  0.50745  1.0000
  Fe  Fe42      1.0  0.51923  0.71089  0.41054  1.0000
  C   C232      1.0  0.66370  0.76945  0.43844  1.0000
  H   H237      1.0  0.55080  0.93302  0.46072  1.0000
  S   S83       1.0  0.66560  0.00490  0.54978  1.0000
  S   S84       1.0  0.55516  0.77449  0.40835  1.0000
  S   S85       1.0  0.54325  0.64683  0.38934  1.0000
  H   H238      1.0  0.69125  0.81289  0.47135  1.0000
  C   C233      1.0  0.63766  0.72204  0.48969  1.0000
  C   C234      1.0  0.67421  0.78294  0.46819  1.0000
  H   H239      1.0  0.60922  0.64968  0.43627  1.0000
  N   N22       1.0  0.62762  0.70894  0.46041  1.0000
  C   C235      1.0  0.60975  0.86139  0.48412  1.0000
  C   C236      1.0  0.58679  0.82489  0.49253  1.0000
  C   C237      1.0  0.56894  0.79867  0.46973  1.0000
  C   C238      1.0  0.57393  0.80877  0.43824  1.0000
  C   C239      1.0  0.59618  0.84597  0.42989  1.0000
  C   C240      1.0  0.61405  0.87217  0.45269  1.0000
  H   H240      1.0  0.58316  0.81646  0.51684  1.0000
  H   H241      1.0  0.55174  0.77033  0.47648  1.0000
  H   H242      1.0  0.60017  0.85403  0.40556  1.0000
  H   H243      1.0  0.63156  0.90022  0.44591  1.0000
  C   C241      1.0  0.85851  0.89430  0.57810  1.0000
  C   C242      1.0  0.86628  0.93648  0.59195  1.0000
  C   C243      1.0  0.83932  0.97091  0.59328  1.0000
  C   C244      1.0  0.80465  0.96360  0.58045  1.0000
  C   C245      1.0  0.79693  0.92133  0.56681  1.0000
  C   C246      1.0  0.82373  0.88686  0.56568  1.0000
  H   H244      1.0  0.89300  0.94267  0.60150  1.0000
  C   C247      1.0  0.55547  0.97667  0.53387  1.0000
  H   H245      1.0  0.77007  0.91482  0.55763  1.0000
  H   H246      1.0  0.81740  0.85420  0.55519  1.0000
  H   H247      1.0  0.88847  0.91221  0.50531  1.0000
  C   C248      1.0  0.55285  0.95814  0.47925  1.0000
  C   C249      1.0  0.66117  0.75913  0.49402  1.0000
  C   C250      1.0  0.53215  0.54850  0.54372  1.0000
  Fe  Fe43      1.0  0.98948  0.87969  0.65531  1.0000
  S   S86       1.0  0.96298  0.81506  0.63881  1.0000
  C   C251      1.0  0.53221  0.56325  0.51257  1.0000
  H   H248      1.0  0.63046  0.72352  0.41188  1.0000
  C   C252      1.0  0.60116  0.67202  0.45614  1.0000
  H   H249      1.0  0.00138  0.98304  0.53238  1.0000
  S   S87       1.0  0.54022  0.54755  0.44940  1.0000
  H   H250      1.0  0.86911  0.78584  0.65237  1.0000
  H   H251      1.0  0.66817  0.77053  0.51726  1.0000
  H   H252      1.0  0.86739  0.86837  0.64117  1.0000
  H   H253      1.0  0.62678  0.70460  0.50994  1.0000
  C   C253      1.0  0.88731  0.93684  0.67839  1.0000
  C   C254      1.0  0.87668  0.81019  0.67026  1.0000
  C   C255      1.0  0.64005  0.73233  0.43497  1.0000
  S   S88       1.0  0.99800  0.83607  0.56941  1.0000
  C   C256      1.0  0.90060  0.97984  0.52226  1.0000
  H   H254      1.0  0.53216  0.57341  0.56236  1.0000
  C   C257      1.0  0.87581  0.85707  0.66400  1.0000
  C   C258      1.0  0.87810  0.94655  0.50930  1.0000
  C   C259      1.0  0.84188  0.95729  0.50242  1.0000
  H   H255      1.0  0.55586  0.96524  0.55783  1.0000
  H   H256      1.0  0.54880  0.90829  0.51587  1.0000
  H   H257      1.0  0.82389  0.93161  0.49277  1.0000
  C   C260      1.0  0.53437  0.53112  0.48848  1.0000
  H   H258      1.0  0.53229  0.59936  0.50727  1.0000
  Fe  Fe44      1.0  0.51455  0.61036  0.42834  1.0000
  H   H259      1.0  0.84546  0.00351  0.60393  1.0000
  H   H260      1.0  0.86570  0.94600  0.66146  1.0000
  H   H261      1.0  0.91451  0.94526  0.66829  1.0000
  C   C261      1.0  0.82849  0.00105  0.50913  1.0000
  C   C262      1.0  0.55777  0.00427  0.47230  1.0000
  H   H262      1.0  0.90723  0.89805  0.73169  1.0000
  C   C263      1.0  0.89781  0.87357  0.71455  1.0000
  S   S89       1.0  0.98179  0.91174  0.70322  1.0000
  Fe  Fe45      1.0  0.98004  0.90194  0.93233  1.0000
  H   H263      1.0  0.93444  0.62437  0.94702  1.0000
  C   C264      1.0  0.98563  0.88146  0.73866  1.0000
  Fe  Fe46      1.0  0.96711  0.80108  0.94641  1.0000
  S   S90       1.0  0.93711  0.75867  0.98269  1.0000
  C   C265      1.0  0.98890  0.83486  0.79617  1.0000
  S   S91       1.0  0.94303  0.84896  0.91110  1.0000
  H   H264      1.0  0.65641  0.51966  0.00609  1.0000
  H   H265      1.0  0.85409  0.67529  0.91337  1.0000
  C   C266      1.0  0.62897  0.50854  0.00063  1.0000
  C   C267      1.0  0.90102  0.72110  0.97389  1.0000
  C   C268      1.0  0.89007  0.71328  0.94330  1.0000
  C   C269      1.0  0.86241  0.68133  0.93712  1.0000
  C   C270      1.0  0.84582  0.65667  0.96137  1.0000
  C   C271      1.0  0.99387  0.81127  0.76792  1.0000
  N   N23       1.0  0.90726  0.56631  0.96613  1.0000
  H   H266      1.0  0.90306  0.73156  0.92440  1.0000
  H   H267      1.0  0.89666  0.84135  0.96941  1.0000
  C   C272      1.0  0.88086  0.95261  0.98812  1.0000
  H   H268      1.0  0.86487  0.53551  0.93961  1.0000
  C   C273      1.0  0.98044  0.90504  0.76690  1.0000
  S   S92       1.0  0.99274  0.80411  0.83145  1.0000
  C   C274      1.0  0.88873  0.79510  0.69921  1.0000
  H   H269      1.0  0.87329  0.98495  0.97764  1.0000
  S   S93       1.0  0.96175  0.97385  0.94459  1.0000
  C   C275      1.0  0.92939  0.60385  0.96757  1.0000
  H   H270      1.0  0.51183  0.74426  0.00245  1.0000
  C   C276      1.0  0.85652  0.66483  0.99200  1.0000
  C   C277      1.0  0.64321  0.51607  0.94503  1.0000
  H   H271      1.0  0.97811  0.90047  0.81712  1.0000
  H   H272      1.0  0.96118  0.64824  0.99696  1.0000
  Fe  Fe47      1.0  0.79085  0.56306  0.98648  1.0000
  S   S94       1.0  0.81294  0.61493  0.95214  1.0000
  S   S95       1.0  0.73088  0.54669  0.98738  1.0000
  S   S96       1.0  0.00055  0.85539  0.96929  1.0000
  H   H273      1.0  0.89046  0.75880  0.70412  1.0000
  H   H274      1.0  0.90966  0.81572  0.74389  1.0000
  C   C278      1.0  0.88359  0.91328  0.96985  1.0000
  H   H275      1.0  0.51673  0.59454  0.96110  1.0000
  H   H276      1.0  0.91065  0.52869  0.92395  1.0000
  H   H277      1.0  0.67188  0.50799  0.95127  1.0000
  H   H278      1.0  0.97511  0.94145  0.76661  1.0000
  N   N24       1.0  0.88617  0.88807  0.68607  1.0000
  H   H279      1.0  0.53151  0.66596  0.98878  1.0000
  C   C279      1.0  0.89174  0.55244  0.93625  1.0000
  C   C280      1.0  0.90088  0.54057  0.99212  1.0000
  H   H280      1.0  0.84384  0.64611  0.01083  1.0000
  C   C281      1.0  0.89935  0.82695  0.72155  1.0000
  C   C282      1.0  0.96446  0.99327  0.98345  1.0000
  C   C283      1.0  0.98209  0.88191  0.79556  1.0000
  H   H281      1.0  0.98860  0.93206  0.00175  1.0000
  C   C284      1.0  0.88383  0.69726  0.99823  1.0000
  H   H282      1.0  0.99922  0.77486  0.76818  1.0000
  H   H283      1.0  0.87786  0.91483  0.94516  1.0000
  C   C285      1.0  0.94473  0.61743  0.99580  1.0000
  Fe  Fe48      1.0  0.99212  0.83085  0.88130  1.0000
  H   H284      1.0  0.88624  0.58269  0.92135  1.0000
  H   H285      1.0  0.64108  0.55308  0.93976  1.0000
  C   C286      1.0  0.99230  0.83441  0.73928  1.0000
  H   H286      1.0  0.99619  0.81583  0.71772  1.0000
  H   H287      1.0  0.88301  0.95834  0.69944  1.0000
  C   C287      1.0  0.89467  0.87226  0.98333  1.0000
  H   H288      1.0  0.88418  0.51008  0.99097  1.0000
  C   C288      1.0  0.97804  0.96538  0.00710  1.0000
