data_image0
_chemical_formula_structural       FeS2FeS2CHFeSCH2CHCHCSHC8HCHCNH2SC2HNH2C2HC2HSHNFeS3C2H2C6H2CHCSC2H3NCFeCH5CHCH2FeCHSH2SCHC3HNHCHC2HCH2CFeS2CH4CHC6H2SHSCH3NC6H3CSCFeH2CH4SHC3H4FeS2HSHSC7FeH3FeC2FeH3NC2HCHC2H4SC2H2C2SCH2CFeS2CS2FeS2FeS2H2NCFeH2C7H5C7H3CH2CSCHCH2CHCHCH2C3SH3NHSFeCH2CH2FeCHCH2NHC2HSFeCFeS2FeHSCHSFeCS2HC6H4CHC7H4NC6HCH4S2H2C3H2CHCH2FeHFeC2SHNSNH6CFeHSHS2FeCFeS3H2FeS3C8H4C6H3CHCH2CHFeH2CHCNFeCHCHCSH2CSCHCHCHNH3FeS2FeS2FeSHCHFeS2FeC7H4C6H5CHCH2CHC2SCHCHFeNHSCH2C4NH3C2HCH2SH2SH2FeS4C7H5CHFeCHCH2C3H2C2NSHCHSH3CH3SFeC2SFeS2C2SH2SCHC5H2C3FeH5C4SNCFeCH4C2FeS2FeSC3NH3FeC2HC6H4SC2HSH2CHCNSHNHC2HC3HCH3C2SH4FeCH3FeS2CHFeS2C6SNH4CHNC2HCHCH2CH2CSCHCH2CH3CH2
_chemical_formula_sum              "Fe48 S96 C288 H288 N24"
_cell_length_a       46.1403
_cell_length_b       31.026
_cell_length_c       37.8295
_cell_angle_alpha    90.0794
_cell_angle_beta     89.6752
_cell_angle_gamma    90.2173

_space_group_name_H-M_alt    "P 1"
_space_group_IT_number       1

loop_
  _space_group_symop_operation_xyz
  'x, y, z'

loop_
  _atom_site_type_symbol
  _atom_site_label
  _atom_site_symmetry_multiplicity
  _atom_site_fract_x
  _atom_site_fract_y
  _atom_site_fract_z
  _atom_site_occupancy
  Fe  Fe1       1.0  0.98758  0.04256  0.29781  1.0000
  S   S1        1.0  0.29231  0.34926  0.45653  1.0000
  S   S2        1.0  0.99112  0.03539  0.23861  1.0000
  Fe  Fe2       1.0  0.06932  0.28186  0.45885  1.0000
  S   S3        1.0  0.09731  0.33943  0.44372  1.0000
  S   S4        1.0  0.07033  0.21885  0.42636  1.0000
  C   C1        1.0  0.98990  0.00638  0.14922  1.0000
  H   H1        1.0  0.98937  0.40246  0.44954  1.0000
  Fe  Fe3       1.0  0.06181  0.37936  0.46974  1.0000
  S   S5        1.0  0.04529  0.44676  0.45645  1.0000
  C   C2        1.0  0.23228  0.24144  0.47170  1.0000
  H   H2        1.0  0.98475  0.04099  0.15342  1.0000
  H   H3        1.0  0.04715  0.09707  0.34749  1.0000
  C   C3        1.0  0.02706  0.00891  0.41349  1.0000
  H   H4        1.0  0.04643  0.06712  0.43423  1.0000
  C   C4        1.0  0.23265  0.35190  0.45311  1.0000
  H   H5        1.0  0.18579  0.35163  0.44861  1.0000
  C   C5        1.0  0.26167  0.24887  0.41907  1.0000
  S   S6        1.0  0.98574  0.10703  0.32774  1.0000
  H   H6        1.0  0.97729  0.98725  0.16881  1.0000
  C   C6        1.0  0.25677  0.34725  0.47548  1.0000
  C   C7        1.0  0.01033  0.13883  0.35322  1.0000
  C   C8        1.0  0.00013  0.17697  0.36923  1.0000
  C   C9        1.0  0.01810  0.20204  0.39143  1.0000
  C   C10       1.0  0.04665  0.18934  0.39792  1.0000
  C   C11       1.0  0.05686  0.15125  0.38181  1.0000
  C   C12       1.0  0.03891  0.12621  0.35955  1.0000
  C   C13       1.0  0.02687  0.05197  0.42422  1.0000
  H   H7        1.0  0.00989  0.23122  0.40347  1.0000
  C   C14       1.0  0.98541  0.43593  0.45599  1.0000
  H   H8        1.0  0.07892  0.14115  0.38648  1.0000
  C   C15       1.0  0.23434  0.24828  0.43534  1.0000
  N   N1        1.0  0.28620  0.24201  0.43839  1.0000
  H   H9        1.0  0.26319  0.25573  0.39103  1.0000
  H   H10       1.0  0.01341  0.00208  0.15449  1.0000
  S   S7        1.0  0.03275  0.32256  0.48091  1.0000
  C   C16       1.0  0.20401  0.34815  0.46625  1.0000
  C   C17       1.0  0.00883  0.46373  0.46196  1.0000
  H   H11       1.0  0.23614  0.35812  0.42527  1.0000
  N   N2        1.0  0.98283  0.99197  0.11338  1.0000
  H   H12       1.0  0.21495  0.25468  0.42014  1.0000
  H   H13       1.0  0.00163  0.10962  0.42894  1.0000
  C   C18       1.0  0.28441  0.23595  0.47417  1.0000
  C   C19       1.0  0.00140  0.07593  0.42110  1.0000
  H   H14       1.0  0.21128  0.24258  0.48482  1.0000
  C   C20       1.0  0.97687  0.01540  0.39683  1.0000
  C   C21       1.0  0.00184  0.99031  0.40003  1.0000
  H   H15       1.0  0.97812  0.18726  0.36446  1.0000
  S   S8        1.0  0.01310  0.98230  0.30884  1.0000
  H   H16       1.0  0.04675  0.99007  0.41536  1.0000
  N   N3        1.0  0.97701  0.05779  0.40689  1.0000
  Fe  Fe4       1.0  0.05659  0.32077  0.53261  1.0000
  S   S9        1.0  0.08421  0.37854  0.52226  1.0000
  S   S10       1.0  0.03173  0.31339  0.58428  1.0000
  S   S11       1.0  0.09044  0.27510  0.51227  1.0000
  C   C22       1.0  0.09779  0.29008  0.61935  1.0000
  C   C23       1.0  0.08843  0.29909  0.65370  1.0000
  H   H17       1.0  0.16795  0.36574  0.59471  1.0000
  H   H18       1.0  0.08893  0.26269  0.60510  1.0000
  C   C24       1.0  0.03459  0.35264  0.61807  1.0000
  C   C25       1.0  0.01771  0.34828  0.64890  1.0000
  C   C26       1.0  0.02076  0.37760  0.67711  1.0000
  C   C27       1.0  0.04111  0.41102  0.67485  1.0000
  C   C28       1.0  0.05731  0.41615  0.64366  1.0000
  C   C29       1.0  0.05392  0.38730  0.61531  1.0000
  H   H19       1.0  0.00260  0.32166  0.65124  1.0000
  H   H20       1.0  0.00825  0.37325  0.70114  1.0000
  C   C30       1.0  0.14749  0.38293  0.60122  1.0000
  H   H21       1.0  0.06696  0.39124  0.59186  1.0000
  C   C31       1.0  0.11866  0.36273  0.65370  1.0000
  S   S12       1.0  0.01189  0.45894  0.80844  1.0000
  C   C32       1.0  0.00402  0.42437  0.55099  1.0000
  C   C33       1.0  0.09900  0.33552  0.67112  1.0000
  H   H22       1.0  0.02330  0.04414  0.98316  1.0000
  H   H23       1.0  0.07303  0.44202  0.64172  1.0000
  H   H24       1.0  0.12604  0.39162  0.66713  1.0000
  N   N4        1.0  0.12746  0.35387  0.61983  1.0000
  C   C34       1.0  0.25181  0.33949  0.51145  1.0000
  Fe  Fe5       1.0  0.01332  0.46534  0.74901  1.0000
  C   C35       1.0  0.97950  0.42918  0.60739  1.0000
  H   H25       1.0  0.27003  0.33596  0.52907  1.0000
  H   H26       1.0  0.99295  0.18192  0.89636  1.0000
  H   H27       1.0  0.00290  0.12652  0.90333  1.0000
  H   H28       1.0  0.13768  0.39386  0.57598  1.0000
  H   H29       1.0  0.09105  0.34370  0.69736  1.0000
  C   C36       1.0  0.98551  0.40636  0.57625  1.0000
  H   H30       1.0  0.07219  0.27876  0.66623  1.0000
  C   C37       1.0  0.11748  0.31793  0.60276  1.0000
  H   H31       1.0  0.15290  0.41200  0.61705  1.0000
  H   H32       1.0  0.25612  0.23152  0.51977  1.0000
  Fe  Fe6       1.0  0.11704  0.33363  0.49797  1.0000
  C   C38       1.0  0.98484  0.14998  0.90545  1.0000
  H   H33       1.0  0.12429  0.31110  0.57585  1.0000
  S   S13       1.0  0.04905  0.44418  0.71146  1.0000
  H   H34       1.0  0.98547  0.28722  0.89841  1.0000
  H   H35       1.0  0.21967  0.32982  0.55247  1.0000
  S   S14       1.0  0.16346  0.33408  0.52042  1.0000
  C   C39       1.0  0.22316  0.33595  0.52463  1.0000
  H   H36       1.0  0.97844  0.15340  0.93369  1.0000
  C   C40       1.0  0.19904  0.34006  0.50216  1.0000
  C   C41       1.0  0.98625  0.46443  0.91694  1.0000
  C   C42       1.0  0.01619  0.46491  0.55698  1.0000
  H   H37       1.0  0.00932  0.40664  0.52705  1.0000
  N   N5        1.0  0.99119  0.46922  0.61285  1.0000
  H   H38       1.0  0.98299  0.35032  0.85799  1.0000
  C   C43       1.0  0.97812  0.03615  0.96984  1.0000
  H   H39       1.0  0.00671  0.44951  0.92365  1.0000
  C   C44       1.0  0.00694  0.02199  0.97361  1.0000
  C   C45       1.0  0.01476  0.97939  0.96529  1.0000
  H   H40       1.0  0.30391  0.23248  0.48975  1.0000
  C   C46       1.0  0.25744  0.23528  0.49131  1.0000
  H   H41       1.0  0.97672  0.37422  0.57225  1.0000
  H   H42       1.0  0.13521  0.76151  0.04849  1.0000
  C   C47       1.0  0.25843  0.84759  0.98926  1.0000
  Fe  Fe7       1.0  0.06387  0.82670  0.03345  1.0000
  S   S15       1.0  0.04874  0.81508  0.08995  1.0000
  S   S16       1.0  0.09670  0.87736  0.01963  1.0000
  C   C48       1.0  0.00388  0.59362  0.39921  1.0000
  H   H43       1.0  0.07359  0.95700  0.14064  1.0000
  H   H44       1.0  0.00283  0.93087  0.12063  1.0000
  H   H45       1.0  0.02118  0.52895  0.47474  1.0000
  H   H46       1.0  0.15952  0.92661  0.11648  1.0000
  C   C49       1.0  0.99109  0.95166  0.10280  1.0000
  H   H47       1.0  0.10410  0.76490  0.07696  1.0000
  C   C50       1.0  0.04651  0.85722  0.12160  1.0000
  C   C51       1.0  0.03129  0.85013  0.15336  1.0000
  C   C52       1.0  0.03095  0.88159  0.18029  1.0000
  C   C53       1.0  0.04661  0.91997  0.17613  1.0000
  C   C54       1.0  0.06148  0.92735  0.14415  1.0000
  C   C55       1.0  0.06098  0.89651  0.11674  1.0000
  H   H48       1.0  0.02008  0.81982  0.15742  1.0000
  H   H49       1.0  0.01966  0.87530  0.20490  1.0000
  S   S17       1.0  0.03164  0.84471  0.99186  1.0000
  H   H50       1.0  0.07262  0.90261  0.09235  1.0000
  S   S18       1.0  0.04988  0.95783  0.21102  1.0000
  C   C56       1.0  0.00324  0.50715  0.47007  1.0000
  H   H51       1.0  0.02420  0.60900  0.40627  1.0000
  H   H52       1.0  0.18566  0.89002  0.06704  1.0000
  H   H53       1.0  0.13798  0.74461  0.09405  1.0000
  N   N6        1.0  0.13660  0.81225  0.08678  1.0000
  C   C57       1.0  0.12253  0.83169  0.11442  1.0000
  C   C58       1.0  0.15936  0.83247  0.07032  1.0000
  C   C59       1.0  0.13066  0.87296  0.12564  1.0000
  C   C60       1.0  0.16788  0.87393  0.08060  1.0000
  C   C61       1.0  0.15330  0.89433  0.10835  1.0000
  C   C62       1.0  0.12812  0.76860  0.07607  1.0000
  H   H54       1.0  0.10462  0.81550  0.12769  1.0000
  H   H55       1.0  0.17097  0.81669  0.04895  1.0000
  H   H56       1.0  0.11920  0.88841  0.14735  1.0000
  C   C63       1.0  0.98447  0.93661  0.06893  1.0000
  S   S19       1.0  0.08457  0.77574  0.99896  1.0000
  C   C64       1.0  0.00293  0.54943  0.39230  1.0000
  Fe  Fe8       1.0  0.01291  0.97198  0.24930  1.0000
  H   H57       1.0  0.02242  0.53004  0.39438  1.0000
  H   H58       1.0  0.97884  0.65221  0.40278  1.0000
  C   C65       1.0  0.23542  0.87607  0.99689  1.0000
  H   H59       1.0  0.00165  0.95684  0.39155  1.0000
  H   H60       1.0  0.99155  0.90487  0.06040  1.0000
  H   H61       1.0  0.30454  0.93947  0.04037  1.0000
  H   H62       1.0  0.18887  0.88618  0.99774  1.0000
  S   S20       1.0  0.29507  0.86547  0.99614  1.0000
  H   H63       1.0  0.24031  0.90821  0.00627  1.0000
  C   C66       1.0  0.20611  0.86360  0.99220  1.0000
  C   C67       1.0  0.97640  0.52991  0.38419  1.0000
  C   C68       1.0  0.97849  0.61779  0.39740  1.0000
  H   H64       1.0  0.26878  0.78380  0.97097  1.0000
  H   H65       1.0  0.11298  0.74644  0.93124  1.0000
  H   H66       1.0  0.99368  0.64783  0.83330  1.0000
  H   H67       1.0  0.13055  0.78412  0.90179  1.0000
  Fe  Fe9       1.0  0.05533  0.79863  0.95561  1.0000
  S   S21       1.0  0.03014  0.76073  0.91332  1.0000
  S   S22       1.0  0.08707  0.84931  0.93677  1.0000
  H   H68       1.0  0.05512  0.76003  0.82062  1.0000
  S   S23       1.0  0.00538  0.53682  0.74955  1.0000
  H   H69       1.0  0.99913  0.91840  0.94588  1.0000
  S   S24       1.0  0.02477  0.56812  0.85176  1.0000
  C   C69       1.0  0.02795  0.70633  0.89808  1.0000
  C   C70       1.0  0.00931  0.69652  0.86975  1.0000
  C   C71       1.0  0.00790  0.65456  0.85528  1.0000
  C   C72       1.0  0.02512  0.62167  0.86906  1.0000
  C   C73       1.0  0.04341  0.63127  0.89775  1.0000
  C   C74       1.0  0.04490  0.67329  0.91214  1.0000
  C   C75       1.0  0.98546  0.49212  0.64610  1.0000
  Fe  Fe10      1.0  0.06505  0.89346  0.97612  1.0000
  H   H70       1.0  0.05987  0.68269  0.80404  1.0000
  H   H71       1.0  0.05927  0.68017  0.93394  1.0000
  H   H72       1.0  0.99607  0.72179  0.85864  1.0000
  Fe  Fe11      1.0  0.11572  0.82847  0.98195  1.0000
  C   C76       1.0  0.99340  0.95114  0.95279  1.0000
  C   C77       1.0  0.09379  0.67080  0.84166  1.0000
  Fe  Fe12      1.0  0.00039  0.52987  0.80870  1.0000
  H   H73       1.0  0.01926  0.51838  0.59290  1.0000
  H   H74       1.0  0.14649  0.73269  0.90916  1.0000
  H   H75       1.0  0.09512  0.63664  0.83557  1.0000
  N   N7        1.0  0.10843  0.73159  0.87691  1.0000
  C   C78       1.0  0.11087  0.68885  0.86839  1.0000
  C   C79       1.0  0.08876  0.75703  0.85994  1.0000
  H   H76       1.0  0.12565  0.66828  0.88273  1.0000
  C   C80       1.0  0.07140  0.74007  0.83306  1.0000
  H   H77       1.0  0.29497  0.96007  0.98100  1.0000
  C   C81       1.0  0.12540  0.74947  0.90615  1.0000
  C   C82       1.0  0.07397  0.69667  0.82391  1.0000
  H   H78       1.0  0.08561  0.79028  0.86801  1.0000
  H   H79       1.0  0.05675  0.60608  0.90877  1.0000
  H   H80       1.0  0.21738  0.76150  0.96314  1.0000
  H   H81       1.0  0.00415  0.52828  0.91433  1.0000
  S   S25       1.0  0.05153  0.96349  0.96948  1.0000
  C   C83       1.0  0.98464  0.50897  0.91154  1.0000
  C   C84       1.0  0.00955  0.48701  0.58828  1.0000
  H   H82       1.0  0.00265  0.48474  0.66562  1.0000
  H   H83       1.0  0.98477  0.52755  0.64190  1.0000
  C   C85       1.0  0.19924  0.82215  0.98005  1.0000
  C   C86       1.0  0.22222  0.79367  0.97250  1.0000
  S   S26       1.0  0.16256  0.80367  0.97463  1.0000
  C   C87       1.0  0.25153  0.80624  0.97694  1.0000
  H   H84       1.0  0.03084  0.47884  0.53751  1.0000
  H   H85       1.0  0.59523  0.08813  0.22836  1.0000
  C   C88       1.0  0.54095  0.09994  0.28859  1.0000
  Fe  Fe13      1.0  0.56550  0.13831  0.02361  1.0000
  S   S27       1.0  0.53896  0.13802  0.07477  1.0000
  S   S28       1.0  0.59030  0.07963  0.00789  1.0000
  C   C89       1.0  0.47825  0.37741  0.38886  1.0000
  S   S29       1.0  0.47440  0.02987  0.24118  1.0000
  S   S30       1.0  0.55183  0.00626  0.20284  1.0000
  Fe  Fe14      1.0  0.47585  0.02816  0.30080  1.0000
  S   S31       1.0  0.47521  0.08691  0.33865  1.0000
  S   S32       1.0  0.51900  0.99359  0.30153  1.0000
  Fe  Fe15      1.0  0.39155  0.28883  0.44619  1.0000
  S   S33       1.0  0.36821  0.34697  0.42533  1.0000
  S   S34       1.0  0.39308  0.23517  0.40375  1.0000
  H   H86       1.0  0.50000  0.12953  0.27786  1.0000
  H   H87       1.0  0.46492  0.40730  0.47226  1.0000
  N   N8        1.0  0.43048  0.37325  0.36396  1.0000
  C   C90       1.0  0.47771  0.33310  0.39505  1.0000
  Fe  Fe16      1.0  0.51538  0.99155  0.24199  1.0000
  H   H88       1.0  0.58646  0.08141  0.09617  1.0000
  H   H89       1.0  0.38267  0.98160  0.09106  1.0000
  C   C91       1.0  0.45339  0.30906  0.38541  1.0000
  C   C92       1.0  0.41598  0.19299  0.38712  1.0000
  C   C93       1.0  0.40606  0.16721  0.35889  1.0000
  C   C94       1.0  0.42348  0.13418  0.34414  1.0000
  C   C95       1.0  0.45136  0.12663  0.35717  1.0000
  C   C96       1.0  0.46128  0.15247  0.38537  1.0000
  C   C97       1.0  0.44371  0.18505  0.40046  1.0000
  H   H90       1.0  0.38468  0.17274  0.34829  1.0000
  H   H91       1.0  0.41540  0.11479  0.32253  1.0000
  H   H92       1.0  0.48269  0.14689  0.39592  1.0000
  H   H93       1.0  0.45166  0.20386  0.42248  1.0000
  H   H94       1.0  0.49677  0.39670  0.39689  1.0000
  C   C98       1.0  0.40517  0.39514  0.34919  1.0000
  C   C99       1.0  0.54227  0.09826  0.10812  1.0000
  C   C100      1.0  0.51866  0.09046  0.13088  1.0000
  C   C101      1.0  0.52085  0.06081  0.15891  1.0000
  C   C102      1.0  0.54696  0.03937  0.16508  1.0000
  C   C103      1.0  0.57042  0.04657  0.14191  1.0000
  C   C104      1.0  0.56805  0.07560  0.11341  1.0000
  H   H95       1.0  0.49858  0.10767  0.12689  1.0000
  H   H96       1.0  0.50254  0.05534  0.17619  1.0000
  H   H97       1.0  0.59073  0.03017  0.14638  1.0000
  C   C105      1.0  0.36911  0.97974  0.06775  1.0000
  H   H98       1.0  0.49591  0.31747  0.40769  1.0000
  H   H99       1.0  0.53507  0.09139  0.31554  1.0000
  C   C106      1.0  0.42977  0.32977  0.36996  1.0000
  S   S35       1.0  0.60037  0.18424  0.00411  1.0000
  C   C107      1.0  0.52120  0.12159  0.26713  1.0000
  H   H100      1.0  0.49729  0.18113  0.22434  1.0000
  C   C108      1.0  0.45430  0.39705  0.37317  1.0000
  H   H101      1.0  0.52472  0.04606  0.04734  1.0000
  H   H102      1.0  0.45448  0.43175  0.36947  1.0000
  C   C109      1.0  0.50652  0.15258  0.21063  1.0000
  H   H103      1.0  0.39376  0.41329  0.37046  1.0000
  C   C110      1.0  0.53333  0.01282  0.04426  1.0000
  H   H104      1.0  0.33153  0.22692  0.43627  1.0000
  C   C111      1.0  0.56780  0.08798  0.27469  1.0000
  H   H105      1.0  0.45251  0.27468  0.39044  1.0000
  H   H106      1.0  0.51594  0.16363  0.18503  1.0000
  C   C112      1.0  0.47250  0.43865  0.46378  1.0000
  C   C113      1.0  0.55473  0.12078  0.21926  1.0000
  C   C114      1.0  0.57486  0.09866  0.23988  1.0000
  S   S36       1.0  0.42480  0.33070  0.47352  1.0000
  H   H107      1.0  0.48876  0.12939  0.20475  1.0000
  H   H108      1.0  0.41074  0.31079  0.36331  1.0000
  H   H109      1.0  0.56011  0.12767  0.19187  1.0000
  N   N9        1.0  0.52822  0.13170  0.23293  1.0000
  H   H110      1.0  0.49815  0.00652  0.09988  1.0000
  S   S37       1.0  0.41827  0.45008  0.43470  1.0000
  Fe  Fe17      1.0  0.39902  0.38793  0.45639  1.0000
  C   C115      1.0  0.45409  0.46579  0.44494  1.0000
  H   H111      1.0  0.38953  0.37198  0.33737  1.0000
  H   H112      1.0  0.41193  0.41819  0.32824  1.0000
  C   C116      1.0  0.50108  0.45166  0.47094  1.0000
  H   H113      1.0  0.58283  0.06961  0.29061  1.0000
  H   H114      1.0  0.55084  0.00775  0.06384  1.0000
  Fe  Fe18      1.0  0.33990  0.34419  0.47395  1.0000
  C   C117      1.0  0.37903  0.99610  0.03551  1.0000
  H   H115      1.0  0.51548  0.42983  0.48445  1.0000
  C   C118      1.0  0.49371  0.98247  0.07973  1.0000
  H   H116      1.0  0.54301  0.01080  0.01728  1.0000
  H   H117      1.0  0.40048  0.01035  0.03330  1.0000
  N   N10       1.0  0.51013  0.98103  0.04951  1.0000
  H   H118      1.0  0.32139  0.27814  0.41773  1.0000
  C   C119      1.0  0.31462  0.24397  0.42087  1.0000
  C   C120      1.0  0.36154  0.99244  0.00556  1.0000
  H   H119      1.0  0.31395  0.22851  0.39439  1.0000
  S   S38       1.0  0.53966  0.14233  0.97310  1.0000
  Fe  Fe19      1.0  0.56604  0.08496  0.95701  1.0000
  C   C121      1.0  0.49833  0.41636  0.91319  1.0000
  Fe  Fe20      1.0  0.57637  0.18327  0.95178  1.0000
  S   S39       1.0  0.57544  0.24329  0.91512  1.0000
  S   S40       1.0  0.60133  0.12528  0.93160  1.0000
  Fe  Fe21      1.0  0.49147  0.43418  0.79579  1.0000
  H   H120      1.0  0.48417  0.40704  0.57966  1.0000
  S   S41       1.0  0.49151  0.37472  0.83281  1.0000
  C   C122      1.0  0.57670  0.11199  0.84857  1.0000
  H   H121      1.0  0.59840  0.10180  0.84134  1.0000
  S   S42       1.0  0.49436  0.43607  0.73602  1.0000
  Fe  Fe22      1.0  0.39378  0.33182  0.52002  1.0000
  C   C123      1.0  0.50311  0.42159  0.59186  1.0000
  S   S43       1.0  0.41571  0.32675  0.57376  1.0000
  S   S44       1.0  0.36912  0.39067  0.50331  1.0000
  H   H122      1.0  0.53316  0.37491  0.93002  1.0000
  C   C124      1.0  0.41844  0.43010  0.66160  1.0000
  C   C125      1.0  0.43689  0.39449  0.66239  1.0000
  C   C126      1.0  0.43561  0.36305  0.63545  1.0000
  C   C127      1.0  0.41600  0.36690  0.60732  1.0000
  C   C128      1.0  0.39730  0.40227  0.60673  1.0000
  C   C129      1.0  0.39850  0.43363  0.63375  1.0000
  H   H123      1.0  0.45182  0.39079  0.68410  1.0000
  H   H124      1.0  0.44975  0.33533  0.63657  1.0000
  H   H125      1.0  0.38157  0.40508  0.58578  1.0000
  H   H126      1.0  0.38376  0.46066  0.63322  1.0000
  C   C130      1.0  0.51154  0.00373  0.94213  1.0000
  H   H127      1.0  0.48195  0.39161  0.91710  1.0000
  C   C131      1.0  0.46046  0.46428  0.89154  1.0000
  C   C132      1.0  0.55159  0.27999  0.89308  1.0000
  C   C133      1.0  0.52137  0.27756  0.89624  1.0000
  C   C134      1.0  0.50354  0.30635  0.87724  1.0000
  C   C135      1.0  0.51547  0.33825  0.85487  1.0000
  C   C136      1.0  0.54570  0.34090  0.85192  1.0000
  C   C137      1.0  0.56354  0.31198  0.87082  1.0000
  H   H128      1.0  0.51169  0.25339  0.91323  1.0000
  H   H129      1.0  0.48023  0.30391  0.87994  1.0000
  H   H130      1.0  0.55537  0.36521  0.83506  1.0000
  H   H131      1.0  0.58685  0.31435  0.86804  1.0000
  N   N11       1.0  0.56968  0.15480  0.84887  1.0000
  C   C138      1.0  0.59193  0.18685  0.83977  1.0000
  C   C139      1.0  0.54266  0.16771  0.85947  1.0000
  C   C140      1.0  0.55635  0.08086  0.85890  1.0000
  C   C141      1.0  0.52185  0.13747  0.87019  1.0000
  C   C142      1.0  0.52880  0.09378  0.86987  1.0000
  C   C143      1.0  0.50925  0.41319  0.62727  1.0000
  H   H132      1.0  0.53720  0.20160  0.86023  1.0000
  C   C144      1.0  0.54870  0.43744  0.91359  1.0000
  H   H133      1.0  0.56219  0.04700  0.85974  1.0000
  H   H134      1.0  0.50068  0.14795  0.87931  1.0000
  H   H135      1.0  0.51316  0.06993  0.87895  1.0000
  H   H136      1.0  0.53843  0.42608  0.67048  1.0000
  S   S45       1.0  0.44883  0.47023  0.79690  1.0000
  S   S46       1.0  0.54726  0.02284  0.93396  1.0000
  H   H137      1.0  0.57130  0.42985  0.91822  1.0000
  H   H138      1.0  0.60377  0.17737  0.81536  1.0000
  C   C145      1.0  0.46244  0.01306  0.96463  1.0000
  C   C146      1.0  0.42119  0.47396  0.54535  1.0000
  C   C147      1.0  0.49075  0.02913  0.95922  1.0000
  H   H139      1.0  0.60754  0.18994  0.86197  1.0000
  H   H140      1.0  0.58241  0.21927  0.83533  1.0000
  C   C148      1.0  0.52161  0.44872  0.57245  1.0000
  H   H141      1.0  0.49526  0.39224  0.64273  1.0000
  C   C149      1.0  0.53363  0.43175  0.64278  1.0000
  H   H142      1.0  0.36978  0.00411  0.98038  1.0000
  H   H143      1.0  0.51669  0.45571  0.54505  1.0000
  Fe  Fe23      1.0  0.45409  0.47614  0.73756  1.0000
  H   H144      1.0  0.49631  0.06139  0.96777  1.0000
  Fe  Fe24      1.0  0.62381  0.12488  0.98436  1.0000
  C   C150      1.0  0.52729  0.40668  0.92042  1.0000
  C   C151      1.0  0.55187  0.45800  0.62246  1.0000
  S   S47       1.0  0.36237  0.28475  0.49428  1.0000
  H   H145      1.0  0.44636  0.03336  0.97714  1.0000
  N   N12       1.0  0.54576  0.46620  0.58775  1.0000
  S   S48       1.0  0.41992  0.47132  0.69423  1.0000
  N   N13       1.0  0.49092  0.45560  0.89958  1.0000
  H   H146      1.0  0.31957  0.99524  0.95782  1.0000
  H   H147      1.0  0.42871  0.44034  0.54943  1.0000
  H   H148      1.0  0.45174  0.43848  0.87404  1.0000
  H   H149      1.0  0.57091  0.47173  0.63484  1.0000
  H   H150      1.0  0.44748  0.46545  0.91630  1.0000
  H   H151      1.0  0.41410  0.47675  0.51734  1.0000
  C   C152      1.0  0.54090  0.47768  0.90028  1.0000
  Fe  Fe25      1.0  0.49387  0.93110  0.30214  1.0000
  H   H152      1.0  0.37815  0.93191  0.14798  1.0000
  S   S49       1.0  0.49628  0.87656  0.34372  1.0000
  H   H153      1.0  0.47379  0.82899  0.23690  1.0000
  S   S50       1.0  0.36443  0.77861  0.00064  1.0000
  S   S51       1.0  0.49423  0.92593  0.24251  1.0000
  Fe  Fe26      1.0  0.56665  0.57490  0.47121  1.0000
  C   C153      1.0  0.50522  0.94983  0.02463  1.0000
  Fe  Fe27      1.0  0.39898  0.81993  0.02656  1.0000
  S   S52       1.0  0.42238  0.81322  0.07924  1.0000
  S   S53       1.0  0.37513  0.88060  0.01634  1.0000
  S   S54       1.0  0.41603  0.94886  0.20632  1.0000
  H   H154      1.0  0.62999  0.68583  0.40145  1.0000
  H   H155      1.0  0.50295  0.74347  0.31828  1.0000
  Fe  Fe28      1.0  0.57580  0.67069  0.44916  1.0000
  S   S55       1.0  0.57320  0.71944  0.40286  1.0000
  S   S56       1.0  0.59804  0.60812  0.43435  1.0000
  S   S57       1.0  0.54216  0.63577  0.48240  1.0000
  C   C154      1.0  0.48251  0.92026  0.02885  1.0000
  C   C155      1.0  0.44333  0.80740  0.31582  1.0000
  C   C156      1.0  0.51909  0.83474  0.36072  1.0000
  C   C157      1.0  0.51029  0.81244  0.39147  1.0000
  C   C158      1.0  0.52652  0.77752  0.40495  1.0000
  C   C159      1.0  0.55189  0.76405  0.38777  1.0000
  C   C160      1.0  0.56068  0.78631  0.35698  1.0000
  C   C161      1.0  0.54453  0.82140  0.34361  1.0000
  H   H156      1.0  0.49069  0.82226  0.40504  1.0000
  H   H157      1.0  0.51935  0.76101  0.42862  1.0000
  H   H158      1.0  0.58019  0.77635  0.34331  1.0000
  H   H159      1.0  0.55163  0.83783  0.31989  1.0000
  C   C162      1.0  0.41881  0.91218  0.17034  1.0000
  C   C163      1.0  0.44225  0.88400  0.16671  1.0000
  C   C164      1.0  0.44294  0.85383  0.13881  1.0000
  C   C165      1.0  0.42059  0.85210  0.11373  1.0000
  C   C166      1.0  0.39754  0.88112  0.11674  1.0000
  C   C167      1.0  0.39651  0.91060  0.14516  1.0000
  H   H160      1.0  0.45967  0.88493  0.18562  1.0000
  H   H161      1.0  0.46093  0.83171  0.13657  1.0000
  H   H162      1.0  0.38006  0.87982  0.09787  1.0000
  C   C168      1.0  0.48694  0.76567  0.30799  1.0000
  H   H163      1.0  0.50041  0.55133  0.43368  1.0000
  C   C169      1.0  0.46294  0.77692  0.32857  1.0000
  H   H164      1.0  0.43608  0.87900  0.25023  1.0000
  H   H165      1.0  0.46027  0.76351  0.35486  1.0000
  C   C170      1.0  0.42630  0.85719  0.27029  1.0000
  H   H166      1.0  0.41823  0.87815  0.29205  1.0000
  Fe  Fe29      1.0  0.62690  0.61958  0.48141  1.0000
  H   H167      1.0  0.44760  0.89925  0.06248  1.0000
  H   H168      1.0  0.40775  0.84011  0.25793  1.0000
  C   C171      1.0  0.46440  0.50627  0.43378  1.0000
  H   H169      1.0  0.50968  0.77650  0.25889  1.0000
  C   C172      1.0  0.47061  0.81448  0.26271  1.0000
  N   N14       1.0  0.44749  0.82606  0.28342  1.0000
  Fe  Fe30      1.0  0.45321  0.96431  0.24383  1.0000
  C   C173      1.0  0.49083  0.78448  0.27481  1.0000
  H   H170      1.0  0.42526  0.81701  0.33245  1.0000
  C   C174      1.0  0.32512  0.95647  0.03902  1.0000
  H   H171      1.0  0.45031  0.52742  0.41905  1.0000
  C   C175      1.0  0.49272  0.51996  0.44212  1.0000
  S   S58       1.0  0.45071  0.96569  0.30356  1.0000
  H   H172      1.0  0.47817  0.89624  0.00864  1.0000
  H   H173      1.0  0.45812  0.95385  0.10916  1.0000
  C   C176      1.0  0.46526  0.92205  0.05915  1.0000
  S   S59       1.0  0.54721  0.50716  0.47098  1.0000
  C   C177      1.0  0.51121  0.49254  0.46061  1.0000
  H   H174      1.0  0.62745  0.75388  0.42826  1.0000
  C   C178      1.0  0.47104  0.95295  0.08508  1.0000
  H   H175      1.0  0.51873  0.94789  0.00116  1.0000
  C   C179      1.0  0.34194  0.95988  0.06961  1.0000
  H   H176      1.0  0.33434  0.94598  0.09430  1.0000
  N   N15       1.0  0.33499  0.97282  0.00756  1.0000
  H   H177      1.0  0.45125  0.63359  0.77589  1.0000
  H   H178      1.0  0.50585  0.51764  0.88304  1.0000
  H   H179      1.0  0.42299  0.70605  0.77741  1.0000
  Fe  Fe31      1.0  0.39078  0.78823  0.95026  1.0000
  S   S60       1.0  0.39398  0.73688  0.90569  1.0000
  S   S61       1.0  0.36685  0.84971  0.93561  1.0000
  Fe  Fe32      1.0  0.51694  0.50018  0.74224  1.0000
  S   S62       1.0  0.47683  0.54051  0.74211  1.0000
  S   S63       1.0  0.55514  0.51474  0.70551  1.0000
  Fe  Fe33      1.0  0.47531  0.53121  0.80132  1.0000
  S   S64       1.0  0.47301  0.58217  0.84610  1.0000
  H   H180      1.0  0.32687  0.93806  0.96051  1.0000
  C   C180      1.0  0.47945  0.73757  0.84772  1.0000
  H   H181      1.0  0.51978  0.94200  0.91788  1.0000
  Fe  Fe34      1.0  0.57374  0.64277  0.52737  1.0000
  S   S65       1.0  0.55203  0.65345  0.58091  1.0000
  S   S66       1.0  0.59718  0.58119  0.51695  1.0000
  Fe  Fe35      1.0  0.40146  0.88464  0.96654  1.0000
  C   C181      1.0  0.31825  0.96643  0.97514  1.0000
  C   C182      1.0  0.55413  0.55439  0.67163  1.0000
  C   C183      1.0  0.57761  0.55786  0.64789  1.0000
  C   C184      1.0  0.57702  0.58735  0.61959  1.0000
  C   C185      1.0  0.55343  0.61504  0.61559  1.0000
  C   C186      1.0  0.53035  0.61255  0.63996  1.0000
  C   C187      1.0  0.53043  0.58187  0.66743  1.0000
  H   H182      1.0  0.59644  0.53769  0.65143  1.0000
  H   H183      1.0  0.59523  0.58961  0.60154  1.0000
  H   H184      1.0  0.51218  0.63423  0.63737  1.0000
  H   H185      1.0  0.51238  0.58004  0.68564  1.0000
  C   C188      1.0  0.41478  0.69069  0.89256  1.0000
  C   C189      1.0  0.44143  0.68033  0.90785  1.0000
  C   C190      1.0  0.45842  0.64631  0.89390  1.0000
  C   C191      1.0  0.44909  0.62188  0.86457  1.0000
  C   C192      1.0  0.42202  0.63129  0.85002  1.0000
  C   C193      1.0  0.40511  0.66545  0.86385  1.0000
  H   H186      1.0  0.44928  0.69919  0.92990  1.0000
  H   H187      1.0  0.47922  0.63941  0.90562  1.0000
  H   H188      1.0  0.41423  0.61274  0.82777  1.0000
  H   H189      1.0  0.38448  0.67285  0.85185  1.0000
  H   H190      1.0  0.40189  0.47990  0.56236  1.0000
  C   C194      1.0  0.51170  0.48639  0.89363  1.0000
  H   H191      1.0  0.44972  0.52612  0.50091  1.0000
  C   C195      1.0  0.48468  0.70365  0.82410  1.0000
  H   H192      1.0  0.47008  0.91327  0.92865  1.0000
  H   H193      1.0  0.49495  0.74516  0.86827  1.0000
  C   C196      1.0  0.50386  0.96188  0.93118  1.0000
  H   H194      1.0  0.48315  0.53988  0.62423  1.0000
  C   C197      1.0  0.43319  0.74914  0.82004  1.0000
  C   C198      1.0  0.47575  0.94540  0.93743  1.0000
  S   S67       1.0  0.51783  0.49496  0.80186  1.0000
  C   C199      1.0  0.45728  0.52841  0.52786  1.0000
  H   H195      1.0  0.48934  0.63784  0.78249  1.0000
  C   C200      1.0  0.48016  0.55654  0.53551  1.0000
  H   H196      1.0  0.44839  0.78512  0.86501  1.0000
  Fe  Fe36      1.0  0.34203  0.84109  0.98671  1.0000
  N   N16       1.0  0.46454  0.69272  0.79918  1.0000
  H   H197      1.0  0.55360  0.52659  0.56314  1.0000
  S   S68       1.0  0.41842  0.95348  0.95973  1.0000
  C   C201      1.0  0.48951  0.56076  0.57030  1.0000
  H   H198      1.0  0.50447  0.68519  0.82667  1.0000
  H   H199      1.0  0.50689  0.58314  0.57643  1.0000
  C   C202      1.0  0.45344  0.76020  0.84576  1.0000
  C   C203      1.0  0.47617  0.53658  0.59696  1.0000
  C   C204      1.0  0.46980  0.65657  0.77497  1.0000
  C   C205      1.0  0.43919  0.71524  0.79669  1.0000
  N   N17       1.0  0.44443  0.50452  0.55401  1.0000
  H   H200      1.0  0.41245  0.76551  0.81934  1.0000
  H   H201      1.0  0.45770  0.49547  0.87747  1.0000
  H   H202      1.0  0.47281  0.66851  0.74754  1.0000
  C   C206      1.0  0.45354  0.50831  0.58827  1.0000
  C   C207      1.0  0.56443  0.49502  0.56695  1.0000
  H   H203      1.0  0.55736  0.50181  0.89463  1.0000
  C   C208      1.0  0.45478  0.97112  0.95387  1.0000
  H   H204      1.0  0.49047  0.57518  0.51459  1.0000
  H   H205      1.0  0.44319  0.48971  0.60915  1.0000
  S   S69       1.0  0.42696  0.82473  0.97753  1.0000
  H   H206      1.0  0.58559  0.50106  0.58001  1.0000
  H   H207      1.0  0.56918  0.48086  0.54051  1.0000
  S   S70       1.0  0.60576  0.68296  0.49538  1.0000
  H   H208      1.0  0.76557  0.18907  0.03936  1.0000
  H   H209      1.0  0.81243  0.23792  0.01375  1.0000
  Fe  Fe37      1.0  0.89611  0.14671  0.03222  1.0000
  S   S71       1.0  0.90673  0.15331  0.09044  1.0000
  S   S72       1.0  0.86704  0.09593  0.00922  1.0000
  S   S73       1.0  0.94459  0.00770  0.29923  1.0000
  S   S74       1.0  0.91659  0.99634  0.19792  1.0000
  C   C209      1.0  0.95050  0.08333  0.40354  1.0000
  C   C210      1.0  0.91097  0.10833  0.11869  1.0000
  C   C211      1.0  0.89926  0.06788  0.11042  1.0000
  C   C212      1.0  0.90123  0.03372  0.13483  1.0000
  C   C213      1.0  0.91547  0.03942  0.16728  1.0000
  C   C214      1.0  0.92793  0.07946  0.17501  1.0000
  C   C215      1.0  0.92538  0.11384  0.15099  1.0000
  H   H210      1.0  0.88813  0.06315  0.08562  1.0000
  H   H211      1.0  0.77769  0.08784  0.99257  1.0000
  H   H212      1.0  0.93879  0.08441  0.19997  1.0000
  H   H213      1.0  0.93441  0.14504  0.15766  1.0000
  H   H214      1.0  0.93892  0.43041  0.45091  1.0000
  C   C216      1.0  0.96003  0.00371  0.05726  1.0000
  H   H215      1.0  0.84694  0.12332  0.10405  1.0000
  Fe  Fe38      1.0  0.95052  0.99613  0.24113  1.0000
  C   C217      1.0  0.95682  0.45191  0.45665  1.0000
  H   H216      1.0  0.79268  0.26083  0.05055  1.0000
  C   C218      1.0  0.81152  0.24054  0.04307  1.0000
  H   H217      1.0  0.72680  0.06440  0.00388  1.0000
  H   H218      1.0  0.76005  0.11565  0.06369  1.0000
  C   C219      1.0  0.78327  0.17508  0.05420  1.0000
  C   C220      1.0  0.83128  0.17923  0.07628  1.0000
  C   C221      1.0  0.80308  0.11457  0.08580  1.0000
  H   H219      1.0  0.80109  0.08202  0.09600  1.0000
  H   H220      1.0  0.85157  0.19657  0.07950  1.0000
  C   C222      1.0  0.78007  0.13342  0.06781  1.0000
  C   C223      1.0  0.82881  0.13764  0.09025  1.0000
  N   N18       1.0  0.80862  0.19742  0.05854  1.0000
  S   S75       1.0  0.87647  0.20128  0.00135  1.0000
  H   H221      1.0  0.95752  0.00083  0.38577  1.0000
  C   C224      1.0  0.73097  0.09575  0.99238  1.0000
  H   H222      1.0  0.93594  0.07740  0.42646  1.0000
  S   S76       1.0  0.67127  0.10407  0.99360  1.0000
  H   H223      1.0  0.83156  0.25720  0.05196  1.0000
  H   H224      1.0  0.89158  0.00282  0.12859  1.0000
  H   H225      1.0  0.94771  0.02425  0.03967  1.0000
  C   C225      1.0  0.96746  0.01798  0.09114  1.0000
  H   H226      1.0  0.95558  0.11836  0.40186  1.0000
  H   H227      1.0  0.96074  0.04989  0.09954  1.0000
  H   H228      1.0  0.93913  0.07516  0.37854  1.0000
  S   S77       1.0  0.93216  0.13811  0.99307  1.0000
  Fe  Fe39      1.0  0.84924  0.14942  0.97529  1.0000
  C   C226      1.0  0.92636  0.07912  0.86930  1.0000
  C   C227      1.0  0.95110  0.09344  0.88705  1.0000
  S   S78       1.0  0.80192  0.16947  0.96468  1.0000
  Fe  Fe40      1.0  0.91011  0.18816  0.95944  1.0000
  S   S79       1.0  0.94241  0.23475  0.93276  1.0000
  S   S80       1.0  0.88233  0.13902  0.93153  1.0000
  C   C228      1.0  0.93545  0.45859  0.90312  1.0000
  C   C229      1.0  0.76579  0.14943  0.97121  1.0000
  S   S81       1.0  0.93312  0.39892  0.83051  1.0000
  H   H229      1.0  0.89010  0.34521  0.86352  1.0000
  H   H230      1.0  0.69544  0.18385  0.96216  1.0000
  S   S82       1.0  0.92041  0.02489  0.95059  1.0000
  C   C230      1.0  0.95682  0.00806  0.95698  1.0000
  H   H231      1.0  0.74630  0.20750  0.95119  1.0000
  C   C231      1.0  0.93915  0.27995  0.90392  1.0000
  C   C232      1.0  0.91232  0.29650  0.89371  1.0000
  C   C233      1.0  0.91101  0.33255  0.87099  1.0000
  C   C234      1.0  0.93640  0.35239  0.85789  1.0000
  C   C235      1.0  0.71321  0.16281  0.96885  1.0000
  H   H232      1.0  0.95076  0.19797  0.86401  1.0000
  H   H233      1.0  0.89256  0.28178  0.90352  1.0000
  C   C236      1.0  0.96140  0.43921  0.91291  1.0000
  C   C237      1.0  0.96325  0.33555  0.86780  1.0000
  C   C238      1.0  0.94430  0.16433  0.86519  1.0000
  Fe  Fe41      1.0  0.90259  0.09010  0.96803  1.0000
  H   H234      1.0  0.89081  0.09774  0.83601  1.0000
  H   H235      1.0  0.96305  0.07076  0.90307  1.0000
  H   H236      1.0  0.91631  0.43888  0.89859  1.0000
  H   H237      1.0  0.90691  0.17439  0.83222  1.0000
  H   H238      1.0  0.91920  0.04589  0.87210  1.0000
  C   C239      1.0  0.70734  0.12247  0.98390  1.0000
  C   C240      1.0  0.96457  0.29969  0.89074  1.0000
  C   C241      1.0  0.91043  0.10823  0.84921  1.0000
  C   C242      1.0  0.74218  0.17612  0.96265  1.0000
  S   S83       1.0  0.96679  0.44677  0.74248  1.0000
  N   N19       1.0  0.95978  0.13554  0.88486  1.0000
  C   C243      1.0  0.91944  0.15115  0.84707  1.0000
  Fe  Fe42      1.0  0.96415  0.44577  0.80201  1.0000
  C   C244      1.0  0.75993  0.10894  0.98596  1.0000
  H   H239      1.0  0.97258  0.06893  0.97654  1.0000
  H   H240      1.0  0.96584  0.41433  0.62742  1.0000
  H   H241      1.0  0.96232  0.40456  0.91658  1.0000
  H   H242      1.0  0.91836  0.82795  0.22212  1.0000
  C   C245      1.0  0.69633  0.71722  0.42735  1.0000
  C   C246      1.0  0.97465  0.52293  0.47135  1.0000
  Fe  Fe43      1.0  0.90832  0.67864  0.44587  1.0000
  S   S84       1.0  0.87522  0.62608  0.43571  1.0000
  S   S85       1.0  0.92850  0.71203  0.39715  1.0000
  Fe  Fe44      1.0  0.90287  0.58508  0.47159  1.0000
  S   S86       1.0  0.91526  0.51530  0.46043  1.0000
  C   C247      1.0  0.69911  0.65000  0.39541  1.0000
  C   C248      1.0  0.91021  0.84872  0.24300  1.0000
  C   C249      1.0  0.96866  0.96278  0.04618  1.0000
  N   N20       1.0  0.95152  0.55376  0.38305  1.0000
  H   H243      1.0  0.90628  0.90447  0.20929  1.0000
  H   H244      1.0  0.88884  0.92097  0.35116  1.0000
  H   H245      1.0  0.73603  0.68193  0.41845  1.0000
  Fe  Fe45      1.0  0.97009  0.94698  0.30821  1.0000
  C   C250      1.0  0.95128  0.49562  0.46382  1.0000
  C   C251      1.0  0.95237  0.59726  0.38902  1.0000
  H   H246      1.0  0.90547  0.54935  0.38687  1.0000
  C   C252      1.0  0.94689  0.85461  0.36753  1.0000
  C   C253      1.0  0.95547  0.82088  0.34526  1.0000
  C   C254      1.0  0.94968  0.77762  0.35482  1.0000
  C   C255      1.0  0.93545  0.76735  0.38682  1.0000
  C   C256      1.0  0.92697  0.80112  0.40911  1.0000
  C   C257      1.0  0.93263  0.84437  0.39948  1.0000
  H   H247      1.0  0.92584  0.87005  0.41699  1.0000
  H   H248      1.0  0.93275  0.61637  0.38776  1.0000
  H   H249      1.0  0.91602  0.79392  0.43379  1.0000
  H   H250      1.0  0.71147  0.62247  0.38621  1.0000
  S   S87       1.0  0.67478  0.60104  0.47220  1.0000
  C   C258      1.0  0.90655  0.83282  0.27723  1.0000
  C   C259      1.0  0.71079  0.61959  0.48122  1.0000
  H   H251      1.0  0.89371  0.84769  0.33046  1.0000
  S   S88       1.0  0.97219  0.93224  0.24984  1.0000
  H   H252      1.0  0.88717  0.96471  0.32076  1.0000
  H   H253      1.0  0.85599  0.92960  0.32615  1.0000
  C   C260      1.0  0.71289  0.68339  0.41355  1.0000
  H   H254      1.0  0.70706  0.74214  0.44264  1.0000
  C   C261      1.0  0.90346  0.89160  0.23579  1.0000
  N   N21       1.0  0.89075  0.90266  0.29682  1.0000
  S   S89       1.0  0.95198  0.91005  0.35623  1.0000
  H   H255      1.0  0.91183  0.79958  0.28331  1.0000
  N   N22       1.0  0.66697  0.71819  0.42256  1.0000
  H   H256      1.0  0.96308  0.95129  0.02003  1.0000
  C   C262      1.0  0.89370  0.91830  0.26318  1.0000
  C   C263      1.0  0.66914  0.65110  0.39085  1.0000
  H   H257      1.0  0.88885  0.95177  0.25735  1.0000
  C   C264      1.0  0.89641  0.86029  0.30388  1.0000
  C   C265      1.0  0.73446  0.59598  0.46772  1.0000
  C   C266      1.0  0.88002  0.93087  0.32509  1.0000
  H   H258      1.0  0.73041  0.56646  0.45327  1.0000
  C   C267      1.0  0.65331  0.68566  0.40465  1.0000
  H   H259      1.0  0.78118  0.59144  0.46202  1.0000
  H   H260      1.0  0.65806  0.62457  0.37793  1.0000
  H   H261      1.0  0.92101  0.53354  0.34466  1.0000
  C   C268      1.0  0.76336  0.61011  0.47259  1.0000
  C   C269      1.0  0.92403  0.53293  0.37372  1.0000
  S   S90       1.0  0.93698  0.63569  0.47860  1.0000
  H   H262      1.0  0.97084  0.55653  0.47708  1.0000
  H   H263      1.0  0.95645  0.75186  0.33737  1.0000
  H   H264      1.0  0.96653  0.82806  0.32066  1.0000
  H   H265      1.0  0.92342  0.49901  0.38324  1.0000
  Fe  Fe46      1.0  0.85237  0.64868  0.48544  1.0000
  C   C270      1.0  0.65013  0.75350  0.43815  1.0000
  H   H266      1.0  0.66003  0.78512  0.43137  1.0000
  H   H267      1.0  0.64928  0.74985  0.46735  1.0000
  H   H268      1.0  0.97572  0.49532  0.37992  1.0000
  Fe  Fe47      1.0  0.91002  0.65560  0.52539  1.0000
  S   S91       1.0  0.87711  0.60286  0.52020  1.0000
  S   S92       1.0  0.93055  0.67122  0.57835  1.0000
  C   C271      1.0  0.96468  0.96559  0.94827  1.0000
  H   H269      1.0  0.94847  0.94361  0.93810  1.0000
  Fe  Fe48      1.0  0.95845  0.51786  0.74616  1.0000
  S   S93       1.0  0.92523  0.53951  0.70567  1.0000
  S   S94       1.0  0.95232  0.51629  0.80550  1.0000
  C   C272      1.0  0.93382  0.63097  0.61130  1.0000
  C   C273      1.0  0.94715  0.64136  0.64354  1.0000
  C   C274      1.0  0.94686  0.61198  0.67194  1.0000
  C   C275      1.0  0.93277  0.57222  0.66846  1.0000
  C   C276      1.0  0.92046  0.56115  0.63578  1.0000
  C   C277      1.0  0.92131  0.59013  0.60718  1.0000
  S   S95       1.0  0.80510  0.66834  0.49794  1.0000
  N   N23       1.0  0.95899  0.52780  0.90233  1.0000
  H   H270      1.0  0.90927  0.53064  0.63293  1.0000
  H   H271      1.0  0.91112  0.58153  0.58253  1.0000
  H   H272      1.0  0.84894  0.56357  0.65867  1.0000
  H   H273      1.0  0.81889  0.56857  0.60418  1.0000
  C   C278      1.0  0.86623  0.62772  0.65296  1.0000
  H   H274      1.0  0.84091  0.73311  0.59505  1.0000
  N   N24       1.0  0.85075  0.66695  0.60173  1.0000
  C   C279      1.0  0.86707  0.66460  0.63174  1.0000
  C   C280      1.0  0.83323  0.63326  0.59209  1.0000
  H   H275      1.0  0.69869  0.67631  0.51042  1.0000
  C   C281      1.0  0.84894  0.59286  0.64298  1.0000
  H   H276      1.0  0.87454  0.71565  0.57476  1.0000
  C   C282      1.0  0.85167  0.70645  0.58054  1.0000
  H   H277      1.0  0.88153  0.69086  0.63884  1.0000
  H   H278      1.0  0.84058  0.70227  0.55475  1.0000
  C   C283      1.0  0.83227  0.59557  0.61238  1.0000
  H   H279      1.0  0.82022  0.63509  0.56830  1.0000
  H   H280      1.0  0.87980  0.62549  0.67625  1.0000
  C   C284      1.0  0.95786  0.57430  0.89559  1.0000
  S   S96       1.0  0.88430  0.70351  0.49362  1.0000
  C   C285      1.0  0.76910  0.64826  0.49112  1.0000
  H   H281      1.0  0.74949  0.70139  0.51910  1.0000
  C   C286      1.0  0.71652  0.65771  0.49982  1.0000
  H   H282      1.0  0.93653  0.58790  0.90343  1.0000
  H   H283      1.0  0.95693  0.67283  0.64697  1.0000
  C   C287      1.0  0.74543  0.67188  0.50465  1.0000
  H   H284      1.0  0.91468  0.51760  0.88855  1.0000
  H   H285      1.0  0.95605  0.62112  0.69712  1.0000
  H   H286      1.0  0.96166  0.58056  0.86702  1.0000
  C   C288      1.0  0.93470  0.50310  0.89744  1.0000
  H   H287      1.0  0.96413  0.48274  0.65769  1.0000
  H   H288      1.0  0.97478  0.59188  0.91075  1.0000
