data_image0
_chemical_formula_structural       CH2SCS4CFeCSFeS2FeSHFeSFeS3C7H2CH2CH3C6H3FeC2H2FeHCH2C2HC2H2NH2C2H3C4H5NCHCHC3H3CH3SHCFeCNC3SH4S2FeSHFe2S3HFeS2FeS2FeSFeS3FeSCFeS2FeSFeS3FeS2FeS2FeSFeS3C6H4C6H4C6H4C7H3C6H8C6H4C3HCH3CHCH6CHCH2CNC3H6CHC2SHC2NH4CNH2C3HCHNCHC3HC2NHCH2C5FeHC2NCHC2HC2HNHC4H3C2H2CHC4H4CH2CHC3SH5SHC2HCH2SNHCH5CH4SFeS2FeSFeSH4NHCH2C2HC2H2C4H2C2HCHCH2C2H3NCH2FeNCSHFeSH2SH2FeS3HSHNH4C2H2C3FeHFeS2FeS2FeCFeS3HC2HCNC4H3CHNSC2HC2SH2C6H5C6H4CFeH2CH2C3H2CHC2HCSH3FeC3HCHFeHC3HCH3Fe2CSFeS2FeCFeHS2FeSHFeSCFeSFeHFeS4FeS2C5SCH2NSHC6H4C7H5NC6H2C7HCH3C9H4NC3HC2H2C3SH5C2H5CHCH3NHCH2NCH2CH4SC2HC3FeHCNHC2H2SHCSCHSC5H2CHCNH2CNHSHSCH3C4HC2H2C2H2CH2CHC2HNC3S2H3SCHNCH2C3HCH2CSCH3SH2C2HC2H6SH3C2HCS2C2FeCFeSHFeS2FeSFeS3FeSCFeSCFeHFeH2SFeS2FeS2FeSFeS3FeC2FeS2CHFeCS2FeS2FeS2FeSFeS4C7H4CH3C6H4C6H2CH6C2HCHCHC8H4C6H4C6H4C3H2NC5H6CH2C3H4NC6H8NCHCHC2SHNH2CHNCHCHCH2SHCHCNHCHFeH2SH4C2NC2H2C4H3CHCNC2HSH4C3H2CHCH4SHNCH2FeS2FeS2FeSFeS3FeS2FeS2FeSFeS3FeSFeS2FeSFeS3FeH2FeS2FeSFeHS2FeSFeS2Fe2HS3C2HSC2HNC9H4C6H4C6H6C6H4C6H4C6H4CH2C2HCH3C2H3CHCSH4CHCHCH2CHCSCNCNC6H8NC6H4CHCNC3H4CN2CHNHC3H2CH2CH2CHC3H2C2H2NH2C2HC3H3C3HCHCH4CHNC3HCHCS2NHC2HC2HC2H2C4H2SC2H3CNCSCHCH4CH2C2H3CHC2H2C2H2CSHCH2SFeS2FeS2FeSFeHS2FeS2FeSFeC2S2FeS2FeSHFeSFeS3FeSFeSCFeSFeS2FeS3C6H4C3SHCHNH2C6H5CH3CHCHCH3CSH2C6H2C2HSC6H4S2C2H3NC6H8NC6H6CH2CHC2H5SHCH3C3H2CFeCH2NC2NHC3HCH2C3FeHCH4SC2NHCHC2HSH2C2SCHC2H2C4HCH3SC2H3CSHSC3SC2HNC2NC2NHCFe2CSH2CH3CH2CH2CH3CH2FeC4HC2H2CHS2CSFeHFeS2CH2FeC2S2C2HCH2CH2FeH3CH2C7H7CHCSNHSC3HC2H2CH2C2H3CHCHCH3CH2C2H2CHSNCHFeSCFeS2FeSCSH7CH2CH2C6H4NC6H2CSHC3SC2HCFeH2SH2SCHC2HCHCHCFeS2FeS2FeCFeS3FeS2FeS2Fe2S3FeS2FeS2FeSFeS3FeS2FeSFeSFeS3FeS2FeS2FeSFeS3FeS2CHC6H4C6H4CHC9H4C6H4C6H4C7H8C7H6CHCHN2C5H5N2C6H8C3H5C3SCFeCNCHC4H5C4S2CNCHC4H5NHCHCHC2HCH7CHCH3CH2CH4SCHCNC5HC3HC3H2CH3C3H6CH3CH5C2H2CNC3HC2H2CNCH2CHCH2CH2CH2CHCHSC2NH2FeS2CSCH3NHCHSC2H3CH2CHFeHC2H
_chemical_formula_sum              "C864 H864 S288 Fe144 N72"
_cell_length_a       85.7947
_cell_length_b       83.3511
_cell_length_c       35.2285
_cell_angle_alpha    90.2632
_cell_angle_beta     90.5118
_cell_angle_gamma    112.193

_space_group_name_H-M_alt    "P 1"
_space_group_IT_number       1

loop_
  _space_group_symop_operation_xyz
  'x, y, z'

loop_
  _atom_site_type_symbol
  _atom_site_label
  _atom_site_symmetry_multiplicity
  _atom_site_fract_x
  _atom_site_fract_y
  _atom_site_fract_z
  _atom_site_occupancy
  C   C1        1.0  0.00007  0.37854  0.98063  1.0000
  H   H1        1.0  0.13280  0.46195  0.59999  1.0000
  H   H2        1.0  0.01490  0.40673  0.90923  1.0000
  S   S1        1.0  0.15022  0.47346  0.77401  1.0000
  C   C2        1.0  0.13873  0.44048  0.16314  1.0000
  S   S2        1.0  0.16869  0.48094  0.58297  1.0000
  S   S3        1.0  0.18250  0.48668  0.68926  1.0000
  S   S4        1.0  0.16225  0.48118  0.32446  1.0000
  S   S5        1.0  0.20632  0.48357  0.29008  1.0000
  C   C3        1.0  0.12704  0.43384  0.13349  1.0000
  Fe  Fe1       1.0  0.17116  0.49544  0.63934  1.0000
  C   C4        1.0  0.22653  0.48020  0.37978  1.0000
  S   S6        1.0  0.12617  0.47875  0.24527  1.0000
  Fe  Fe2       1.0  0.05150  0.43342  0.99319  1.0000
  S   S7        1.0  0.07865  0.43693  0.98090  1.0000
  S   S8        1.0  0.02919  0.40714  0.98771  1.0000
  Fe  Fe3       1.0  0.06122  0.47160  0.00625  1.0000
  S   S9        1.0  0.08857  0.47840  0.99496  1.0000
  H   H3        1.0  0.01071  0.48084  0.02170  1.0000
  Fe  Fe4       1.0  0.08023  0.45998  0.94534  1.0000
  S   S10       1.0  0.09080  0.47088  0.88674  1.0000
  Fe  Fe5       1.0  0.08571  0.45544  0.03151  1.0000
  S   S11       1.0  0.10841  0.45897  0.07079  1.0000
  S   S12       1.0  0.05273  0.45506  0.95416  1.0000
  S   S13       1.0  0.05864  0.44995  0.04636  1.0000
  C   C5        1.0  0.12172  0.47632  0.19550  1.0000
  C   C6        1.0  0.10482  0.46996  0.18295  1.0000
  C   C7        1.0  0.10054  0.46582  0.14431  1.0000
  C   C8        1.0  0.11314  0.46773  0.11773  1.0000
  C   C9        1.0  0.13008  0.47481  0.13006  1.0000
  C   C10       1.0  0.13437  0.47927  0.16856  1.0000
  C   C11       1.0  0.13966  0.45210  0.65148  1.0000
  H   H4        1.0  0.08746  0.46030  0.13545  1.0000
  H   H5        1.0  0.13994  0.47634  0.10981  1.0000
  C   C12       1.0  0.22595  0.49664  0.38320  1.0000
  H   H6        1.0  0.14120  0.43662  0.73933  1.0000
  H   H7        1.0  0.14857  0.43063  0.69593  1.0000
  C   C13       1.0  0.11662  0.43593  0.20699  1.0000
  H   H8        1.0  0.00848  0.37221  0.97248  1.0000
  H   H9        1.0  0.08120  0.49573  0.05788  1.0000
  H   H10       1.0  0.16794  0.48047  0.44279  1.0000
  C   C14       1.0  0.13427  0.47368  0.80617  1.0000
  C   C15       1.0  0.12460  0.48372  0.79988  1.0000
  C   C16       1.0  0.11145  0.48268  0.82489  1.0000
  C   C17       1.0  0.10788  0.47180  0.85685  1.0000
  C   C18       1.0  0.11771  0.46196  0.86345  1.0000
  C   C19       1.0  0.13068  0.46279  0.83808  1.0000
  H   H11       1.0  0.13120  0.43375  0.10451  1.0000
  H   H12       1.0  0.23832  0.47327  0.69782  1.0000
  H   H13       1.0  0.11240  0.43738  0.23529  1.0000
  Fe  Fe6       1.0  0.15120  0.49229  0.27735  1.0000
  C   C20       1.0  0.11310  0.45795  0.68478  1.0000
  C   C21       1.0  0.14677  0.44147  0.71122  1.0000
  H   H14       1.0  0.23573  0.47504  0.28443  1.0000
  H   H15       1.0  0.12066  0.44875  0.73578  1.0000
  Fe  Fe7       1.0  0.16340  0.49213  0.72598  1.0000
  H   H16       1.0  0.13801  0.45491  0.84330  1.0000
  C   C22       1.0  0.16824  0.49029  0.53768  1.0000
  H   H17       1.0  0.15033  0.45036  0.63840  1.0000
  H   H18       1.0  0.00041  0.41749  0.00996  1.0000
  C   C23       1.0  0.21606  0.49769  0.60303  1.0000
  C   C24       1.0  0.10988  0.42819  0.14105  1.0000
  H   H19       1.0  0.21963  0.48975  0.70402  1.0000
  C   C25       1.0  0.16785  0.48785  0.46805  1.0000
  C   C26       1.0  0.01034  0.41757  0.90743  1.0000
  H   H20       1.0  0.14743  0.48428  0.17753  1.0000
  H   H21       1.0  0.01416  0.42422  0.87987  1.0000
  N   N1        1.0  0.13345  0.44154  0.19928  1.0000
  H   H22       1.0  0.22210  0.45965  0.60413  1.0000
  H   H23       1.0  0.11515  0.45349  0.88774  1.0000
  C   C27       1.0  0.11642  0.46161  0.64639  1.0000
  C   C28       1.0  0.14605  0.44933  0.22933  1.0000
  H   H24       1.0  0.15922  0.45197  0.71685  1.0000
  H   H25       1.0  0.16924  0.46833  0.50668  1.0000
  H   H26       1.0  0.01684  0.42664  0.93097  1.0000
  C   C29       1.0  0.24214  0.47850  0.37928  1.0000
  C   C30       1.0  0.23996  0.48897  0.28734  1.0000
  C   C31       1.0  0.16856  0.48099  0.50440  1.0000
  C   C32       1.0  0.12978  0.45869  0.62957  1.0000
  H   H27       1.0  0.14013  0.44960  0.25718  1.0000
  H   H28       1.0  0.10073  0.42378  0.11794  1.0000
  H   H29       1.0  0.15441  0.44199  0.23267  1.0000
  H   H30       1.0  0.10892  0.46709  0.62990  1.0000
  H   H31       1.0  0.09130  0.42534  0.18391  1.0000
  N   N2        1.0  0.13612  0.44824  0.68893  1.0000
  C   C33       1.0  0.10459  0.42913  0.17804  1.0000
  H   H32       1.0  0.15378  0.46301  0.22223  1.0000
  C   C34       1.0  0.99550  0.40397  0.00169  1.0000
  H   H33       1.0  0.21495  0.46894  0.37594  1.0000
  C   C35       1.0  0.23308  0.49659  0.70172  1.0000
  C   C36       1.0  0.21209  0.47981  0.60169  1.0000
  C   C37       1.0  0.00677  0.39611  0.99101  1.0000
  H   H34       1.0  0.10394  0.49033  0.81930  1.0000
  H   H35       1.0  0.10304  0.46060  0.69851  1.0000
  H   H36       1.0  0.15206  0.44532  0.15686  1.0000
  C   C38       1.0  0.12312  0.45122  0.70574  1.0000
  H   H37       1.0  0.09490  0.46768  0.20343  1.0000
  H   H38       1.0  0.19904  0.47096  0.59893  1.0000
  H   H39       1.0  0.12709  0.49210  0.77546  1.0000
  S   S14       1.0  0.05032  0.49167  0.01779  1.0000
  H   H40       1.0  0.24249  0.46571  0.37570  1.0000
  C   C39       1.0  0.22499  0.47349  0.60429  1.0000
  Fe  Fe8       1.0  0.18721  0.49613  0.29694  1.0000
  C   C40       1.0  0.99981  0.48022  0.03944  1.0000
  N   N3        1.0  0.00308  0.49680  0.05882  1.0000
  C   C41       1.0  0.22804  0.49677  0.28928  1.0000
  C   C42       1.0  0.24370  0.48729  0.69831  1.0000
  C   C43       1.0  0.24167  0.48510  0.60761  1.0000
  S   S15       1.0  0.15061  0.49818  0.67505  1.0000
  H   H41       1.0  0.21392  0.49815  0.38201  1.0000
  H   H42       1.0  0.11570  0.49676  0.94238  1.0000
  H   H43       1.0  0.99753  0.46981  0.06070  1.0000
  H   H44       1.0  0.08611  0.50032  0.91467  1.0000
  S   S16       1.0  0.18836  0.52323  0.64534  1.0000
  S   S17       1.0  0.18063  0.51977  0.73746  1.0000
  Fe  Fe9       1.0  0.16895  0.52549  0.68473  1.0000
  S   S18       1.0  0.15915  0.54682  0.67928  1.0000
  H   H45       1.0  0.03016  0.58302  0.07532  1.0000
  Fe  Fe10      1.0  0.16704  0.50592  0.35758  1.0000
  Fe  Fe11      1.0  0.17873  0.52794  0.28636  1.0000
  S   S19       1.0  0.15355  0.51554  0.31314  1.0000
  S   S20       1.0  0.18738  0.55505  0.26329  1.0000
  S   S21       1.0  0.19253  0.52002  0.33236  1.0000
  H   H46       1.0  0.01177  0.54032  0.11083  1.0000
  Fe  Fe12      1.0  0.20254  0.68188  0.73284  1.0000
  S   S22       1.0  0.17587  0.67723  0.71367  1.0000
  S   S23       1.0  0.21990  0.71017  0.74072  1.0000
  Fe  Fe13      1.0  0.19559  0.64334  0.73225  1.0000
  S   S24       1.0  0.16894  0.63685  0.71427  1.0000
  S   S25       1.0  0.20535  0.62172  0.73864  1.0000
  Fe  Fe14      1.0  0.17938  0.65821  0.67203  1.0000
  S   S26       1.0  0.17108  0.64766  0.61209  1.0000
  Fe  Fe15      1.0  0.16827  0.65608  0.75790  1.0000
  S   S27       1.0  0.14422  0.64680  0.79341  1.0000
  S   S28       1.0  0.20631  0.66415  0.68877  1.0000
  S   S29       1.0  0.19465  0.66161  0.77880  1.0000
  Fe  Fe16      1.0  0.21061  0.67210  0.33494  1.0000
  S   S30       1.0  0.19280  0.68571  0.34268  1.0000
  C   C44       1.0  0.24218  0.71828  0.74368  1.0000
  Fe  Fe17      1.0  0.18391  0.63735  0.35697  1.0000
  S   S31       1.0  0.16436  0.64869  0.36704  1.0000
  S   S32       1.0  0.17626  0.60938  0.37331  1.0000
  Fe  Fe18      1.0  0.17365  0.66259  0.31217  1.0000
  S   S33       1.0  0.15564  0.66763  0.27013  1.0000
  Fe  Fe19      1.0  0.18523  0.67032  0.39639  1.0000
  S   S34       1.0  0.18435  0.68462  0.45099  1.0000
  S   S35       1.0  0.19215  0.64999  0.30042  1.0000
  S   S36       1.0  0.20409  0.65796  0.39032  1.0000
  Fe  Fe20      1.0  0.07231  0.58836  0.03376  1.0000
  S   S37       1.0  0.08067  0.58629  0.09369  1.0000
  S   S38       1.0  0.04569  0.57204  0.01079  1.0000
  Fe  Fe21      1.0  0.10922  0.60875  0.00657  1.0000
  S   S39       1.0  0.11976  0.60730  0.06486  1.0000
  S   S40       1.0  0.13135  0.62268  0.96699  1.0000
  Fe  Fe22      1.0  0.10115  0.58001  0.06615  1.0000
  S   S41       1.0  0.10765  0.55772  0.08584  1.0000
  Fe  Fe23      1.0  0.09878  0.61396  0.08773  1.0000
  S   S42       1.0  0.10405  0.63527  0.13240  1.0000
  S   S43       1.0  0.09227  0.58057  0.00646  1.0000
  S   S44       1.0  0.08882  0.61699  0.02943  1.0000
  C   C45       1.0  0.14122  0.65671  0.23303  1.0000
  C   C46       1.0  0.13030  0.66454  0.22049  1.0000
  C   C47       1.0  0.11889  0.65737  0.19058  1.0000
  C   C48       1.0  0.11820  0.64227  0.17188  1.0000
  C   C49       1.0  0.12911  0.63419  0.18412  1.0000
  C   C50       1.0  0.14056  0.64136  0.21490  1.0000
  H   H47       1.0  0.13068  0.67638  0.23394  1.0000
  H   H48       1.0  0.11061  0.66375  0.18153  1.0000
  H   H49       1.0  0.12878  0.62255  0.16980  1.0000
  H   H50       1.0  0.14899  0.63520  0.22415  1.0000
  C   C51       1.0  0.17625  0.65851  0.56802  1.0000
  C   C52       1.0  0.18163  0.67653  0.56518  1.0000
  C   C53       1.0  0.18431  0.68441  0.52917  1.0000
  C   C54       1.0  0.18200  0.67440  0.49581  1.0000
  C   C55       1.0  0.17710  0.65644  0.49873  1.0000
  C   C56       1.0  0.17404  0.64854  0.53462  1.0000
  H   H51       1.0  0.18320  0.68433  0.59064  1.0000
  H   H52       1.0  0.18802  0.69830  0.52721  1.0000
  H   H53       1.0  0.17530  0.64857  0.47332  1.0000
  H   H54       1.0  0.16981  0.63459  0.53648  1.0000
  C   C57       1.0  0.14091  0.64002  0.84171  1.0000
  C   C58       1.0  0.15427  0.64238  0.86708  1.0000
  C   C59       1.0  0.15103  0.63688  0.90507  1.0000
  C   C60       1.0  0.13444  0.62892  0.91835  1.0000
  C   C61       1.0  0.12108  0.62646  0.89296  1.0000
  C   C62       1.0  0.12432  0.63202  0.85495  1.0000
  H   H55       1.0  0.16709  0.64874  0.85766  1.0000
  H   H56       1.0  0.16148  0.63895  0.92443  1.0000
  H   H57       1.0  0.10825  0.62043  0.90263  1.0000
  H   H58       1.0  0.11388  0.63018  0.83570  1.0000
  C   C63       1.0  0.06533  0.50938  0.04143  1.0000
  C   C64       1.0  0.16730  0.50662  0.53417  1.0000
  C   C65       1.0  0.09260  0.52282  0.07261  1.0000
  C   C66       1.0  0.09082  0.53882  0.07212  1.0000
  C   C67       1.0  0.07595  0.53989  0.05805  1.0000
  C   C68       1.0  0.06326  0.52522  0.04252  1.0000
  C   C69       1.0  0.02469  0.56503  0.02847  1.0000
  H   H59       1.0  0.10403  0.52189  0.08364  1.0000
  H   H60       1.0  0.07438  0.55214  0.05792  1.0000
  H   H61       1.0  0.05226  0.52644  0.02969  1.0000
  C   C70       1.0  0.18241  0.56998  0.29100  1.0000
  C   C71       1.0  0.17242  0.56457  0.32314  1.0000
  C   C72       1.0  0.16981  0.57677  0.34702  1.0000
  C   C73       1.0  0.17718  0.59447  0.33893  1.0000
  C   C74       1.0  0.18649  0.59988  0.30575  1.0000
  C   C75       1.0  0.18908  0.58762  0.28176  1.0000
  H   H62       1.0  0.16713  0.55105  0.33042  1.0000
  H   H63       1.0  0.16254  0.57253  0.37258  1.0000
  H   H64       1.0  0.19228  0.61353  0.29942  1.0000
  H   H65       1.0  0.19675  0.59186  0.25675  1.0000
  H   H66       1.0  0.11411  0.65299  0.05553  1.0000
  H   H67       1.0  0.12940  0.66927  0.02662  1.0000
  H   H68       1.0  0.17268  0.64378  0.07044  1.0000
  H   H69       1.0  0.17523  0.65727  0.13476  1.0000
  C   C76       1.0  0.17200  0.56715  0.69767  1.0000
  C   C77       1.0  0.16660  0.58087  0.69342  1.0000
  C   C78       1.0  0.17680  0.59753  0.70574  1.0000
  C   C79       1.0  0.19243  0.60071  0.72290  1.0000
  C   C80       1.0  0.19783  0.58689  0.72747  1.0000
  C   C81       1.0  0.18765  0.57011  0.71475  1.0000
  H   H70       1.0  0.15457  0.57868  0.67994  1.0000
  H   H71       1.0  0.17252  0.60782  0.70118  1.0000
  H   H72       1.0  0.20995  0.58918  0.74061  1.0000
  H   H73       1.0  0.19198  0.55955  0.71790  1.0000
  C   C82       1.0  0.23364  0.51480  0.29268  1.0000
  C   C83       1.0  0.01175  0.55163  0.00909  1.0000
  C   C84       1.0  0.14372  0.54773  0.22653  1.0000
  H   H74       1.0  0.22652  0.71377  0.32552  1.0000
  C   C85       1.0  0.10444  0.54108  0.97832  1.0000
  H   H75       1.0  0.22583  0.53060  0.62032  1.0000
  H   H76       1.0  0.12691  0.65281  0.46057  1.0000
  H   H77       1.0  0.15057  0.54220  0.24497  1.0000
  C   C86       1.0  0.19239  0.55707  0.40283  1.0000
  H   H78       1.0  0.22887  0.58364  0.30650  1.0000
  C   C87       1.0  0.23918  0.73454  0.65535  1.0000
  H   H79       1.0  0.19060  0.62966  0.65265  1.0000
  H   H80       1.0  0.16466  0.62580  0.80723  1.0000
  H   H81       1.0  0.24239  0.68675  0.41200  1.0000
  H   H82       1.0  0.15662  0.69386  0.43167  1.0000
  H   H83       1.0  0.15379  0.58190  0.58022  1.0000
  H   H84       1.0  0.14576  0.67074  0.47397  1.0000
  C   C88       1.0  0.24093  0.51115  0.38616  1.0000
  H   H85       1.0  0.19774  0.60817  0.81892  1.0000
  C   C89       1.0  0.09141  0.51190  0.93218  1.0000
  H   H86       1.0  0.14742  0.65254  0.44966  1.0000
  H   H87       1.0  0.12388  0.64654  0.01688  1.0000
  C   C90       1.0  0.12614  0.65638  0.03987  1.0000
  N   N4        1.0  0.17204  0.60408  0.80711  1.0000
  C   C91       1.0  0.00348  0.56708  0.07191  1.0000
  C   C92       1.0  0.08087  0.52014  0.94466  1.0000
  C   C93       1.0  0.02264  0.52314  0.08690  1.0000
  H   H88       1.0  0.18242  0.55965  0.41868  1.0000
  H   H89       1.0  0.13717  0.61005  0.77634  1.0000
  H   H90       1.0  0.07954  0.54163  0.97676  1.0000
  H   H91       1.0  0.16541  0.52590  0.49564  1.0000
  H   H92       1.0  0.06755  0.51488  0.93740  1.0000
  H   H93       1.0  0.13789  0.58549  0.21337  1.0000
  C   C94       1.0  0.16542  0.65728  0.11511  1.0000
  H   H94       1.0  0.03554  0.53168  0.09325  1.0000
  C   C95       1.0  0.13145  0.51982  0.19316  1.0000
  C   C96       1.0  0.11459  0.53240  0.96567  1.0000
  S   S45       1.0  0.22701  0.52694  0.70369  1.0000
  H   H95       1.0  0.19814  0.59020  0.41969  1.0000
  C   C97       1.0  0.07979  0.50807  0.05746  1.0000
  C   C98       1.0  0.14544  0.56493  0.23251  1.0000
  N   N5        1.0  0.13969  0.65657  0.06573  1.0000
  H   H96       1.0  0.13213  0.66972  0.10958  1.0000
  H   H97       1.0  0.21786  0.69520  0.42133  1.0000
  H   H98       1.0  0.14998  0.64365  0.02670  1.0000
  H   H99       1.0  0.12150  0.51158  0.21251  1.0000
  C   C99       1.0  0.14123  0.66433  0.10060  1.0000
  N   N6        1.0  0.13362  0.53803  0.19782  1.0000
  H   H100      1.0  0.12784  0.51517  0.16350  1.0000
  H   H101      1.0  0.12766  0.53711  0.97481  1.0000
  C   C100      1.0  0.00932  0.52797  0.09678  1.0000
  C   C101      1.0  0.21222  0.57070  0.35196  1.0000
  C   C102      1.0  0.15103  0.64958  0.05456  1.0000
  H   H102      1.0  0.15495  0.67054  0.15388  1.0000
  C   C103      1.0  0.15409  0.66481  0.12581  1.0000
  H   H103      1.0  0.21061  0.55794  0.34136  1.0000
  N   N7        1.0  0.20353  0.57253  0.38299  1.0000
  C   C104      1.0  0.16396  0.64969  0.07918  1.0000
  H   H104      1.0  0.19335  0.62735  0.81755  1.0000
  C   C105      1.0  0.22264  0.58524  0.33210  1.0000
  C   C106      1.0  0.16762  0.58694  0.79792  1.0000
  C   C107      1.0  0.18812  0.61356  0.82650  1.0000
  H   H105      1.0  0.01485  0.54566  0.98447  1.0000
  C   C108      1.0  0.21566  0.60351  0.37657  1.0000
  C   C109      1.0  0.20534  0.58869  0.39574  1.0000
  N   N8        1.0  0.10811  0.51824  0.94216  1.0000
  H   H106      1.0  0.14119  0.68825  0.31460  1.0000
  C   C110      1.0  0.14110  0.58597  0.77223  1.0000
  H   H107      1.0  0.20593  0.50245  0.60106  1.0000
  H   H108      1.0  0.20997  0.60022  0.64130  1.0000
  C   C111      1.0  0.01923  0.50725  0.06845  1.0000
  C   C112      1.0  0.23640  0.52768  0.60820  1.0000
  C   C113      1.0  0.22429  0.60174  0.34446  1.0000
  C   C114      1.0  0.24011  0.71917  0.32472  1.0000
  C   C115      1.0  0.02043  0.57263  0.06022  1.0000
  Fe  Fe24      1.0  0.19862  0.51479  0.69717  1.0000
  H   H109      1.0  0.19501  0.56953  0.62252  1.0000
  C   C116      1.0  0.19791  0.59640  0.62668  1.0000
  C   C117      1.0  0.13667  0.57216  0.20907  1.0000
  N   N9        1.0  0.13961  0.66868  0.41446  1.0000
  C   C118      1.0  0.18955  0.57903  0.61600  1.0000
  H   H110      1.0  0.12412  0.65723  0.32529  1.0000
  C   C119      1.0  0.14561  0.60337  0.78229  1.0000
  C   C120      1.0  0.15213  0.57765  0.78017  1.0000
  H   H111      1.0  0.21085  0.62839  0.64931  1.0000
  C   C121      1.0  0.19899  0.62620  0.63326  1.0000
  C   C122      1.0  0.16120  0.61225  0.79986  1.0000
  H   H112      1.0  0.16918  0.61255  0.59924  1.0000
  N   N10       1.0  0.19057  0.60818  0.62061  1.0000
  H   H113      1.0  0.20176  0.63507  0.60858  1.0000
  C   C123      1.0  0.13050  0.65849  0.38516  1.0000
  C   C124      1.0  0.13988  0.66081  0.45148  1.0000
  C   C125      1.0  0.13081  0.66543  0.34894  1.0000
  C   C126      1.0  0.16631  0.58591  0.59270  1.0000
  H   H114      1.0  0.22462  0.52099  0.29372  1.0000
  H   H115      1.0  0.10954  0.55227  0.99712  1.0000
  H   H116      1.0  0.18634  0.61301  0.85770  1.0000
  C   C127      1.0  0.14049  0.68288  0.34286  1.0000
  C   C128      1.0  0.23993  0.51470  0.70211  1.0000
  H   H117      1.0  0.12336  0.64479  0.38938  1.0000
  H   H118      1.0  0.16667  0.56016  0.59248  1.0000
  C   C129      1.0  0.14913  0.68583  0.40870  1.0000
  H   H119      1.0  0.15763  0.70664  0.36813  1.0000
  C   C130      1.0  0.23049  0.70502  0.42097  1.0000
  C   C131      1.0  0.17360  0.57376  0.59920  1.0000
  C   C132      1.0  0.17504  0.60320  0.60359  1.0000
  C   C133      1.0  0.14974  0.69317  0.37284  1.0000
  H   H120      1.0  0.14893  0.56422  0.77173  1.0000
  H   H121      1.0  0.17627  0.58048  0.80334  1.0000
  H   H122      1.0  0.21631  0.61623  0.38560  1.0000
  H   H123      1.0  0.14333  0.51792  0.19995  1.0000
  C   C134      1.0  0.08755  0.53502  0.96720  1.0000
  H   H124      1.0  0.12915  0.57901  0.75804  1.0000
  H   H125      1.0  0.11934  0.56761  0.16180  1.0000
  C   C135      1.0  0.12482  0.54497  0.17495  1.0000
  H   H126      1.0  0.11661  0.53730  0.15240  1.0000
  C   C136      1.0  0.12627  0.56214  0.18014  1.0000
  C   C137      1.0  0.99485  0.54588  0.02116  1.0000
  C   C138      1.0  0.16643  0.51340  0.49790  1.0000
  S   S46       1.0  0.16506  0.51330  0.41976  1.0000
  H   H127      1.0  0.02958  0.50336  0.06171  1.0000
  H   H128      1.0  0.18566  0.54648  0.38234  1.0000
  H   H129      1.0  0.15349  0.57259  0.25521  1.0000
  H   H130      1.0  0.19972  0.55234  0.42288  1.0000
  H   H131      1.0  0.23188  0.61310  0.32861  1.0000
  S   S47       1.0  0.23856  0.68532  0.32312  1.0000
  H   H132      1.0  0.22682  0.73495  0.65968  1.0000
  C   C139      1.0  0.24083  0.71861  0.65125  1.0000
  C   C140      1.0  0.11890  0.50945  0.92815  1.0000
  H   H133      1.0  0.22226  0.72622  0.42812  1.0000
  C   C141      1.0  0.23300  0.72249  0.42468  1.0000
  H   H134      1.0  0.16695  0.51392  0.55939  1.0000
  H   H135      1.0  0.00038  0.57325  0.09622  1.0000
  S   S48       1.0  0.17579  0.50535  0.24800  1.0000
  N   N11       1.0  0.23242  0.50896  0.60721  1.0000
  H   H136      1.0  0.22977  0.70667  0.65252  1.0000
  C   C142      1.0  0.16663  0.50407  0.46458  1.0000
  H   H137      1.0  0.13247  0.51723  0.93315  1.0000
  H   H138      1.0  0.24065  0.52404  0.38734  1.0000
  H   H139      1.0  0.11695  0.50697  0.89708  1.0000
  H   H140      1.0  0.24186  0.74568  0.32647  1.0000
  H   H141      1.0  0.23906  0.53305  0.57918  1.0000
  C   C143      1.0  0.24429  0.70027  0.41620  1.0000
  H   H142      1.0  0.24408  0.74461  0.75163  1.0000
  H   H143      1.0  0.42366  0.00612  0.13530  1.0000
  H   H144      1.0  0.43523  0.06788  0.11060  1.0000
  H   H145      1.0  0.44223  0.02885  0.17964  1.0000
  S   S49       1.0  0.47061  0.04774  0.08859  1.0000
  Fe  Fe25      1.0  0.45829  0.04380  0.03083  1.0000
  S   S50       1.0  0.45879  0.07131  0.02848  1.0000
  S   S51       1.0  0.43493  0.01972  0.01481  1.0000
  Fe  Fe26      1.0  0.48382  0.07855  0.99903  1.0000
  S   S52       1.0  0.48233  0.05088  0.99737  1.0000
  Fe  Fe27      1.0  0.47323  0.07558  0.08404  1.0000
  S   S53       1.0  0.46941  0.09259  0.13127  1.0000
  H   H146      1.0  0.40162  0.03722  0.05332  1.0000
  H   H147      1.0  0.47447  0.14465  0.75948  1.0000
  H   H148      1.0  0.46407  0.13348  0.80082  1.0000
  H   H149      1.0  0.47414  0.08535  0.89621  1.0000
  N   N12       1.0  0.42192  0.04168  0.09247  1.0000
  H   H150      1.0  0.48301  0.14138  0.85174  1.0000
  C   C144      1.0  0.41881  0.02459  0.09912  1.0000
  H   H151      1.0  0.47153  0.11912  0.18622  1.0000
  H   H152      1.0  0.48352  0.17996  0.77242  1.0000
  C   C145      1.0  0.43229  0.05427  0.11636  1.0000
  C   C146      1.0  0.42595  0.01969  0.13066  1.0000
  H   H153      1.0  0.45816  0.15035  0.78131  1.0000
  C   C147      1.0  0.48811  0.17629  0.79848  1.0000
  C   C148      1.0  0.46893  0.14636  0.78688  1.0000
  H   H154      1.0  0.47386  0.12050  0.54720  1.0000
  H   H155      1.0  0.47354  0.09441  0.82918  1.0000
  C   C149      1.0  0.48786  0.15476  0.84261  1.0000
  C   C150      1.0  0.48202  0.11522  0.19170  1.0000
  C   C151      1.0  0.48405  0.09689  0.88592  1.0000
  C   C152      1.0  0.43954  0.04983  0.14835  1.0000
  H   H156      1.0  0.42234  0.04612  0.03329  1.0000
  H   H157      1.0  0.41108  0.01464  0.07943  1.0000
  C   C153      1.0  0.43637  0.03243  0.15542  1.0000
  C   C154      1.0  0.48375  0.10208  0.84782  1.0000
  H   H158      1.0  0.41453  0.05967  0.06110  1.0000
  C   C155      1.0  0.41475  0.04646  0.05846  1.0000
  H   H159      1.0  0.49134  0.13279  0.23967  1.0000
  C   C156      1.0  0.48417  0.10238  0.16865  1.0000
  H   H160      1.0  0.44794  0.05991  0.16690  1.0000
  H   H161      1.0  0.44581  0.00367  0.07889  1.0000
  C   C157      1.0  0.48482  0.11822  0.53758  1.0000
  C   C158      1.0  0.48848  0.11876  0.49884  1.0000
  H   H162      1.0  0.48021  0.12153  0.47868  1.0000
  H   H163      1.0  0.49232  0.23156  0.34565  1.0000
  H   H164      1.0  0.49368  0.11602  0.59414  1.0000
  N   N13       1.0  0.48183  0.15944  0.81016  1.0000
  C   C159      1.0  0.49326  0.12303  0.22208  1.0000
  H   H165      1.0  0.49258  0.16307  0.51956  1.0000
  H   H166      1.0  0.49414  0.11963  0.08538  1.0000
  Fe  Fe28      1.0  0.49441  0.05636  0.05515  1.0000
  N   N14       1.0  0.36140  0.43490  0.83576  1.0000
  C   C160      1.0  0.45360  0.35860  0.12891  1.0000
  S   S54       1.0  0.30474  0.47701  0.40224  1.0000
  H   H167      1.0  0.32640  0.45700  0.03981  1.0000
  Fe  Fe29      1.0  0.30221  0.49543  0.68055  1.0000
  S   S55       1.0  0.47091  0.35792  0.01964  1.0000
  H   H168      1.0  0.35154  0.42643  0.78053  1.0000
  H   H169      1.0  0.46587  0.34153  0.14684  1.0000
  S   S56       1.0  0.48160  0.39772  0.04988  1.0000
  H   H170      1.0  0.29839  0.42946  0.09370  1.0000
  H   H171      1.0  0.37455  0.48598  0.81095  1.0000
  Fe  Fe30      1.0  0.46373  0.38092  0.00622  1.0000
  S   S57       1.0  0.43676  0.37996  0.01007  1.0000
  S   S58       1.0  0.30314  0.49267  0.29625  1.0000
  S   S59       1.0  0.48178  0.39005  0.95742  1.0000
  H   H172      1.0  0.34903  0.41855  0.92305  1.0000
  S   S60       1.0  0.31467  0.47653  0.66646  1.0000
  H   H173      1.0  0.37983  0.42534  0.92973  1.0000
  N   N15       1.0  0.25677  0.49283  0.38175  1.0000
  H   H174      1.0  0.42503  0.35059  0.05825  1.0000
  H   H175      1.0  0.33752  0.42470  0.86289  1.0000
  H   H176      1.0  0.30453  0.47807  0.54212  1.0000
  H   H177      1.0  0.45088  0.31879  0.09904  1.0000
  C   C161      1.0  0.35092  0.42748  0.86524  1.0000
  C   C162      1.0  0.43919  0.37719  0.10647  1.0000
  H   H178      1.0  0.43860  0.47830  0.95044  1.0000
  H   H179      1.0  0.34251  0.44014  0.80403  1.0000
  C   C163      1.0  0.37462  0.42794  0.90330  1.0000
  C   C164      1.0  0.26118  0.49599  0.69453  1.0000
  C   C165      1.0  0.31169  0.46431  0.12357  1.0000
  Fe  Fe31      1.0  0.31617  0.49516  0.35348  1.0000
  H   H180      1.0  0.26637  0.49290  0.28890  1.0000
  Fe  Fe32      1.0  0.39223  0.45089  0.99105  1.0000
  S   S61       1.0  0.39624  0.46794  0.04282  1.0000
  S   S62       1.0  0.41266  0.44189  0.96892  1.0000
  Fe  Fe33      1.0  0.36203  0.45971  0.96335  1.0000
  S   S63       1.0  0.36391  0.47742  0.01289  1.0000
  S   S64       1.0  0.34095  0.45513  0.91991  1.0000
  Fe  Fe34      1.0  0.39170  0.48693  0.00377  1.0000
  C   C166      1.0  0.44825  0.33053  0.10084  1.0000
  Fe  Fe35      1.0  0.36805  0.45717  0.04856  1.0000
  S   S65       1.0  0.35484  0.44944  0.10534  1.0000
  S   S66       1.0  0.38957  0.47092  0.95139  1.0000
  S   S67       1.0  0.36409  0.43826  0.99952  1.0000
  H   H181      1.0  0.28016  0.49526  0.40704  1.0000
  C   C167      1.0  0.31428  0.48322  0.44762  1.0000
  C   C168      1.0  0.35432  0.43783  0.79959  1.0000
  H   H182      1.0  0.43035  0.32350  0.05431  1.0000
  C   C169      1.0  0.34565  0.48853  0.18627  1.0000
  N   N16       1.0  0.31581  0.45553  0.09493  1.0000
  C   C170      1.0  0.35756  0.48239  0.12753  1.0000
  C   C171      1.0  0.35249  0.46493  0.13726  1.0000
  C   C172      1.0  0.34437  0.45943  0.17214  1.0000
  C   C173      1.0  0.34096  0.47116  0.19658  1.0000
  H   H183      1.0  0.46073  0.36869  0.14894  1.0000
  H   H184      1.0  0.36384  0.48683  0.10088  1.0000
  H   H185      1.0  0.33923  0.49661  0.42622  1.0000
  C   C174      1.0  0.35415  0.49409  0.15188  1.0000
  H   H186      1.0  0.41976  0.49985  0.06206  1.0000
  N   N17       1.0  0.44206  0.36094  0.10482  1.0000
  S   S68       1.0  0.33997  0.49582  0.56525  1.0000
  C   C175      1.0  0.37835  0.43877  0.83921  1.0000
  C   C176      1.0  0.35737  0.42397  0.89945  1.0000
  H   H187      1.0  0.33444  0.46669  0.22296  1.0000
  C   C177      1.0  0.32261  0.49073  0.08761  1.0000
  C   C178      1.0  0.31208  0.48224  0.51695  1.0000
  S   S69       1.0  0.27369  0.48373  0.68571  1.0000
  H   H188      1.0  0.34051  0.44597  0.18009  1.0000
  H   H189      1.0  0.27191  0.47759  0.37377  1.0000
  C   C179      1.0  0.45668  0.34328  0.12765  1.0000
  C   C180      1.0  0.34794  0.47793  0.79944  1.0000
  C   C181      1.0  0.33185  0.46993  0.81459  1.0000
  C   C182      1.0  0.32992  0.46341  0.85189  1.0000
  C   C183      1.0  0.34402  0.46511  0.87466  1.0000
  C   C184      1.0  0.36012  0.47362  0.85993  1.0000
  H   H190      1.0  0.44924  0.38741  0.09078  1.0000
  H   H191      1.0  0.32088  0.46818  0.79712  1.0000
  H   H192      1.0  0.31740  0.45681  0.86295  1.0000
  H   H193      1.0  0.42712  0.48679  0.98209  1.0000
  H   H194      1.0  0.36313  0.44956  0.78517  1.0000
  C   C185      1.0  0.43072  0.39786  0.00080  1.0000
  C   C186      1.0  0.44102  0.41233  0.98053  1.0000
  C   C187      1.0  0.43536  0.42574  0.97162  1.0000
  C   C188      1.0  0.41952  0.42513  0.98357  1.0000
  C   C189      1.0  0.40940  0.41089  0.00477  1.0000
  C   C190      1.0  0.41491  0.39728  0.01296  1.0000
  H   H195      1.0  0.45315  0.41296  0.97077  1.0000
  H   H196      1.0  0.44327  0.43659  0.95502  1.0000
  H   H197      1.0  0.39716  0.41013  0.01400  1.0000
  H   H198      1.0  0.40679  0.38614  0.02850  1.0000
  C   C191      1.0  0.43672  0.33315  0.07587  1.0000
  Fe  Fe36      1.0  0.33398  0.49147  0.71079  1.0000
  H   H199      1.0  0.39868  0.43864  0.87616  1.0000
  H   H200      1.0  0.33261  0.48829  0.03284  1.0000
  C   C192      1.0  0.43378  0.34853  0.07823  1.0000
  H   H201      1.0  0.29118  0.47058  0.47795  1.0000
  H   H202      1.0  0.31243  0.48910  0.14390  1.0000
  C   C193      1.0  0.38522  0.43544  0.87309  1.0000
  C   C194      1.0  0.25733  0.49906  0.28997  1.0000
  C   C195      1.0  0.48846  0.34923  0.86280  1.0000
  H   H203      1.0  0.31561  0.43412  0.12776  1.0000
  H   H204      1.0  0.38664  0.44452  0.81575  1.0000
  C   C196      1.0  0.30455  0.47802  0.48056  1.0000
  H   H205      1.0  0.47986  0.35493  0.87313  1.0000
  C   C197      1.0  0.32657  0.48164  0.05833  1.0000
  C   C198      1.0  0.36205  0.47988  0.82245  1.0000
  H   H206      1.0  0.37108  0.47499  0.87705  1.0000
  C   C199      1.0  0.31200  0.43693  0.09888  1.0000
  S   S70       1.0  0.35109  0.48370  0.75086  1.0000
  H   H207      1.0  0.47897  0.34636  0.80507  1.0000
  H   H208      1.0  0.30624  0.45775  0.14959  1.0000
  H   H209      1.0  0.43910  0.38151  0.13630  1.0000
  Fe  Fe37      1.0  0.32896  0.49659  0.62355  1.0000
  C   C200      1.0  0.32950  0.49116  0.52056  1.0000
  C   C201      1.0  0.33918  0.49629  0.48758  1.0000
  C   C202      1.0  0.27311  0.49112  0.37978  1.0000
  H   H210      1.0  0.42694  0.37577  0.09307  1.0000
  C   C203      1.0  0.32302  0.46391  0.06244  1.0000
  H   H211      1.0  0.31943  0.43240  0.07874  1.0000
  Fe  Fe38      1.0  0.49024  0.37577  0.06024  1.0000
  H   H212      1.0  0.44847  0.49039  0.99289  1.0000
  C   C204      1.0  0.43960  0.48946  0.96902  1.0000
  C   C205      1.0  0.31508  0.48204  0.12043  1.0000
  C   C206      1.0  0.33158  0.49269  0.45134  1.0000
  H   H213      1.0  0.49265  0.46872  0.05613  1.0000
  C   C207      1.0  0.48801  0.34438  0.82417  1.0000
  H   H214      1.0  0.25181  0.48036  0.61076  1.0000
  H   H215      1.0  0.48976  0.49731  0.06264  1.0000
  H   H216      1.0  0.28067  0.49932  0.35663  1.0000
  Fe  Fe39      1.0  0.49053  0.36858  0.97377  1.0000
  Fe  Fe40      1.0  0.45927  0.64545  0.70066  1.0000
  C   C208      1.0  0.25099  0.52488  0.29523  1.0000
  S   S71       1.0  0.45044  0.66660  0.71990  1.0000
  Fe  Fe41      1.0  0.44819  0.60754  0.67809  1.0000
  S   S72       1.0  0.47471  0.61002  0.66542  1.0000
  S   S73       1.0  0.42878  0.58075  0.66681  1.0000
  Fe  Fe42      1.0  0.48142  0.62516  0.72037  1.0000
  C   C209      1.0  0.27100  0.73356  0.64909  1.0000
  Fe  Fe43      1.0  0.47682  0.63474  0.63645  1.0000
  H   H217      1.0  0.35354  0.55125  0.59523  1.0000
  S   S74       1.0  0.45476  0.62123  0.73467  1.0000
  S   S75       1.0  0.44990  0.63121  0.64557  1.0000
  Fe  Fe44      1.0  0.33548  0.52642  0.67980  1.0000
  S   S76       1.0  0.34994  0.55544  0.68603  1.0000
  H   H218      1.0  0.25125  0.74861  0.42584  1.0000
  Fe  Fe45      1.0  0.46332  0.62404  0.36098  1.0000
  S   S77       1.0  0.44908  0.63979  0.33835  1.0000
  C   C210      1.0  0.46012  0.59330  0.17414  1.0000
  Fe  Fe46      1.0  0.47764  0.62081  0.28150  1.0000
  S   S78       1.0  0.46459  0.63653  0.25347  1.0000
  Fe  Fe47      1.0  0.47257  0.65390  0.30530  1.0000
  H   H219      1.0  0.44156  0.70870  0.59719  1.0000
  Fe  Fe48      1.0  0.44231  0.62114  0.28901  1.0000
  S   S79       1.0  0.41646  0.60816  0.26276  1.0000
  S   S80       1.0  0.45473  0.60435  0.31366  1.0000
  S   S81       1.0  0.33057  0.53192  0.28035  1.0000
  S   S82       1.0  0.31701  0.52175  0.36594  1.0000
  Fe  Fe49      1.0  0.34196  0.53097  0.33721  1.0000
  S   S83       1.0  0.36485  0.55091  0.36564  1.0000
  S   S84       1.0  0.48086  0.52842  0.05851  1.0000
  C   C211      1.0  0.26898  0.71482  0.73815  1.0000
  C   C212      1.0  0.46036  0.52581  0.04510  1.0000
  C   C213      1.0  0.45757  0.53662  0.01790  1.0000
  C   C214      1.0  0.44114  0.53414  0.00655  1.0000
  C   C215      1.0  0.42751  0.52038  0.02119  1.0000
  S   S85       1.0  0.49293  0.74543  0.68187  1.0000
  C   C216      1.0  0.48736  0.64548  0.50229  1.0000
  H   H220      1.0  0.46801  0.54649  0.00445  1.0000
  H   H221      1.0  0.43906  0.54233  0.98495  1.0000
  N   N18       1.0  0.26284  0.73026  0.41846  1.0000
  S   S86       1.0  0.45896  0.61227  0.42009  1.0000
  H   H222      1.0  0.28487  0.74670  0.44779  1.0000
  C   C217      1.0  0.47464  0.69705  0.29471  1.0000
  C   C218      1.0  0.45743  0.69058  0.28597  1.0000
  C   C219      1.0  0.44918  0.70208  0.27945  1.0000
  C   C220      1.0  0.45800  0.72008  0.28229  1.0000
  C   C221      1.0  0.47518  0.72652  0.29124  1.0000
  C   C222      1.0  0.24937  0.73503  0.42342  1.0000
  H   H223      1.0  0.45048  0.67672  0.28420  1.0000
  H   H224      1.0  0.43588  0.69698  0.27243  1.0000
  H   H225      1.0  0.44037  0.70055  0.64513  1.0000
  H   H226      1.0  0.46408  0.62009  0.16516  1.0000
  C   C223      1.0  0.24518  0.50290  0.60888  1.0000
  C   C224      1.0  0.40149  0.59384  0.29317  1.0000
  C   C225      1.0  0.40603  0.59085  0.32992  1.0000
  C   C226      1.0  0.39447  0.57802  0.35235  1.0000
  C   C227      1.0  0.37839  0.56800  0.33807  1.0000
  C   C228      1.0  0.37368  0.57134  0.30176  1.0000
  C   C229      1.0  0.38517  0.58433  0.27947  1.0000
  H   H227      1.0  0.41853  0.59824  0.34088  1.0000
  H   H228      1.0  0.39818  0.57559  0.38049  1.0000
  H   H229      1.0  0.36122  0.56388  0.29077  1.0000
  H   H230      1.0  0.38155  0.58673  0.25122  1.0000
  H   H231      1.0  0.47644  0.62088  0.10116  1.0000
  N   N19       1.0  0.46863  0.57913  0.12337  1.0000
  C   C230      1.0  0.47193  0.60894  0.11718  1.0000
  C   C231      1.0  0.48008  0.63705  0.53598  1.0000
  C   C232      1.0  0.46589  0.62164  0.53352  1.0000
  C   C233      1.0  0.45925  0.61459  0.49776  1.0000
  C   C234      1.0  0.46657  0.62294  0.46406  1.0000
  C   C235      1.0  0.44897  0.70855  0.62306  1.0000
  H   H232      1.0  0.45544  0.59311  0.20275  1.0000
  H   H233      1.0  0.46019  0.61499  0.55919  1.0000
  C   C236      1.0  0.45806  0.68423  0.61380  1.0000
  C   C237      1.0  0.46285  0.68868  0.71196  1.0000
  C   C238      1.0  0.47932  0.69389  0.69865  1.0000
  C   C239      1.0  0.43826  0.52581  0.90863  1.0000
  C   C240      1.0  0.48152  0.72394  0.69632  1.0000
  C   C241      1.0  0.46520  0.71883  0.71055  1.0000
  C   C242      1.0  0.45595  0.70126  0.71861  1.0000
  H   H234      1.0  0.44796  0.74388  0.14595  1.0000
  C   C243      1.0  0.40092  0.53752  0.73307  1.0000
  H   H235      1.0  0.45961  0.72836  0.71480  1.0000
  H   H236      1.0  0.44327  0.69737  0.72926  1.0000
  H   H237      1.0  0.33815  0.52872  0.50681  1.0000
  C   C244      1.0  0.46505  0.60851  0.15308  1.0000
  C   C245      1.0  0.48836  0.74214  0.39758  1.0000
  C   C246      1.0  0.43027  0.50994  0.04930  1.0000
  C   C247      1.0  0.37174  0.56361  0.67650  1.0000
  C   C248      1.0  0.37901  0.55334  0.65808  1.0000
  C   C249      1.0  0.39646  0.55922  0.65371  1.0000
  C   C250      1.0  0.40692  0.57554  0.66753  1.0000
  C   C251      1.0  0.39974  0.58632  0.68441  1.0000
  C   C252      1.0  0.38213  0.58035  0.68880  1.0000
  H   H238      1.0  0.37129  0.54077  0.64738  1.0000
  H   H239      1.0  0.40193  0.55085  0.64049  1.0000
  H   H240      1.0  0.40776  0.59898  0.69507  1.0000
  H   H241      1.0  0.37660  0.58852  0.70264  1.0000
  N   N20       1.0  0.46196  0.70175  0.61389  1.0000
  C   C253      1.0  0.49012  0.70656  0.59415  1.0000
  C   C254      1.0  0.48058  0.66396  0.78858  1.0000
  C   C255      1.0  0.26651  0.74451  0.32436  1.0000
  H   H242      1.0  0.47371  0.58096  0.39892  1.0000
  C   C256      1.0  0.25683  0.71808  0.64791  1.0000
  C   C257      1.0  0.25362  0.74979  0.65609  1.0000
  H   H243      1.0  0.44566  0.67538  0.62216  1.0000
  H   H244      1.0  0.45389  0.65587  0.79795  1.0000
  C   C258      1.0  0.25746  0.52340  0.69948  1.0000
  C   C259      1.0  0.47980  0.71133  0.38749  1.0000
  C   C260      1.0  0.41007  0.55871  0.27754  1.0000
  S   S87       1.0  0.49038  0.57830  0.91462  1.0000
  H   H245      1.0  0.45384  0.69779  0.37224  1.0000
  H   H246      1.0  0.47358  0.59031  0.46449  1.0000
  H   H247      1.0  0.48089  0.72681  0.60453  1.0000
  H   H248      1.0  0.42886  0.52993  0.89583  1.0000
  H   H249      1.0  0.47118  0.51163  0.95816  1.0000
  C   C261      1.0  0.49236  0.72740  0.39613  1.0000
  C   C262      1.0  0.25124  0.70754  0.73925  1.0000
  H   H250      1.0  0.35105  0.53856  0.44419  1.0000
  H   H251      1.0  0.35780  0.50746  0.14350  1.0000
  H   H252      1.0  0.44231  0.73537  0.35867  1.0000
  H   H253      1.0  0.44876  0.50439  0.08275  1.0000
  H   H254      1.0  0.48451  0.58907  0.33378  1.0000
  C   C263      1.0  0.46723  0.53084  0.92327  1.0000
  H   H255      1.0  0.35927  0.52035  0.75273  1.0000
  C   C264      1.0  0.44240  0.72349  0.37269  1.0000
  H   H256      1.0  0.36346  0.56480  0.76799  1.0000
  H   H257      1.0  0.41111  0.54765  0.33223  1.0000
  H   H258      1.0  0.48010  0.63039  0.86406  1.0000
  N   N21       1.0  0.38416  0.54536  0.24243  1.0000
  H   H259      1.0  0.24460  0.69370  0.73601  1.0000
  C   C265      1.0  0.40004  0.55784  0.24545  1.0000
  H   H260      1.0  0.35723  0.53146  0.58762  1.0000
  H   H261      1.0  0.27110  0.70931  0.41067  1.0000
  N   N22       1.0  0.44506  0.50553  0.94707  1.0000
  C   C266      1.0  0.37350  0.54475  0.20930  1.0000
  H   H262      1.0  0.47966  0.59470  0.07541  1.0000
  H   H263      1.0  0.40475  0.56775  0.22399  1.0000
  C   C267      1.0  0.37812  0.53321  0.27014  1.0000
  H   H264      1.0  0.37826  0.55701  0.19302  1.0000
  H   H265      1.0  0.37277  0.53377  0.19041  1.0000
  H   H266      1.0  0.45468  0.72195  0.63482  1.0000
  H   H267      1.0  0.48284  0.69982  0.38533  1.0000
  S   S88       1.0  0.34018  0.50364  0.21326  1.0000
  C   C268      1.0  0.27778  0.73283  0.74139  1.0000
  C   C269      1.0  0.47770  0.71289  0.60383  1.0000
  H   H268      1.0  0.44253  0.74202  0.19574  1.0000
  C   C270      1.0  0.38458  0.52518  0.73577  1.0000
  C   C271      1.0  0.46341  0.71028  0.37987  1.0000
  C   C272      1.0  0.47990  0.58950  0.84921  1.0000
  Fe  Fe50      1.0  0.30533  0.51988  0.30806  1.0000
  H   H269      1.0  0.36220  0.55123  0.80907  1.0000
  C   C273      1.0  0.24885  0.73727  0.32523  1.0000
  N   N23       1.0  0.45968  0.72486  0.38051  1.0000
  H   H270      1.0  0.28859  0.73915  0.40184  1.0000
  C   C274      1.0  0.38775  0.53375  0.30270  1.0000
  C   C275      1.0  0.46205  0.57864  0.15881  1.0000
  H   H271      1.0  0.45863  0.56705  0.17582  1.0000
  H   H272      1.0  0.48881  0.72495  0.21316  1.0000
  S   S89       1.0  0.48743  0.63923  0.33121  1.0000
  H   H273      1.0  0.42226  0.56921  0.28076  1.0000
  C   C276      1.0  0.27542  0.73352  0.32256  1.0000
  S   S90       1.0  0.48633  0.65042  0.69006  1.0000
  C   C277      1.0  0.35054  0.53898  0.50562  1.0000
  H   H274      1.0  0.24744  0.53437  0.62709  1.0000
  S   S91       1.0  0.48548  0.68326  0.30470  1.0000
  C   C278      1.0  0.26049  0.71312  0.41521  1.0000
  C   C279      1.0  0.35777  0.54445  0.47015  1.0000
  C   C280      1.0  0.35152  0.54023  0.57531  1.0000
  C   C281      1.0  0.48013  0.64009  0.84353  1.0000
  C   C282      1.0  0.47372  0.59407  0.10276  1.0000
  H   H275      1.0  0.26286  0.53742  0.70007  1.0000
  H   H276      1.0  0.27591  0.70646  0.73418  1.0000
  C   C283      1.0  0.26871  0.74350  0.74677  1.0000
  H   H277      1.0  0.25521  0.53880  0.29837  1.0000
  C   C284      1.0  0.43332  0.51038  0.92917  1.0000
  N   N24       1.0  0.35902  0.54635  0.53832  1.0000
  H   H278      1.0  0.33774  0.53283  0.57279  1.0000
  H   H279      1.0  0.39424  0.57210  0.76922  1.0000
  C   C285      1.0  0.47080  0.56381  0.10752  1.0000
  N   N25       1.0  0.49344  0.60210  0.42547  1.0000
  H   H280      1.0  0.27363  0.70699  0.31979  1.0000
  S   S92       1.0  0.40747  0.51536  0.00114  1.0000
  H   H281      1.0  0.46029  0.72395  0.19756  1.0000
  S   S93       1.0  0.34946  0.50946  0.66631  1.0000
  C   C286      1.0  0.46522  0.64218  0.83376  1.0000
  H   H282      1.0  0.28903  0.73894  0.32157  1.0000
  H   H283      1.0  0.43584  0.71262  0.35266  1.0000
  H   H284      1.0  0.41077  0.53413  0.72043  1.0000
  C   C287      1.0  0.37378  0.55747  0.46833  1.0000
  C   C288      1.0  0.24899  0.70815  0.32275  1.0000
  C   C289      1.0  0.46186  0.51538  0.94382  1.0000
  C   C290      1.0  0.37486  0.55890  0.53685  1.0000
  H   H285      1.0  0.37947  0.56183  0.44093  1.0000
  C   C291      1.0  0.39149  0.55881  0.76050  1.0000
  C   C292      1.0  0.36200  0.55162  0.77760  1.0000
  H   H286      1.0  0.41707  0.56419  0.74308  1.0000
  H   H287      1.0  0.45348  0.63427  0.84700  1.0000
  C   C293      1.0  0.25101  0.73624  0.74798  1.0000
  C   C294      1.0  0.26666  0.71542  0.32149  1.0000
  H   H288      1.0  0.48050  0.53895  0.92143  1.0000
  H   H289      1.0  0.26796  0.52038  0.38579  1.0000
  C   C295      1.0  0.48626  0.68872  0.59410  1.0000
  H   H290      1.0  0.25828  0.70573  0.64637  1.0000
  H   H291      1.0  0.28151  0.52092  0.69273  1.0000
  C   C296      1.0  0.27992  0.74356  0.41830  1.0000
  H   H292      1.0  0.46522  0.56097  0.07851  1.0000
  C   C297      1.0  0.38244  0.56473  0.50184  1.0000
  C   C298      1.0  0.47183  0.74061  0.38988  1.0000
  H   H293      1.0  0.38170  0.56443  0.56289  1.0000
  N   N26       1.0  0.37542  0.54672  0.76221  1.0000
  C   C299      1.0  0.40448  0.55440  0.74594  1.0000
  C   C300      1.0  0.46543  0.65427  0.80629  1.0000
  C   C301      1.0  0.26290  0.51705  0.29448  1.0000
  S   S94       1.0  0.31549  0.51449  0.63518  1.0000
  S   S95       1.0  0.28441  0.53017  0.30183  1.0000
  H   H294      1.0  0.46707  0.66361  0.60380  1.0000
  H   H295      1.0  0.39498  0.57476  0.50070  1.0000
  H   H296      1.0  0.45941  0.54833  0.89077  1.0000
  S   S96       1.0  0.48936  0.64583  0.58045  1.0000
  C   C302      1.0  0.44669  0.51264  0.06128  1.0000
  H   H297      1.0  0.42000  0.50270  0.93203  1.0000
  N   N27       1.0  0.26927  0.74913  0.65330  1.0000
  C   C303      1.0  0.48351  0.71506  0.29683  1.0000
  H   H298      1.0  0.38160  0.51200  0.72579  1.0000
  H   H299      1.0  0.48052  0.67301  0.76661  1.0000
  C   C304      1.0  0.48520  0.59220  0.39494  1.0000
  C   C305      1.0  0.37194  0.53001  0.75082  1.0000
  C   C306      1.0  0.48060  0.63851  0.46646  1.0000
  H   H300      1.0  0.43525  0.72147  0.39952  1.0000
  C   C307      1.0  0.48867  0.71146  0.69132  1.0000
  H   H301      1.0  0.44848  0.60247  0.49623  1.0000
  H   H302      1.0  0.36051  0.54274  0.21844  1.0000
  C   C308      1.0  0.49373  0.59147  0.87329  1.0000
  S   S97       1.0  0.32085  0.50928  0.72697  1.0000
  C   C309      1.0  0.40378  0.54667  0.30647  1.0000
  H   H303      1.0  0.28345  0.73302  0.64833  1.0000
  H   H304      1.0  0.48214  0.74031  0.29351  1.0000
  H   H305      1.0  0.34941  0.54278  0.76700  1.0000
  S   S98       1.0  0.44725  0.73413  0.27388  1.0000
  H   H306      1.0  0.46756  0.58025  0.85640  1.0000
  H   H307      1.0  0.47113  0.59757  0.79750  1.0000
  C   C310      1.0  0.48188  0.59932  0.81572  1.0000
  C   C311      1.0  0.26806  0.51410  0.69544  1.0000
  H   H308      1.0  0.48440  0.56610  0.10590  1.0000
  C   C312      1.0  0.47013  0.67748  0.60380  1.0000
  C   C313      1.0  0.45533  0.53612  0.90587  1.0000
  H   H309      1.0  0.48645  0.64497  0.44076  1.0000
  H   H310      1.0  0.35269  0.50299  0.49008  1.0000
  H   H311      1.0  0.32563  0.50456  0.08521  1.0000
  H   H312      1.0  0.48481  0.68440  0.69344  1.0000
  H   H313      1.0  0.25815  0.51179  0.61263  1.0000
  H   H314      1.0  0.46457  0.55203  0.12477  1.0000
  S   S99       1.0  0.29993  0.74155  0.73581  1.0000
  H   H315      1.0  0.49302  0.58726  0.47452  1.0000
  H   H316      1.0  0.36560  0.52326  0.26751  1.0000
  H   H317      1.0  0.38256  0.52457  0.32540  1.0000
  C   C314      1.0  0.49120  0.59671  0.35811  1.0000
  C   C315      1.0  0.47101  0.73611  0.19492  1.0000
  H   H318      1.0  0.49110  0.60779  0.48395  1.0000
  C   C316      1.0  0.48712  0.73660  0.20385  1.0000
  S   S100      1.0  0.49034  0.60432  0.25269  1.0000
  S   S101      1.0  0.34217  0.50437  0.32859  1.0000
  C   C317      1.0  0.48755  0.59655  0.46400  1.0000
  C   C318      1.0  0.25633  0.50900  0.38530  1.0000
  Fe  Fe51      1.0  0.32944  0.50461  0.27226  1.0000
  C   C319      1.0  0.45173  0.74988  0.17448  1.0000
  Fe  Fe52      1.0  0.31583  0.77045  0.73670  1.0000
  S   S102      1.0  0.30513  0.79115  0.73993  1.0000
  H   H319      1.0  0.27815  0.78319  0.20561  1.0000
  Fe  Fe53      1.0  0.35155  0.79723  0.72296  1.0000
  S   S103      1.0  0.34286  0.81948  0.72591  1.0000
  S   S104      1.0  0.37819  0.80603  0.70203  1.0000
  Fe  Fe54      1.0  0.32809  0.80580  0.77654  1.0000
  S   S105      1.0  0.32548  0.81641  0.83546  1.0000
  Fe  Fe55      1.0  0.32133  0.80242  0.68900  1.0000
  S   S106      1.0  0.31321  0.81175  0.63414  1.0000
  S   S107      1.0  0.33801  0.78431  0.77556  1.0000
  S   S108      1.0  0.33075  0.78099  0.68418  1.0000
  Fe  Fe56      1.0  0.47005  0.78615  0.62186  1.0000
  S   S109      1.0  0.45708  0.75934  0.64507  1.0000
  C   C320      1.0  0.38378  0.79506  0.23323  1.0000
  Fe  Fe57      1.0  0.48309  0.80160  0.70286  1.0000
  S   S110      1.0  0.47129  0.77556  0.73030  1.0000
  C   C321      1.0  0.46232  0.78409  0.48416  1.0000
  Fe  Fe58      1.0  0.48061  0.76521  0.67992  1.0000
  H   H320      1.0  0.36518  0.81586  0.49865  1.0000
  Fe  Fe59      1.0  0.44888  0.77210  0.69287  1.0000
  H   H321      1.0  0.49250  0.82441  0.51654  1.0000
  H   H322      1.0  0.47703  0.82769  0.86722  1.0000
  S   S111      1.0  0.46007  0.79849  0.66768  1.0000
  Fe  Fe60      1.0  0.34101  0.78178  0.33658  1.0000
  S   S112      1.0  0.35099  0.80673  0.36930  1.0000
  S   S113      1.0  0.35768  0.76823  0.31535  1.0000
  Fe  Fe61      1.0  0.30489  0.78020  0.33925  1.0000
  S   S114      1.0  0.31271  0.80548  0.37161  1.0000
  S   S115      1.0  0.27695  0.76732  0.32597  1.0000
  Fe  Fe62      1.0  0.33433  0.81467  0.33020  1.0000
  S   S116      1.0  0.34561  0.84102  0.30133  1.0000
  Fe  Fe63      1.0  0.32857  0.79489  0.40716  1.0000
  S   S117      1.0  0.33146  0.79067  0.47057  1.0000
  S   S118      1.0  0.32530  0.79019  0.29574  1.0000
  S   S119      1.0  0.31960  0.76922  0.37634  1.0000
  Fe  Fe64      1.0  0.45998  0.76291  0.28637  1.0000
  C   C322      1.0  0.30264  0.82958  0.28438  1.0000
  C   C323      1.0  0.36326  0.81978  0.55885  1.0000
  Fe  Fe65      1.0  0.45386  0.79563  0.30605  1.0000
  S   S120      1.0  0.48154  0.81170  0.31213  1.0000
  S   S121      1.0  0.43660  0.80944  0.32055  1.0000
  C   C324      1.0  0.44179  0.91999  0.08178  1.0000
  H   H323      1.0  0.38485  0.85102  0.26196  1.0000
  Fe  Fe66      1.0  0.48235  0.78865  0.34403  1.0000
  C   C325      1.0  0.45530  0.90066  0.10509  1.0000
  S   S122      1.0  0.45614  0.78346  0.25036  1.0000
  S   S123      1.0  0.45460  0.77360  0.34113  1.0000
  Fe  Fe67      1.0  0.39082  0.91456  0.06126  1.0000
  S   S124      1.0  0.39254  0.89448  0.10250  1.0000
  S   S125      1.0  0.40714  0.94234  0.08121  1.0000
  Fe  Fe68      1.0  0.37224  0.88602  0.00116  1.0000
  S   S126      1.0  0.37328  0.86465  0.03798  1.0000
  S   S127      1.0  0.36484  0.88236  0.93800  1.0000
  Fe  Fe69      1.0  0.36592  0.87802  0.08642  1.0000
  S   S128      1.0  0.34627  0.85888  0.12524  1.0000
  Fe  Fe70      1.0  0.39956  0.88263  0.05179  1.0000
  S   S129      1.0  0.41987  0.87197  0.05725  1.0000
  S   S130      1.0  0.36312  0.89883  0.04844  1.0000
  S   S131      1.0  0.39936  0.90321  0.01162  1.0000
  S   S132      1.0  0.48044  0.90124  0.94423  1.0000
  C   C326      1.0  0.30353  0.83420  0.21677  1.0000
  C   C327      1.0  0.43668  0.88042  0.02592  1.0000
  C   C328      1.0  0.44926  0.87361  0.02603  1.0000
  C   C329      1.0  0.46292  0.88026  0.00157  1.0000
  C   C330      1.0  0.46392  0.89352  0.97641  1.0000
  C   C331      1.0  0.45145  0.90048  0.97657  1.0000
  C   C332      1.0  0.43787  0.89394  0.00134  1.0000
  H   H324      1.0  0.44857  0.86331  0.04536  1.0000
  H   H325      1.0  0.47265  0.87509  0.00242  1.0000
  H   H326      1.0  0.45226  0.91087  0.95739  1.0000
  H   H327      1.0  0.42845  0.89946  0.00128  1.0000
  C   C333      1.0  0.36631  0.81135  0.52701  1.0000
  H   H328      1.0  0.31471  0.85451  0.25828  1.0000
  H   H329      1.0  0.42958  0.90894  0.08508  1.0000
  H   H330      1.0  0.39144  0.75763  0.75265  1.0000
  C   C334      1.0  0.34766  0.84522  0.25166  1.0000
  C   C335      1.0  0.34028  0.83221  0.22439  1.0000
  C   C336      1.0  0.34068  0.83647  0.18555  1.0000
  C   C337      1.0  0.34887  0.85367  0.17329  1.0000
  C   C338      1.0  0.35697  0.86651  0.20043  1.0000
  C   C339      1.0  0.35623  0.86232  0.23934  1.0000
  H   H331      1.0  0.33359  0.81901  0.23326  1.0000
  H   H332      1.0  0.33427  0.82646  0.16487  1.0000
  H   H333      1.0  0.36311  0.87983  0.19159  1.0000
  H   H334      1.0  0.36199  0.87252  0.26009  1.0000
  C   C340      1.0  0.41489  0.79709  0.32195  1.0000
  C   C341      1.0  0.40420  0.80487  0.33592  1.0000
  C   C342      1.0  0.38671  0.79591  0.33496  1.0000
  C   C343      1.0  0.37971  0.77907  0.32015  1.0000
  C   C344      1.0  0.39045  0.77113  0.30687  1.0000
  C   C345      1.0  0.40804  0.78011  0.30780  1.0000
  H   H335      1.0  0.40944  0.81800  0.34686  1.0000
  H   H336      1.0  0.37872  0.80223  0.34497  1.0000
  C   C346      1.0  0.44932  0.81864  0.46380  1.0000
  H   H337      1.0  0.41623  0.77402  0.29695  1.0000
  H   H338      1.0  0.39497  0.84616  0.00285  1.0000
  H   H339      1.0  0.30610  0.83455  0.31307  1.0000
  H   H340      1.0  0.35995  0.83099  0.55472  1.0000
  H   H341      1.0  0.40929  0.98777  0.98825  1.0000
  H   H342      1.0  0.44330  0.77878  0.78388  1.0000
  C   C347      1.0  0.28168  0.78668  0.23582  1.0000
  C   C348      1.0  0.46441  0.82276  0.48431  1.0000
  H   H343      1.0  0.45635  0.77304  0.84236  1.0000
  C   C349      1.0  0.37142  0.81418  0.25978  1.0000
  H   H344      1.0  0.29250  0.81131  0.18242  1.0000
  C   C350      1.0  0.30743  0.84080  0.25362  1.0000
  H   H345      1.0  0.41093  0.80540  0.23237  1.0000
  C   C351      1.0  0.36952  0.79821  0.24344  1.0000
  C   C352      1.0  0.47221  0.78661  0.51736  1.0000
  C   C353      1.0  0.31732  0.80525  0.58825  1.0000
  C   C354      1.0  0.31534  0.81416  0.55583  1.0000
  C   C355      1.0  0.31902  0.80960  0.51922  1.0000
  C   C356      1.0  0.32466  0.79598  0.51472  1.0000
  C   C357      1.0  0.32622  0.78685  0.54702  1.0000
  C   C358      1.0  0.32261  0.79143  0.58343  1.0000
  H   H346      1.0  0.31117  0.82482  0.55910  1.0000
  H   H347      1.0  0.31783  0.81682  0.49468  1.0000
  H   H348      1.0  0.33056  0.77629  0.54394  1.0000
  H   H349      1.0  0.32400  0.78424  0.60766  1.0000
  C   C359      1.0  0.34002  0.83353  0.86337  1.0000
  C   C360      1.0  0.33921  0.83233  0.90323  1.0000
  C   C361      1.0  0.34785  0.84682  0.92669  1.0000
  C   C362      1.0  0.35702  0.86288  0.91047  1.0000
  C   C363      1.0  0.35846  0.86392  0.87069  1.0000
  C   C364      1.0  0.35019  0.84930  0.84727  1.0000
  H   H350      1.0  0.33129  0.82026  0.91604  1.0000
  H   H351      1.0  0.34651  0.84580  0.95720  1.0000
  H   H352      1.0  0.36551  0.87626  0.85778  1.0000
  H   H353      1.0  0.35090  0.85051  0.81671  1.0000
  C   C365      1.0  0.40986  0.77276  0.71239  1.0000
  C   C366      1.0  0.41428  0.78666  0.68727  1.0000
  C   C367      1.0  0.40436  0.79665  0.68430  1.0000
  C   C368      1.0  0.38969  0.79255  0.70566  1.0000
  C   C369      1.0  0.38485  0.77827  0.72981  1.0000
  C   C370      1.0  0.39500  0.76845  0.73334  1.0000
  H   H354      1.0  0.42535  0.78977  0.67014  1.0000
  H   H355      1.0  0.40809  0.80761  0.66537  1.0000
  H   H356      1.0  0.37352  0.77502  0.74635  1.0000
  H   H357      1.0  0.41392  0.84234  0.99933  1.0000
  C   C371      1.0  0.40863  0.96754  0.02718  1.0000
  C   C372      1.0  0.41545  0.96340  0.06025  1.0000
  C   C373      1.0  0.42890  0.97666  0.07866  1.0000
  H   H358      1.0  0.39824  0.95761  0.01274  1.0000
  H   H359      1.0  0.43429  0.97368  0.10427  1.0000
  N   N28       1.0  0.40975  0.85740  0.95441  1.0000
  C   C374      1.0  0.42515  0.86096  0.93830  1.0000
  C   C375      1.0  0.39995  0.86630  0.94356  1.0000
  C   C376      1.0  0.43130  0.87405  0.91130  1.0000
  C   C377      1.0  0.40574  0.87954  0.91679  1.0000
  C   C378      1.0  0.42154  0.88346  0.90073  1.0000
  H   H360      1.0  0.46791  0.88377  0.12298  1.0000
  H   H361      1.0  0.43302  0.85404  0.94716  1.0000
  H   H362      1.0  0.38763  0.86334  0.95585  1.0000
  H   H363      1.0  0.44382  0.87731  0.89977  1.0000
  H   H364      1.0  0.39801  0.88676  0.90885  1.0000
  H   H365      1.0  0.42631  0.89389  0.88042  1.0000
  C   C379      1.0  0.48221  0.76615  0.18109  1.0000
  H   H366      1.0  0.39640  0.83095  0.96748  1.0000
  H   H367      1.0  0.46501  0.82140  0.37494  1.0000
  C   C380      1.0  0.36764  0.79921  0.59960  1.0000
  C   C381      1.0  0.37068  0.79041  0.56839  1.0000
  C   C382      1.0  0.36055  0.82249  0.62765  1.0000
  H   H368      1.0  0.36818  0.79435  0.62790  1.0000
  H   H369      1.0  0.37346  0.77888  0.57261  1.0000
  H   H370      1.0  0.35299  0.81294  0.64869  1.0000
  H   H371      1.0  0.35317  0.83049  0.62005  1.0000
  N   N29       1.0  0.31089  0.85121  0.85013  1.0000
  C   C383      1.0  0.30428  0.83999  0.87935  1.0000
  C   C384      1.0  0.32078  0.86817  0.85746  1.0000
  C   C385      1.0  0.30749  0.84571  0.91709  1.0000
  C   C386      1.0  0.32431  0.87430  0.89486  1.0000
  C   C387      1.0  0.31763  0.86297  0.92480  1.0000
  C   C388      1.0  0.30784  0.84511  0.81060  1.0000
  H   H372      1.0  0.29705  0.82636  0.87363  1.0000
  H   H373      1.0  0.32645  0.87692  0.83436  1.0000
  H   H374      1.0  0.30272  0.83665  0.94016  1.0000
  H   H375      1.0  0.33280  0.88755  0.90070  1.0000
  H   H376      1.0  0.32089  0.86744  0.95389  1.0000
  H   H377      1.0  0.31999  0.84675  0.79697  1.0000
  H   H378      1.0  0.29983  0.83106  0.80858  1.0000
  H   H379      1.0  0.30155  0.85244  0.79454  1.0000
  N   N30       1.0  0.45580  0.91395  0.08181  1.0000
  C   C389      1.0  0.46945  0.92186  0.05930  1.0000
  H   H380      1.0  0.43753  0.81560  0.47859  1.0000
  C   C390      1.0  0.48893  0.78804  0.51427  1.0000
  H   H381      1.0  0.43796  0.81477  0.40771  1.0000
  C   C391      1.0  0.48237  0.90253  0.08231  1.0000
  C   C392      1.0  0.46853  0.89469  0.10554  1.0000
  S   S133      1.0  0.46402  0.79107  0.56048  1.0000
  H   H382      1.0  0.46984  0.93230  0.04061  1.0000
  N   N31       1.0  0.29028  0.80543  0.24161  1.0000
  H   H383      1.0  0.45102  0.76292  0.17450  1.0000
  H   H384      1.0  0.28996  0.77991  0.24537  1.0000
  C   C393      1.0  0.46477  0.82176  0.40568  1.0000
  H   H385      1.0  0.44434  0.89417  0.12240  1.0000
  N   N32       1.0  0.36375  0.81354  0.59451  1.0000
  C   C394      1.0  0.39973  0.80791  0.23910  1.0000
  H   H386      1.0  0.36032  0.81644  0.26832  1.0000
  C   C395      1.0  0.42838  0.99795  0.03180  1.0000
  H   H387      1.0  0.35711  0.78808  0.24015  1.0000
  C   C396      1.0  0.36986  0.79647  0.53185  1.0000
  H   H388      1.0  0.37265  0.83072  0.64147  1.0000
  H   H389      1.0  0.48047  0.77781  0.17204  1.0000
  S   S134      1.0  0.48790  0.77674  0.29079  1.0000
  H   H390      1.0  0.27531  0.75734  0.74965  1.0000
  C   C397      1.0  0.40117  0.82375  0.25540  1.0000
  H   H391      1.0  0.41364  0.83349  0.26059  1.0000
  C   C398      1.0  0.45072  0.78957  0.80205  1.0000
  N   N33       1.0  0.38710  0.82662  0.26588  1.0000
  H   H392      1.0  0.38025  0.84103  0.30800  1.0000
  C   C399      1.0  0.47960  0.82562  0.42702  1.0000
  H   H393      1.0  0.49132  0.82796  0.41233  1.0000
  Fe  Fe71      1.0  0.48398  0.79830  0.25810  1.0000
  H   H394      1.0  0.40167  0.85082  0.29303  1.0000
  H   H395      1.0  0.48379  0.85566  0.15422  1.0000
  S   S135      1.0  0.49434  0.79167  0.65433  1.0000
  H   H396      1.0  0.47348  0.79769  0.88442  1.0000
  H   H397      1.0  0.43444  0.81249  0.76340  1.0000
  H   H398      1.0  0.38248  0.78247  0.22201  1.0000
  H   H399      1.0  0.25223  0.76208  0.66017  1.0000
  C   C400      1.0  0.43546  0.99373  0.06434  1.0000
  C   C401      1.0  0.45798  0.78623  0.83528  1.0000
  N   N34       1.0  0.47924  0.82591  0.46586  1.0000
  C   C402      1.0  0.46749  0.80001  0.85890  1.0000
  C   C403      1.0  0.48288  0.91622  0.05904  1.0000
  H   H400      1.0  0.26996  0.78170  0.25279  1.0000
  H   H401      1.0  0.30773  0.84280  0.19264  1.0000
  C   C404      1.0  0.38863  0.84322  0.28300  1.0000
  C   C405      1.0  0.41494  0.98472  0.01337  1.0000
  C   C406      1.0  0.44580  0.80966  0.75708  1.0000
  C   C407      1.0  0.29502  0.81635  0.21122  1.0000
  H   H402      1.0  0.29032  0.80315  0.30185  1.0000
  H   H403      1.0  0.46166  0.78292  0.42291  1.0000
  H   H404      1.0  0.44935  0.78287  0.48626  1.0000
  C   C408      1.0  0.28439  0.76508  0.65483  1.0000
  H   H405      1.0  0.45514  0.82070  0.74170  1.0000
  C   C409      1.0  0.46929  0.78412  0.44812  1.0000
  N   N35       1.0  0.45322  0.80622  0.79220  1.0000
  C   C410      1.0  0.40342  0.84345  0.98219  1.0000
  C   C411      1.0  0.29395  0.81183  0.27783  1.0000
  H   H406      1.0  0.44200  0.79834  0.73751  1.0000
  S   S136      1.0  0.42310  0.76117  0.71931  1.0000
  H   H407      1.0  0.44089  0.92631  0.05456  1.0000
  H   H408      1.0  0.46439  0.83297  0.80743  1.0000
  H   H409      1.0  0.49342  0.92214  0.04021  1.0000
  H   H410      1.0  0.44336  0.92939  0.10535  1.0000
  C   C412      1.0  0.46947  0.81687  0.84927  1.0000
  C   C413      1.0  0.46227  0.81977  0.81550  1.0000
  C   C414      1.0  0.44955  0.81811  0.42420  1.0000
  H   H411      1.0  0.28164  0.77644  0.66452  1.0000
  H   H412      1.0  0.37164  0.78950  0.50723  1.0000
  C   C415      1.0  0.48628  0.78664  0.44484  1.0000
  H   H413      1.0  0.46408  0.82273  0.51515  1.0000
  C   C416      1.0  0.49134  0.84794  0.15012  1.0000
  H   H414      1.0  0.29365  0.76355  0.67528  1.0000
  H   H415      1.0  0.29023  0.76801  0.62637  1.0000
  H   H416      1.0  0.49253  0.89774  0.08187  1.0000
  H   H417      1.0  0.46887  0.75216  0.39112  1.0000
  S   S137      1.0  0.49270  0.82746  0.73576  1.0000
  H   H418      1.0  0.38515  0.75810  0.29533  1.0000
  N   N36       1.0  0.46871  0.75082  0.18419  1.0000
  C   C417      1.0  0.49065  0.83519  0.17712  1.0000
  H   H419      1.0  0.28010  0.75560  0.40449  1.0000
  H   H420      1.0  0.48266  0.83323  0.20162  1.0000
  Fe  Fe72      1.0  0.68500  0.18956  0.67224  1.0000
  S   S138      1.0  0.69071  0.16556  0.67997  1.0000
  S   S139      1.0  0.70103  0.21834  0.66928  1.0000
  Fe  Fe73      1.0  0.64768  0.16809  0.65461  1.0000
  S   S140      1.0  0.65050  0.14262  0.66065  1.0000
  S   S141      1.0  0.62360  0.16985  0.63355  1.0000
  Fe  Fe74      1.0  0.66622  0.15474  0.71271  1.0000
  S   S142      1.0  0.66173  0.14589  0.77474  1.0000
  Fe  Fe75      1.0  0.67433  0.15559  0.62737  1.0000
  S   S143      1.0  0.68175  0.14463  0.57421  1.0000
  S   S144      1.0  0.66178  0.17972  0.70782  1.0000
  S   S145      1.0  0.67026  0.18014  0.61843  1.0000
  Fe  Fe76      1.0  0.68701  0.16920  0.28920  1.0000
  S   S146      1.0  0.67519  0.14204  0.31289  1.0000
  S   S147      1.0  0.71484  0.18230  0.27590  1.0000
  Fe  Fe77      1.0  0.65370  0.17341  0.28328  1.0000
  S   S148      1.0  0.63966  0.14711  0.30662  1.0000
  S   S149      1.0  0.63966  0.19022  0.26612  1.0000
  Fe  Fe78      1.0  0.66062  0.15362  0.35000  1.0000
  S   S150      1.0  0.65172  0.15109  0.41162  1.0000
  Fe  Fe79      1.0  0.65518  0.13803  0.26720  1.0000
  S   S151      1.0  0.63925  0.11387  0.23246  1.0000
  S   S152      1.0  0.67361  0.18076  0.32861  1.0000
  S   S153      1.0  0.66806  0.16421  0.24139  1.0000
  Fe  Fe80      1.0  0.60032  0.04113  0.98146  1.0000
  S   S154      1.0  0.59901  0.06074  0.02471  1.0000
  Fe  Fe81      1.0  0.62386  0.07073  0.92968  1.0000
  S   S155      1.0  0.62380  0.09187  0.96911  1.0000
  S   S156      1.0  0.63463  0.07529  0.86954  1.0000
  Fe  Fe82      1.0  0.62672  0.07514  0.01663  1.0000
  S   S157      1.0  0.64573  0.08918  0.06385  1.0000
  Fe  Fe83      1.0  0.59634  0.07617  0.97483  1.0000
  S   S158      1.0  0.57746  0.08865  0.96694  1.0000
  S   S159      1.0  0.62873  0.05448  0.97657  1.0000
  S   S160      1.0  0.59589  0.05609  0.93222  1.0000
  Fe  Fe84      1.0  0.52073  0.18332  0.72519  1.0000
  H   H421      1.0  0.67270  0.22287  0.70632  1.0000
  H   H422      1.0  0.51925  0.11205  0.57172  1.0000
  Fe  Fe85      1.0  0.54927  0.17117  0.73962  1.0000
  S   S161      1.0  0.53465  0.14440  0.71760  1.0000
  S   S162      1.0  0.57561  0.17698  0.76138  1.0000
  Fe  Fe86      1.0  0.52681  0.15793  0.67006  1.0000
  S   S163      1.0  0.53046  0.15002  0.60949  1.0000
  Fe  Fe87      1.0  0.51333  0.14614  0.75188  1.0000
  H   H423      1.0  0.57068  0.14736  0.31454  1.0000
  S   S164      1.0  0.54297  0.18473  0.69033  1.0000
  S   S165      1.0  0.52852  0.17228  0.77691  1.0000
  Fe  Fe88      1.0  0.53068  0.18762  0.32405  1.0000
  S   S166      1.0  0.52523  0.20936  0.29557  1.0000
  Fe  Fe89      1.0  0.55445  0.17230  0.35862  1.0000
  S   S167      1.0  0.53358  0.14680  0.36959  1.0000
  S   S168      1.0  0.57947  0.17321  0.38080  1.0000
  Fe  Fe90      1.0  0.52442  0.14923  0.31038  1.0000
  Fe  Fe91      1.0  0.51953  0.16290  0.39064  1.0000
  H   H424      1.0  0.62390  0.20902  0.65630  1.0000
  S   S169      1.0  0.54638  0.17399  0.29848  1.0000
  S   S170      1.0  0.54096  0.18834  0.38319  1.0000
  S   S171      1.0  0.51662  0.05048  0.07334  1.0000
  C   C418      1.0  0.63210  0.21225  0.68116  1.0000
  C   C419      1.0  0.52494  0.15660  0.56514  1.0000
  H   H425      1.0  0.49845  0.12247  0.42916  1.0000
  S   S172      1.0  0.52085  0.12658  0.26920  1.0000
  C   C420      1.0  0.51354  0.16024  0.49104  1.0000
  C   C421      1.0  0.50954  0.12686  0.85833  1.0000
  H   H426      1.0  0.55333  0.10820  0.03914  1.0000
  N   N37       1.0  0.71386  0.23385  0.23194  1.0000
  C   C422      1.0  0.51811  0.03175  0.97092  1.0000
  C   C423      1.0  0.60390  0.09257  0.83893  1.0000
  C   C424      1.0  0.49782  0.09753  0.17617  1.0000
  C   C425      1.0  0.56102  0.08031  0.99915  1.0000
  C   C426      1.0  0.54493  0.07956  0.98937  1.0000
  C   C427      1.0  0.53132  0.07108  0.01313  1.0000
  C   C428      1.0  0.53381  0.06322  0.04645  1.0000
  C   C429      1.0  0.55003  0.06480  0.05718  1.0000
  C   C430      1.0  0.56364  0.07350  0.03371  1.0000
  H   H427      1.0  0.54286  0.08498  0.96281  1.0000
  H   H428      1.0  0.51884  0.07004  0.00477  1.0000
  H   H429      1.0  0.55204  0.05907  0.08336  1.0000
  H   H430      1.0  0.57616  0.07496  0.04243  1.0000
  C   C431      1.0  0.62345  0.18705  0.29883  1.0000
  C   C432      1.0  0.60963  0.19144  0.28967  1.0000
  C   C433      1.0  0.59595  0.18728  0.31460  1.0000
  C   C434      1.0  0.59637  0.17915  0.34909  1.0000
  C   C435      1.0  0.61047  0.17539  0.35865  1.0000
  C   C436      1.0  0.62392  0.17926  0.33359  1.0000
  H   H431      1.0  0.60933  0.19770  0.26299  1.0000
  H   H432      1.0  0.58522  0.19050  0.30734  1.0000
  H   H433      1.0  0.61099  0.16930  0.38532  1.0000
  H   H434      1.0  0.63474  0.17629  0.34143  1.0000
  C   C437      1.0  0.64000  0.10946  0.18300  1.0000
  C   C438      1.0  0.65417  0.11821  0.16107  1.0000
  C   C439      1.0  0.65530  0.11247  0.12374  1.0000
  C   C440      1.0  0.64214  0.09824  0.10739  1.0000
  C   C441      1.0  0.62755  0.09015  0.12855  1.0000
  C   C442      1.0  0.62660  0.09559  0.16622  1.0000
  H   H435      1.0  0.66462  0.12886  0.17345  1.0000
  H   H436      1.0  0.66668  0.11881  0.10779  1.0000
  H   H437      1.0  0.61732  0.07915  0.11657  1.0000
  H   H438      1.0  0.61556  0.08871  0.18281  1.0000
  H   H439      1.0  0.55770  0.12711  0.29183  1.0000
  H   H440      1.0  0.56039  0.14704  0.26943  1.0000
  C   C443      1.0  0.67477  0.14787  0.52819  1.0000
  C   C444      1.0  0.67877  0.13999  0.49634  1.0000
  C   C445      1.0  0.67287  0.14185  0.45969  1.0000
  C   C446      1.0  0.66294  0.15171  0.45457  1.0000
  C   C447      1.0  0.65963  0.16023  0.48616  1.0000
  C   C448      1.0  0.66544  0.15829  0.52267  1.0000
  H   H441      1.0  0.68606  0.13196  0.50015  1.0000
  H   H442      1.0  0.67533  0.13500  0.43577  1.0000
  H   H443      1.0  0.65211  0.16802  0.48251  1.0000
  H   H444      1.0  0.66238  0.16462  0.54653  1.0000
  C   C449      1.0  0.65455  0.12603  0.80032  1.0000
  C   C450      1.0  0.65173  0.12651  0.83957  1.0000
  C   C451      1.0  0.64571  0.11119  0.86116  1.0000
  C   C452      1.0  0.64260  0.09511  0.84385  1.0000
  C   C453      1.0  0.64546  0.09462  0.80460  1.0000
  C   C454      1.0  0.65127  0.10994  0.78288  1.0000
  H   H445      1.0  0.65426  0.13886  0.85346  1.0000
  H   H446      1.0  0.64362  0.11183  0.89127  1.0000
  H   H447      1.0  0.64314  0.08228  0.79087  1.0000
  H   H448      1.0  0.65342  0.10931  0.75280  1.0000
  C   C455      1.0  0.58806  0.17300  0.72616  1.0000
  C   C456      1.0  0.58345  0.17253  0.68787  1.0000
  C   C457      1.0  0.59425  0.17105  0.65961  1.0000
  C   C458      1.0  0.60954  0.16973  0.66954  1.0000
  C   C459      1.0  0.61385  0.16944  0.70788  1.0000
  C   C460      1.0  0.60318  0.17124  0.73617  1.0000
  H   H449      1.0  0.57175  0.17372  0.67992  1.0000
  H   H450      1.0  0.59079  0.17117  0.63003  1.0000
  H   H451      1.0  0.62555  0.16826  0.71577  1.0000
  H   H452      1.0  0.60674  0.17155  0.76578  1.0000
  C   C461      1.0  0.72304  0.22869  0.67732  1.0000
  H   H453      1.0  0.72713  0.20596  0.69562  1.0000
  H   H454      1.0  0.51624  0.01953  0.02510  1.0000
  C   C462      1.0  0.54795  0.23683  0.33655  1.0000
  C   C463      1.0  0.53496  0.23136  0.30946  1.0000
  H   H455      1.0  0.72169  0.23856  0.33283  1.0000
  C   C464      1.0  0.52460  0.02589  0.00213  1.0000
  H   H456      1.0  0.55268  0.22760  0.34853  1.0000
  H   H457      1.0  0.50083  0.23209  0.61537  1.0000
  H   H458      1.0  0.69881  0.20594  0.47523  1.0000
  C   C465      1.0  0.52126  0.22622  0.73119  1.0000
  C   C466      1.0  0.53851  0.23253  0.73960  1.0000
  H   H459      1.0  0.62270  0.14077  0.21993  1.0000
  H   H460      1.0  0.54480  0.22357  0.74351  1.0000
  H   H461      1.0  0.71256  0.16989  0.54038  1.0000
  C   C467      1.0  0.52351  0.24069  0.41043  1.0000
  H   H462      1.0  0.66863  0.21556  0.64113  1.0000
  C   C468      1.0  0.50659  0.13012  0.09128  1.0000
  S   S173      1.0  0.49781  0.10144  0.95963  1.0000
  H   H463      1.0  0.74030  0.24810  0.22610  1.0000
  H   H464      1.0  0.51987  0.12953  0.91524  1.0000
  H   H465      1.0  0.71417  0.17344  0.60891  1.0000
  H   H466      1.0  0.71529  0.19336  0.63033  1.0000
  C   C469      1.0  0.50444  0.16146  0.52324  1.0000
  H   H467      1.0  0.52835  0.21059  0.65236  1.0000
  C   C470      1.0  0.68332  0.22716  0.26785  1.0000
  H   H468      1.0  0.73340  0.19256  0.60600  1.0000
  C   C471      1.0  0.52883  0.15812  0.49618  1.0000
  H   H469      1.0  0.70294  0.17807  0.47978  1.0000
  H   H470      1.0  0.54102  0.02323  0.06359  1.0000
  C   C472      1.0  0.54123  0.11308  0.08877  1.0000
  H   H471      1.0  0.50765  0.13262  0.12245  1.0000
  C   C473      1.0  0.52048  0.21480  0.63259  1.0000
  S   S174      1.0  0.50392  0.15717  0.70197  1.0000
  C   C474      1.0  0.70548  0.18672  0.50422  1.0000
  N   N38       1.0  0.54139  0.02884  0.00450  1.0000
  C   C475      1.0  0.69625  0.24346  0.27122  1.0000
  N   N39       1.0  0.61687  0.14477  0.52459  1.0000
  C   C476      1.0  0.61903  0.14172  0.48714  1.0000
  C   C477      1.0  0.60744  0.15418  0.53449  1.0000
  C   C478      1.0  0.61208  0.14862  0.45848  1.0000
  C   C479      1.0  0.60011  0.16106  0.50655  1.0000
  C   C480      1.0  0.60251  0.15831  0.46831  1.0000
  C   C481      1.0  0.62451  0.13790  0.55462  1.0000
  H   H472      1.0  0.62652  0.13430  0.47903  1.0000
  H   H473      1.0  0.60562  0.15648  0.56419  1.0000
  H   H474      1.0  0.61437  0.14664  0.42885  1.0000
  H   H475      1.0  0.59270  0.16860  0.51447  1.0000
  H   H476      1.0  0.59702  0.16373  0.44636  1.0000
  H   H477      1.0  0.63294  0.13173  0.54303  1.0000
  H   H478      1.0  0.63226  0.14855  0.57402  1.0000
  H   H479      1.0  0.61456  0.12813  0.57149  1.0000
  N   N40       1.0  0.58201  0.14021  0.26750  1.0000
  C   C482      1.0  0.58718  0.12672  0.27295  1.0000
  C   C483      1.0  0.59129  0.15400  0.24573  1.0000
  C   C484      1.0  0.60173  0.12660  0.25544  1.0000
  C   C485      1.0  0.60601  0.15440  0.22819  1.0000
  C   C486      1.0  0.61117  0.14054  0.23292  1.0000
  C   C487      1.0  0.56702  0.14043  0.28685  1.0000
  H   H480      1.0  0.58010  0.11601  0.29106  1.0000
  H   H481      1.0  0.58750  0.16495  0.24237  1.0000
  H   H482      1.0  0.60595  0.11598  0.25984  1.0000
  H   H483      1.0  0.61363  0.16562  0.21195  1.0000
  C   C488      1.0  0.73292  0.21968  0.68991  1.0000
  H   H484      1.0  0.60742  0.13800  0.77503  1.0000
  C   C489      1.0  0.52889  0.04053  0.94191  1.0000
  N   N41       1.0  0.71357  0.19270  0.56987  1.0000
  C   C490      1.0  0.67537  0.09527  0.19416  1.0000
  C   C491      1.0  0.72643  0.20405  0.28985  1.0000
  C   C492      1.0  0.50671  0.11793  0.23010  1.0000
  H   H485      1.0  0.70616  0.20734  0.32002  1.0000
  H   H486      1.0  0.62807  0.14657  0.79772  1.0000
  H   H487      1.0  0.50722  0.20778  0.64141  1.0000
  H   H488      1.0  0.61316  0.10097  0.78319  1.0000
  C   C493      1.0  0.71894  0.21352  0.31052  1.0000
  N   N42       1.0  0.52499  0.23360  0.63473  1.0000
  N   N43       1.0  0.64897  0.21593  0.67764  1.0000
  C   C494      1.0  0.61790  0.13466  0.78658  1.0000
  H   H489      1.0  0.60304  0.07936  0.83430  1.0000
  N   N44       1.0  0.61177  0.12178  0.81675  1.0000
  H   H490      1.0  0.62355  0.12988  0.76291  1.0000
  C   C495      1.0  0.49588  0.11562  0.56390  1.0000
  C   C496      1.0  0.60973  0.10490  0.81023  1.0000
  C   C497      1.0  0.73077  0.24657  0.67068  1.0000
  H   H491      1.0  0.61161  0.20876  0.71967  1.0000
  H   H492      1.0  0.65003  0.05680  0.09030  1.0000
  C   C498      1.0  0.62507  0.21206  0.71692  1.0000
  H   H493      1.0  0.50490  0.02992  0.96984  1.0000
  H   H494      1.0  0.50591  0.20230  0.80963  1.0000
  C   C499      1.0  0.64469  0.05555  0.11931  1.0000
  H   H495      1.0  0.54575  0.15354  0.53652  1.0000
  H   H496      1.0  0.68286  0.10579  0.21292  1.0000
  C   C500      1.0  0.54801  0.02271  0.03749  1.0000
  H   H497      1.0  0.64308  0.04260  0.13050  1.0000
  C   C501      1.0  0.74425  0.23975  0.30453  1.0000
  C   C502      1.0  0.63538  0.21544  0.74919  1.0000
  C   C503      1.0  0.65261  0.21939  0.74532  1.0000
  H   H498      1.0  0.67494  0.08003  0.10456  1.0000
  H   H499      1.0  0.63218  0.05653  0.11603  1.0000
  C   C504      1.0  0.60005  0.09759  0.87429  1.0000
  C   C505      1.0  0.64986  0.07058  0.18071  1.0000
  H   H500      1.0  0.59582  0.08826  0.89699  1.0000
  H   H501      1.0  0.63749  0.06188  0.18955  1.0000
  N   N45       1.0  0.65543  0.06925  0.14501  1.0000
  H   H502      1.0  0.53623  0.11804  0.99428  1.0000
  H   H503      1.0  0.66077  0.22199  0.77020  1.0000
  C   C506      1.0  0.60190  0.11473  0.88055  1.0000
  C   C507      1.0  0.60779  0.12675  0.85123  1.0000
  H   H504      1.0  0.51944  0.13842  0.84806  1.0000
  C   C508      1.0  0.70622  0.21321  0.53356  1.0000
  C   C509      1.0  0.67079  0.08064  0.13335  1.0000
  C   C510      1.0  0.65971  0.08360  0.20578  1.0000
  H   H505      1.0  0.60931  0.14010  0.85631  1.0000
  H   H506      1.0  0.53083  0.23460  0.42563  1.0000
  H   H507      1.0  0.65494  0.08512  0.23346  1.0000
  C   C511      1.0  0.52906  0.24353  0.29385  1.0000
  C   C512      1.0  0.55195  0.03704  0.97573  1.0000
  C   C513      1.0  0.52265  0.12472  0.03903  1.0000
  H   H508      1.0  0.67138  0.22439  0.28201  1.0000
  C   C514      1.0  0.53435  0.15607  0.53299  1.0000
  H   H509      1.0  0.53603  0.15729  0.47172  1.0000
  C   C515      1.0  0.65928  0.21979  0.70906  1.0000
  H   H510      1.0  0.62995  0.21484  0.77713  1.0000
  H   H511      1.0  0.59891  0.11863  0.90813  1.0000
  H   H512      1.0  0.71407  0.21675  0.59218  1.0000
  H   H513      1.0  0.51493  0.12851  0.01916  1.0000
  C   C516      1.0  0.53467  0.11876  0.02473  1.0000
  H   H514      1.0  0.69292  0.10312  0.14800  1.0000
  N   N46       1.0  0.52004  0.12489  0.07729  1.0000
  C   C517      1.0  0.50204  0.23898  0.36576  1.0000
  C   C518      1.0  0.52906  0.11907  0.10211  1.0000
  C   C519      1.0  0.54409  0.11303  0.04985  1.0000
  H   H515      1.0  0.52496  0.11260  0.50280  1.0000
  C   C520      1.0  0.51343  0.24047  0.62425  1.0000
  H   H516      1.0  0.73318  0.22594  0.21153  1.0000
  C   C521      1.0  0.68100  0.09379  0.15775  1.0000
  S   S175      1.0  0.50435  0.15908  0.44517  1.0000
  S   S176      1.0  0.50924  0.20380  0.72562  1.0000
  N   N47       1.0  0.50274  0.11672  0.48674  1.0000
  H   H517      1.0  0.56520  0.03922  0.97750  1.0000
  C   C522      1.0  0.65604  0.21644  0.63973  1.0000
  C   C523      1.0  0.50973  0.12178  0.89653  1.0000
  H   H518      1.0  0.51907  0.23940  0.27272  1.0000
  C   C524      1.0  0.71157  0.20820  0.56757  1.0000
  C   C525      1.0  0.72782  0.23125  0.31785  1.0000
  H   H519      1.0  0.67580  0.20161  0.24361  1.0000
  C   C526      1.0  0.71944  0.18778  0.60549  1.0000
  C   C527      1.0  0.70124  0.21783  0.22849  1.0000
  H   H520      1.0  0.52411  0.04556  0.91805  1.0000
  H   H521      1.0  0.52667  0.11871  0.13234  1.0000
  C   C528      1.0  0.70307  0.20232  0.50177  1.0000
  C   C529      1.0  0.51019  0.15985  0.56017  1.0000
  C   C530      1.0  0.50697  0.21256  0.38143  1.0000
  C   C531      1.0  0.54592  0.04313  0.94419  1.0000
  H   H522      1.0  0.64780  0.20527  0.62222  1.0000
  H   H523      1.0  0.56147  0.03096  0.04287  1.0000
  S   S177      1.0  0.57972  0.01367  0.98862  1.0000
  C   C532      1.0  0.51027  0.11336  0.55126  1.0000
  C   C533      1.0  0.74321  0.21233  0.27822  1.0000
  H   H524      1.0  0.70319  0.20756  0.21259  1.0000
  H   H525      1.0  0.50515  0.10454  0.43523  1.0000
  H   H526      1.0  0.54814  0.10813  0.10835  1.0000
  C   C534      1.0  0.50077  0.18900  0.81948  1.0000
  N   N48       1.0  0.51101  0.23122  0.38566  1.0000
  C   C535      1.0  0.51327  0.23800  0.72638  1.0000
  S   S178      1.0  0.50808  0.16292  0.33255  1.0000
  C   C536      1.0  0.71089  0.18214  0.53862  1.0000
  H   H527      1.0  0.70457  0.22547  0.53191  1.0000
  C   C537      1.0  0.68579  0.21429  0.24627  1.0000
  H   H528      1.0  0.55453  0.05021  0.92223  1.0000
  H   H529      1.0  0.54714  0.00924  0.03226  1.0000
  H   H530      1.0  0.65733  0.22872  0.62549  1.0000
  H   H531      1.0  0.49992  0.23325  0.71999  1.0000
  C   C538      1.0  0.51350  0.11387  0.51233  1.0000
  H   H532      1.0  0.49909  0.20540  0.40533  1.0000
  H   H533      1.0  0.52213  0.21085  0.60324  1.0000
  C   C539      1.0  0.50668  0.11756  0.44620  1.0000
  C   C540      1.0  0.50712  0.18431  0.85239  1.0000
  H   H534      1.0  0.51721  0.19398  0.86842  1.0000
  H   H535      1.0  0.51921  0.10103  0.21280  1.0000
  H   H536      1.0  0.49963  0.08761  0.15890  1.0000
  C   C541      1.0  0.71150  0.24665  0.25270  1.0000
  H   H537      1.0  0.50565  0.16317  0.88925  1.0000
  C   C542      1.0  0.50065  0.16708  0.86409  1.0000
  C   C543      1.0  0.50893  0.10518  0.20680  1.0000
  H   H538      1.0  0.50024  0.20745  0.35416  1.0000
  H   H539      1.0  0.51868  0.20982  0.38066  1.0000
  C   C544      1.0  0.49702  0.10676  0.91067  1.0000
  C   C545      1.0  0.72971  0.23751  0.21181  1.0000
  H   H540      1.0  0.72848  0.24138  0.18219  1.0000
  H   H541      1.0  0.50270  0.16006  0.58457  1.0000
  C   C546      1.0  0.49649  0.11706  0.83368  1.0000
  S   S179      1.0  0.49785  0.08415  0.05495  1.0000
  H   H542      1.0  0.50700  0.14216  0.07718  1.0000
  C   C547      1.0  0.54092  0.24421  0.64572  1.0000
  H   H543      1.0  0.51981  0.12675  0.44161  1.0000
  H   H544      1.0  0.55004  0.23879  0.65449  1.0000
  S   S180      1.0  0.49478  0.12367  0.78607  1.0000
  Fe  Fe92      1.0  0.69450  0.43888  0.75418  1.0000
  S   S181      1.0  0.69489  0.46137  0.71879  1.0000
  S   S182      1.0  0.71631  0.43116  0.77060  1.0000
  Fe  Fe93      1.0  0.65614  0.42550  0.76418  1.0000
  S   S183      1.0  0.65365  0.44694  0.72980  1.0000
  S   S184      1.0  0.63427  0.40497  0.79292  1.0000
  Fe  Fe94      1.0  0.67177  0.44225  0.68929  1.0000
  S   S185      1.0  0.66459  0.43381  0.62771  1.0000
  Fe  Fe95      1.0  0.67666  0.46380  0.76261  1.0000
  H   H545      1.0  0.53898  0.35894  0.46982  1.0000
  S   S186      1.0  0.67268  0.41955  0.72237  1.0000
  S   S187      1.0  0.67791  0.44265  0.79961  1.0000
  Fe  Fe96      1.0  0.55218  0.34243  0.69568  1.0000
  S   S188      1.0  0.52651  0.33840  0.67284  1.0000
  S   S189      1.0  0.57160  0.36906  0.68469  1.0000
  Fe  Fe97      1.0  0.54111  0.30462  0.72062  1.0000
  S   S190      1.0  0.55180  0.28489  0.74044  1.0000
  Fe  Fe98      1.0  0.52628  0.31340  0.64818  1.0000
  C   C548      1.0  0.65290  0.48292  0.43603  1.0000
  C   C549      1.0  0.52751  0.25848  0.41530  1.0000
  S   S191      1.0  0.55272  0.31861  0.66751  1.0000
  S   S192      1.0  0.54348  0.32937  0.75142  1.0000
  Fe  Fe99      1.0  0.68135  0.45769  0.41108  1.0000
  S   S193      1.0  0.69284  0.43834  0.39677  1.0000
  S   S194      1.0  0.68515  0.47174  0.46820  1.0000
  Fe  Fe100     1.0  0.66858  0.45795  0.32770  1.0000
  S   S195      1.0  0.67957  0.43889  0.30792  1.0000
  H   H546      1.0  0.55788  0.27058  0.65744  1.0000
  Fe  Fe101     1.0  0.66906  0.42507  0.36224  1.0000
  S   S196      1.0  0.65402  0.39623  0.36269  1.0000
  Fe  Fe102     1.0  0.70226  0.45407  0.34424  1.0000
  S   S197      1.0  0.72982  0.46619  0.32818  1.0000
  S   S198      1.0  0.65692  0.44335  0.38058  1.0000
  S   S199      1.0  0.69193  0.47427  0.36011  1.0000
  Fe  Fe103     1.0  0.52587  0.32354  0.28554  1.0000
  S   S200      1.0  0.55289  0.32578  0.28330  1.0000
  Fe  Fe104     1.0  0.52728  0.32752  0.37319  1.0000
  S   S201      1.0  0.55431  0.33070  0.37620  1.0000
  C   C550      1.0  0.53968  0.26234  0.73792  1.0000
  Fe  Fe105     1.0  0.55783  0.34755  0.32518  1.0000
  S   S202      1.0  0.57715  0.37467  0.31841  1.0000
  Fe  Fe106     1.0  0.54669  0.30841  0.33443  1.0000
  S   S203      1.0  0.55713  0.28801  0.35035  1.0000
  S   S204      1.0  0.53123  0.34627  0.32490  1.0000
  Fe  Fe107     1.0  0.60755  0.46457  0.00843  1.0000
  S   S205      1.0  0.59087  0.43899  0.98367  1.0000
  S   S206      1.0  0.63542  0.47197  0.00956  1.0000
  S   S207      1.0  0.51629  0.43373  0.99893  1.0000
  C   C551      1.0  0.53698  0.43587  0.99026  1.0000
  C   C552      1.0  0.55024  0.45093  0.00209  1.0000
  C   C553      1.0  0.56687  0.45211  0.99885  1.0000
  C   C554      1.0  0.57026  0.43828  0.98346  1.0000
  C   C555      1.0  0.55703  0.42342  0.97053  1.0000
  C   C556      1.0  0.54037  0.42223  0.97387  1.0000
  H   H547      1.0  0.54765  0.46138  0.01530  1.0000
  H   H548      1.0  0.57699  0.46351  0.00946  1.0000
  H   H549      1.0  0.55962  0.41269  0.95872  1.0000
  H   H550      1.0  0.53015  0.41074  0.96386  1.0000
  C   C557      1.0  0.53590  0.26100  0.30564  1.0000
  C   C558      1.0  0.51499  0.47901  0.02196  1.0000
  C   C559      1.0  0.51851  0.26652  0.39494  1.0000
  S   S208      1.0  0.52175  0.30079  0.58923  1.0000
  H   H551      1.0  0.52614  0.40329  0.10724  1.0000
  C   C560      1.0  0.50839  0.33497  0.19924  1.0000
  H   H552      1.0  0.62720  0.39827  0.63384  1.0000
  N   N49       1.0  0.55888  0.36971  0.43054  1.0000
  H   H553      1.0  0.54430  0.43637  0.12413  1.0000
  H   H554      1.0  0.52792  0.30536  0.45067  1.0000
  C   C561      1.0  0.63232  0.39025  0.35366  1.0000
  C   C562      1.0  0.62134  0.37284  0.35636  1.0000
  C   C563      1.0  0.60421  0.36780  0.34636  1.0000
  C   C564      1.0  0.59812  0.38022  0.33350  1.0000
  C   C565      1.0  0.60900  0.39763  0.33178  1.0000
  C   C566      1.0  0.62603  0.40260  0.34162  1.0000
  H   H555      1.0  0.62616  0.36319  0.36547  1.0000
  H   H556      1.0  0.59585  0.35432  0.34776  1.0000
  H   H557      1.0  0.60432  0.40727  0.32193  1.0000
  H   H558      1.0  0.63438  0.41593  0.33855  1.0000
  H   H559      1.0  0.55703  0.37215  0.86497  1.0000
  C   C567      1.0  0.73797  0.43718  0.33432  1.0000
  H   H560      1.0  0.58303  0.34735  0.48932  1.0000
  H   H561      1.0  0.50844  0.26394  0.61737  1.0000
  H   H562      1.0  0.72458  0.42965  0.33553  1.0000
  C   C568      1.0  0.62650  0.44289  0.83320  1.0000
  H   H563      1.0  0.58114  0.38036  0.39784  1.0000
  C   C569      1.0  0.57512  0.37227  0.42156  1.0000
  H   H564      1.0  0.73516  0.45762  0.41068  1.0000
  C   C570      1.0  0.52579  0.30402  0.51191  1.0000
  H   H565      1.0  0.54306  0.36534  0.73607  1.0000
  H   H566      1.0  0.52189  0.28041  0.39757  1.0000
  H   H567      1.0  0.67377  0.46899  0.16262  1.0000
  C   C571      1.0  0.58406  0.36426  0.44244  1.0000
  S   S209      1.0  0.51477  0.33153  0.42719  1.0000
  H   H568      1.0  0.55395  0.34412  0.50735  1.0000
  H   H569      1.0  0.53117  0.27024  0.29367  1.0000
  C   C572      1.0  0.67113  0.44470  0.58395  1.0000
  C   C573      1.0  0.68051  0.46252  0.58201  1.0000
  C   C574      1.0  0.68479  0.47061  0.54638  1.0000
  C   C575      1.0  0.67993  0.46094  0.51241  1.0000
  C   C576      1.0  0.67074  0.44310  0.51440  1.0000
  C   C577      1.0  0.66629  0.43507  0.54996  1.0000
  H   H570      1.0  0.55745  0.44745  0.08538  1.0000
  H   H571      1.0  0.69188  0.48442  0.54516  1.0000
  C   C578      1.0  0.56011  0.35210  0.48341  1.0000
  C   C579      1.0  0.55161  0.36036  0.46188  1.0000
  H   H572      1.0  0.72325  0.25368  0.66104  1.0000
  S   S210      1.0  0.50188  0.35317  0.93652  1.0000
  C   C580      1.0  0.61591  0.39581  0.76506  1.0000
  C   C581      1.0  0.60335  0.38005  0.77572  1.0000
  C   C582      1.0  0.58933  0.37182  0.75182  1.0000
  C   C583      1.0  0.58778  0.37954  0.71757  1.0000
  C   C584      1.0  0.59995  0.39565  0.70786  1.0000
  C   C585      1.0  0.61403  0.40371  0.73141  1.0000
  H   H573      1.0  0.60477  0.37388  0.80177  1.0000
  H   H574      1.0  0.58003  0.35932  0.75932  1.0000
  H   H575      1.0  0.59875  0.40168  0.68144  1.0000
  H   H576      1.0  0.62353  0.41590  0.72310  1.0000
  S   S211      1.0  0.67940  0.48969  0.78838  1.0000
  S   S212      1.0  0.60812  0.48916  0.98187  1.0000
  C   C586      1.0  0.53513  0.37257  0.74487  1.0000
  C   C587      1.0  0.49921  0.33710  0.81004  1.0000
  H   H577      1.0  0.62037  0.46662  0.77988  1.0000
  H   H578      1.0  0.55403  0.37947  0.37758  1.0000
  H   H579      1.0  0.73343  0.46528  0.73711  1.0000
  N   N50       1.0  0.63148  0.40583  0.24711  1.0000
  C   C588      1.0  0.64152  0.39745  0.25958  1.0000
  C   C589      1.0  0.61479  0.39671  0.23927  1.0000
  C   C590      1.0  0.63497  0.37943  0.26373  1.0000
  C   C591      1.0  0.60781  0.37868  0.24316  1.0000
  C   C592      1.0  0.61800  0.37002  0.25547  1.0000
  C   C593      1.0  0.63824  0.42479  0.24515  1.0000
  H   H580      1.0  0.65453  0.40470  0.26780  1.0000
  H   H581      1.0  0.60663  0.40341  0.23115  1.0000
  H   H582      1.0  0.64284  0.37295  0.27504  1.0000
  H   H583      1.0  0.59442  0.37157  0.23843  1.0000
  H   H584      1.0  0.61259  0.35613  0.26000  1.0000
  H   H585      1.0  0.65208  0.43015  0.24081  1.0000
  H   H586      1.0  0.63255  0.42936  0.22110  1.0000
  H   H587      1.0  0.63560  0.43030  0.27200  1.0000
  N   N51       1.0  0.62617  0.37848  0.67368  1.0000
  C   C594      1.0  0.63258  0.37481  0.70676  1.0000
  C   C595      1.0  0.61148  0.36688  0.65846  1.0000
  C   C596      1.0  0.62403  0.35935  0.72596  1.0000
  C   C597      1.0  0.60263  0.35128  0.67686  1.0000
  C   C598      1.0  0.60892  0.34754  0.71089  1.0000
  C   C599      1.0  0.63536  0.39479  0.65421  1.0000
  H   H588      1.0  0.64410  0.38409  0.71913  1.0000
  H   H589      1.0  0.60617  0.36989  0.63269  1.0000
  H   H590      1.0  0.62888  0.35680  0.75285  1.0000
  H   H591      1.0  0.59064  0.34247  0.66546  1.0000
  H   H592      1.0  0.60191  0.33570  0.72594  1.0000
  H   H593      1.0  0.64621  0.39393  0.63859  1.0000
  C   C600      1.0  0.54939  0.37750  0.40729  1.0000
  H   H594      1.0  0.64022  0.40571  0.67487  1.0000
  H   H595      1.0  0.53049  0.37625  0.09274  1.0000
  C   C601      1.0  0.65853  0.48769  0.89414  1.0000
  H   H596      1.0  0.57864  0.40659  0.04498  1.0000
  C   C602      1.0  0.55490  0.38955  0.06797  1.0000
  C   C603      1.0  0.56448  0.42076  0.06858  1.0000
  H   H597      1.0  0.55674  0.37773  0.06075  1.0000
  H   H598      1.0  0.53044  0.29367  0.51429  1.0000
  H   H599      1.0  0.66416  0.46948  0.85768  1.0000
  H   H600      1.0  0.53700  0.28314  0.63854  1.0000
  H   H601      1.0  0.51122  0.32897  0.56646  1.0000
  S   S213      1.0  0.51011  0.38506  0.01587  1.0000
  H   H602      1.0  0.62208  0.41930  0.86414  1.0000
  C   C604      1.0  0.62166  0.43216  0.86494  1.0000
  H   H603      1.0  0.66690  0.43551  0.48855  1.0000
  H   H604      1.0  0.72163  0.25926  0.25603  1.0000
  H   H605      1.0  0.51370  0.38584  0.85483  1.0000
  C   C605      1.0  0.61634  0.43818  0.89751  1.0000
  C   C606      1.0  0.61590  0.45473  0.89788  1.0000
  C   C607      1.0  0.57639  0.35392  0.47329  1.0000
  H   H606      1.0  0.62064  0.47805  0.86649  1.0000
  H   H607      1.0  0.74267  0.47249  0.45013  1.0000
  C   C608      1.0  0.54882  0.26645  0.33291  1.0000
  Fe  Fe108     1.0  0.63613  0.49729  0.98740  1.0000
  C   C609      1.0  0.51157  0.35186  0.21190  1.0000
  H   H608      1.0  0.51630  0.46659  0.01971  1.0000
  H   H609      1.0  0.59676  0.36592  0.43433  1.0000
  N   N52       1.0  0.62622  0.45920  0.83402  1.0000
  C   C610      1.0  0.62080  0.46510  0.86564  1.0000
  C   C611      1.0  0.63112  0.47010  0.80022  1.0000
  N   N53       1.0  0.66457  0.49432  0.40852  1.0000
  H   H610      1.0  0.51618  0.35563  0.24057  1.0000
  C   C612      1.0  0.49929  0.34232  0.13756  1.0000
  C   C613      1.0  0.51098  0.33905  0.87387  1.0000
  C   C614      1.0  0.52347  0.38246  0.84176  1.0000
  H   H611      1.0  0.51351  0.38131  0.78523  1.0000
  C   C615      1.0  0.55492  0.25434  0.34802  1.0000
  H   H612      1.0  0.62886  0.47529  0.24118  1.0000
  H   H613      1.0  0.62849  0.47918  0.17121  1.0000
  C   C616      1.0  0.50161  0.48015  0.04275  1.0000
  C   C617      1.0  0.54664  0.43554  0.09336  1.0000
  C   C618      1.0  0.51305  0.33007  0.50517  1.0000
  Fe  Fe109     1.0  0.49994  0.40547  0.00255  1.0000
  H   H614      1.0  0.65902  0.42129  0.55112  1.0000
  C   C619      1.0  0.51758  0.32338  0.47216  1.0000
  H   H615      1.0  0.63536  0.48410  0.80773  1.0000
  H   H616      1.0  0.53793  0.26616  0.43355  1.0000
  H   H617      1.0  0.51612  0.26488  0.72563  1.0000
  H   H618      1.0  0.53541  0.43527  0.07687  1.0000
  S   S214      1.0  0.65180  0.47740  0.11184  1.0000
  C   C620      1.0  0.51505  0.32393  0.54140  1.0000
  C   C621      1.0  0.50203  0.35905  0.15068  1.0000
  N   N54       1.0  0.53524  0.37475  0.78619  1.0000
  H   H619      1.0  0.53695  0.47920  0.96986  1.0000
  C   C622      1.0  0.54741  0.37230  0.80809  1.0000
  H   H620      1.0  0.56498  0.25850  0.36897  1.0000
  C   C623      1.0  0.54772  0.37463  0.84752  1.0000
  C   C624      1.0  0.54057  0.49200  0.98440  1.0000
  H   H621      1.0  0.54002  0.38539  0.73089  1.0000
  S   S215      1.0  0.49856  0.33187  0.76080  1.0000
  H   H622      1.0  0.51933  0.32878  0.82490  1.0000
  H   H623      1.0  0.49894  0.26301  0.35333  1.0000
  C   C625      1.0  0.52430  0.31055  0.47577  1.0000
  C   C626      1.0  0.73758  0.44332  0.76003  1.0000
  S   S216      1.0  0.60596  0.47295  0.06839  1.0000
  C   C627      1.0  0.50826  0.36374  0.18788  1.0000
  H   H624      1.0  0.65335  0.47851  0.91671  1.0000
  C   C628      1.0  0.52115  0.31063  0.54491  1.0000
  C   C629      1.0  0.66470  0.48260  0.86074  1.0000
  H   H625      1.0  0.65697  0.48704  0.46578  1.0000
  H   H626      1.0  0.53531  0.38098  0.89507  1.0000
  C   C630      1.0  0.71393  0.47768  0.83514  1.0000
  C   C631      1.0  0.71740  0.46314  0.84521  1.0000
  C   C632      1.0  0.50227  0.33031  0.16188  1.0000
  C   C633      1.0  0.54017  0.38871  0.08585  1.0000
  H   H627      1.0  0.63057  0.43809  0.80799  1.0000
  C   C634      1.0  0.73362  0.46340  0.84068  1.0000
  H   H628      1.0  0.67414  0.46503  0.23245  1.0000
  H   H629      1.0  0.55048  0.39015  0.41966  1.0000
  H   H630      1.0  0.68425  0.47010  0.60789  1.0000
  S   S217      1.0  0.51922  0.30429  0.33401  1.0000
  C   C635      1.0  0.66387  0.47026  0.17969  1.0000
  C   C636      1.0  0.66410  0.46799  0.21933  1.0000
  H   H631      1.0  0.53586  0.36876  0.40550  1.0000
  H   H632      1.0  0.55678  0.36826  0.79518  1.0000
  H   H633      1.0  0.57414  0.43320  0.06179  1.0000
  C   C637      1.0  0.53565  0.37974  0.86439  1.0000
  S   S218      1.0  0.51098  0.31903  0.22947  1.0000
  H   H634      1.0  0.64195  0.46845  0.78601  1.0000
  S   S219      1.0  0.65137  0.46739  0.29203  1.0000
  C   C638      1.0  0.65153  0.46985  0.24182  1.0000
  C   C639      1.0  0.65108  0.47434  0.16191  1.0000
  C   C640      1.0  0.63839  0.47602  0.18439  1.0000
  S   S220      1.0  0.49695  0.37428  0.12295  1.0000
  C   C641      1.0  0.63866  0.47382  0.22411  1.0000
  C   C642      1.0  0.53777  0.40405  0.09407  1.0000
  H   H635      1.0  0.51038  0.37661  0.19846  1.0000
  N   N55       1.0  0.54981  0.41978  0.08523  1.0000
  C   C643      1.0  0.51073  0.33449  0.83517  1.0000
  C   C644      1.0  0.56717  0.40568  0.05927  1.0000
  N   N56       1.0  0.72633  0.49211  0.82107  1.0000
  C   C645      1.0  0.65965  0.49376  0.37134  1.0000
  C   C646      1.0  0.51761  0.25840  0.62530  1.0000
  N   N57       1.0  0.52624  0.49332  0.00464  1.0000
  H   H636      1.0  0.52214  0.36501  0.73429  1.0000
  C   C647      1.0  0.52340  0.37981  0.80249  1.0000
  Fe  Fe110     1.0  0.51758  0.32416  0.72784  1.0000
  Fe  Fe111     1.0  0.63427  0.48255  0.06829  1.0000
  C   C648      1.0  0.53372  0.26926  0.63697  1.0000
  S   S221      1.0  0.51452  0.29836  0.70071  1.0000
  H   H637      1.0  0.51989  0.33686  0.89304  1.0000
  H   H638      1.0  0.56098  0.25533  0.74976  1.0000
  C   C649      1.0  0.54550  0.26219  0.64716  1.0000
  H   H639      1.0  0.61188  0.45955  0.92315  1.0000
  H   H640      1.0  0.70750  0.45154  0.85556  1.0000
  H   H641      1.0  0.61256  0.43008  0.92250  1.0000
  C   C650      1.0  0.50000  0.34662  0.88791  1.0000
  H   H642      1.0  0.65249  0.46951  0.43259  1.0000
  H   H643      1.0  0.70120  0.47730  0.83812  1.0000
  C   C651      1.0  0.52243  0.25597  0.72954  1.0000
  H   H644      1.0  0.50778  0.33995  0.50270  1.0000
  H   H645      1.0  0.55102  0.49360  0.00484  1.0000
  C   C652      1.0  0.74225  0.49241  0.81615  1.0000
  H   H646      1.0  0.69456  0.25352  0.28834  1.0000
  H   H647      1.0  0.73630  0.45195  0.84708  1.0000
  H   H648      1.0  0.64003  0.48286  0.43196  1.0000
  C   C653      1.0  0.67157  0.49462  0.83158  1.0000
  H   H649      1.0  0.64723  0.48498  0.36214  1.0000
  H   H650      1.0  0.49976  0.31728  0.15180  1.0000
  Fe  Fe112     1.0  0.60881  0.49858  0.04179  1.0000
  C   C654      1.0  0.49998  0.49613  0.04632  1.0000
  C   C655      1.0  0.74378  0.45516  0.33034  1.0000
  C   C656      1.0  0.74271  0.45985  0.74420  1.0000
  C   C657      1.0  0.50567  0.25675  0.37003  1.0000
  H   H651      1.0  0.49450  0.33846  0.10907  1.0000
  C   C658      1.0  0.54765  0.25052  0.74318  1.0000
  C   C659      1.0  0.50233  0.59286  0.19012  1.0000
  H   H652      1.0  0.69572  0.52273  0.33446  1.0000
  H   H653      1.0  0.52161  0.67609  0.79809  1.0000
  C   C660      1.0  0.52468  0.50902  0.00790  1.0000
  H   H654      1.0  0.51405  0.62456  0.44450  1.0000
  S   S222      1.0  0.59261  0.51294  0.06416  1.0000
  S   S223      1.0  0.63722  0.50889  0.04599  1.0000
  C   C661      1.0  0.51075  0.67123  0.77799  1.0000
  S   S224      1.0  0.52225  0.61188  0.08685  1.0000
  Fe  Fe113     1.0  0.49988  0.55212  0.03255  1.0000
  H   H655      1.0  0.52394  0.62245  0.82256  1.0000
  Fe  Fe114     1.0  0.53518  0.56669  0.00180  1.0000
  S   S225      1.0  0.52497  0.56545  0.06093  1.0000
  S   S226      1.0  0.55631  0.55795  0.98246  1.0000
  C   C662      1.0  0.50921  0.59414  0.15348  1.0000
  H   H656      1.0  0.51470  0.63586  0.13509  1.0000
  H   H657      1.0  0.66702  0.52978  0.87197  1.0000
  Fe  Fe115     1.0  0.52075  0.58982  0.04629  1.0000
  C   C663      1.0  0.49778  0.61120  0.80569  1.0000
  C   C664      1.0  0.63254  0.54269  0.98698  1.0000
  S   S227      1.0  0.53306  0.59252  0.98845  1.0000
  S   S228      1.0  0.51001  0.55144  0.97475  1.0000
  C   C665      1.0  0.68053  0.50482  0.41963  1.0000
  C   C666      1.0  0.69193  0.51530  0.39330  1.0000
  H   H658      1.0  0.66678  0.50345  0.31471  1.0000
  C   C667      1.0  0.61425  0.56391  0.98704  1.0000
  H   H659      1.0  0.51139  0.58327  0.14117  1.0000
  H   H660      1.0  0.51311  0.66237  0.75711  1.0000
  C   C668      1.0  0.51157  0.61330  0.82994  1.0000
  H   H661      1.0  0.71262  0.50861  0.82792  1.0000
  H   H662      1.0  0.62197  0.57457  0.06793  1.0000
  Fe  Fe116     1.0  0.50708  0.57688  0.96500  1.0000
  H   H663      1.0  0.67775  0.52100  0.81422  1.0000
  H   H664      1.0  0.49913  0.58088  0.20559  1.0000
  H   H665      1.0  0.61661  0.56422  0.92600  1.0000
  C   C669      1.0  0.65921  0.50476  0.89820  1.0000
  H   H666      1.0  0.62948  0.54217  0.04749  1.0000
  H   H667      1.0  0.52035  0.60522  0.88163  1.0000
  C   C670      1.0  0.62884  0.54877  0.95264  1.0000
  C   C671      1.0  0.58112  0.52372  0.03997  1.0000
  C   C672      1.0  0.57123  0.53057  0.06129  1.0000
  C   C673      1.0  0.56319  0.54068  0.04406  1.0000
  C   C674      1.0  0.56510  0.54424  0.00525  1.0000
  C   C675      1.0  0.57454  0.53693  0.98368  1.0000
  C   C676      1.0  0.58241  0.52663  0.00084  1.0000
  H   H668      1.0  0.57010  0.52838  0.09158  1.0000
  H   H669      1.0  0.55593  0.54614  0.06104  1.0000
  H   H670      1.0  0.57596  0.53946  0.95354  1.0000
  H   H671      1.0  0.58991  0.52141  0.98400  1.0000
  H   H672      1.0  0.60950  0.55207  0.07779  1.0000
  H   H673      1.0  0.60019  0.56472  0.05245  1.0000
  H   H674      1.0  0.51009  0.68255  0.76246  1.0000
  C   C677      1.0  0.61964  0.55947  0.95256  1.0000
  H   H675      1.0  0.60694  0.57208  0.98675  1.0000
  C   C678      1.0  0.62681  0.54722  0.02091  1.0000
  S   S229      1.0  0.65152  0.51246  0.93819  1.0000
  N   N58       1.0  0.61767  0.55759  0.02057  1.0000
  H   H676      1.0  0.63978  0.53446  0.98715  1.0000
  S   S230      1.0  0.50102  0.62412  0.76401  1.0000
  C   C679      1.0  0.67068  0.50418  0.34432  1.0000
  C   C680      1.0  0.67241  0.51158  0.83631  1.0000
  C   C681      1.0  0.50958  0.60354  0.86354  1.0000
  H   H677      1.0  0.63314  0.54514  0.92624  1.0000
  C   C682      1.0  0.61213  0.56256  0.05645  1.0000
  C   C683      1.0  0.51365  0.60962  0.13327  1.0000
  H   H678      1.0  0.50651  0.64800  0.83229  1.0000
  H   H679      1.0  0.51043  0.61505  0.32414  1.0000
  C   C684      1.0  0.49949  0.60689  0.20679  1.0000
  H   H680      1.0  0.70466  0.52331  0.40212  1.0000
  H   H681      1.0  0.49683  0.72015  0.30361  1.0000
  C   C685      1.0  0.51115  0.62377  0.15028  1.0000
  C   C686      1.0  0.72221  0.50687  0.80900  1.0000
  H   H682      1.0  0.50204  0.63336  0.19916  1.0000
  H   H683      1.0  0.49836  0.65738  0.50393  1.0000
  H   H684      1.0  0.53353  0.52040  0.99424  1.0000
  C   C687      1.0  0.50396  0.62238  0.18663  1.0000
  H   H685      1.0  0.68465  0.50485  0.44886  1.0000
  C   C688      1.0  0.68693  0.51496  0.35540  1.0000
  H   H686      1.0  0.54528  0.50215  0.96233  1.0000
  C   C689      1.0  0.51161  0.51067  0.02892  1.0000
  H   H687      1.0  0.52513  0.63311  0.37981  1.0000
  H   H688      1.0  0.51057  0.52319  0.03186  1.0000
  H   H689      1.0  0.50132  0.71536  0.68054  1.0000
  C   C690      1.0  0.66628  0.51658  0.86914  1.0000
  H   H690      1.0  0.73344  0.51917  0.80983  1.0000
  H   H691      1.0  0.50519  0.72844  0.40136  1.0000
  C   C691      1.0  0.50578  0.61135  0.35268  1.0000
  C   C692      1.0  0.50764  0.61661  0.42035  1.0000
  H   H692      1.0  0.49574  0.68355  0.58682  1.0000
  H   H693      1.0  0.71689  0.50455  0.77965  1.0000
  C   C693      1.0  0.51401  0.62148  0.38390  1.0000
  H   H694      1.0  0.50271  0.71547  0.58731  1.0000
  S   S231      1.0  0.49499  0.57615  0.02174  1.0000
  N   N59       1.0  0.49515  0.66182  0.79832  1.0000
  C   C694      1.0  0.49508  0.65015  0.82555  1.0000
  H   H695      1.0  0.55871  0.93327  0.89625  1.0000
  Fe  Fe117     1.0  0.51368  0.87670  0.02684  1.0000
  S   S232      1.0  0.51606  0.90411  0.01424  1.0000
  C   C695      1.0  0.50059  0.82531  0.17275  1.0000
  Fe  Fe118     1.0  0.52119  0.87063  0.94301  1.0000
  S   S233      1.0  0.52400  0.89746  0.92500  1.0000
  S   S234      1.0  0.52219  0.84875  0.90446  1.0000
  Fe  Fe119     1.0  0.53871  0.90715  0.97947  1.0000
  S   S235      1.0  0.56331  0.93152  0.97999  1.0000
  C   C696      1.0  0.51150  0.84082  0.11341  1.0000
  S   S236      1.0  0.53775  0.88037  0.99555  1.0000
  H   H696      1.0  0.50906  0.77948  0.18844  1.0000
  H   H697      1.0  0.51637  0.81823  0.85891  1.0000
  H   H698      1.0  0.50946  0.86637  0.84711  1.0000
  H   H699      1.0  0.57258  0.93577  0.85619  1.0000
  H   H700      1.0  0.54593  0.87428  0.84727  1.0000
  H   H701      1.0  0.58094  0.93986  0.90375  1.0000
  H   H702      1.0  0.50488  0.80939  0.79363  1.0000
  C   C697      1.0  0.51366  0.84292  0.85777  1.0000
  H   H703      1.0  0.50906  0.78990  0.47594  1.0000
  H   H704      1.0  0.55896  0.86430  0.90051  1.0000
  C   C698      1.0  0.50177  0.85091  0.11811  1.0000
  H   H705      1.0  0.57743  0.88576  0.94713  1.0000
  H   H706      1.0  0.51965  0.84295  0.08914  1.0000
  C   C699      1.0  0.57553  0.99090  0.98480  1.0000
  C   C700      1.0  0.58820  0.98439  0.97936  1.0000
  C   C701      1.0  0.58420  0.96627  0.97789  1.0000
  C   C702      1.0  0.56748  0.95431  0.98149  1.0000
  C   C703      1.0  0.55478  0.96082  0.98632  1.0000
  C   C704      1.0  0.55879  0.97893  0.98814  1.0000
  H   H707      1.0  0.51877  0.82074  0.13693  1.0000
  H   H708      1.0  0.59420  0.96150  0.97425  1.0000
  H   H709      1.0  0.54186  0.95191  0.98910  1.0000
  H   H710      1.0  0.54881  0.98368  0.99219  1.0000
  N   N60       1.0  0.56774  0.91306  0.88928  1.0000
  C   C705      1.0  0.57501  0.90764  0.91873  1.0000
  C   C706      1.0  0.55744  0.90132  0.86375  1.0000
  C   C707      1.0  0.57204  0.89006  0.92313  1.0000
  C   C708      1.0  0.55436  0.88366  0.86706  1.0000
  C   C709      1.0  0.56169  0.87804  0.89702  1.0000
  C   C710      1.0  0.57014  0.93138  0.88603  1.0000
  H   H711      1.0  0.58286  0.91685  0.93957  1.0000
  H   H712      1.0  0.55126  0.90552  0.84108  1.0000
  C   C711      1.0  0.51096  0.82820  0.14065  1.0000
  S   S237      1.0  0.50245  0.86768  0.08586  1.0000
  H   H713      1.0  0.60113  0.99330  0.97680  1.0000
  C   C712      1.0  0.51235  0.82686  0.84218  1.0000
  C   C713      1.0  0.50585  0.82181  0.80511  1.0000
  C   C714      1.0  0.50851  0.85397  0.83565  1.0000
  S   S238      1.0  0.50081  0.80950  0.20673  1.0000
  C   C715      1.0  0.50092  0.83296  0.78279  1.0000
  C   C716      1.0  0.50237  0.84908  0.79830  1.0000
  H   H714      1.0  0.51342  0.75294  0.20922  1.0000
  C   C717      1.0  0.49847  0.76715  0.19009  1.0000
  Fe  Fe120     1.0  0.50139  0.89280  0.96133  1.0000
  H   H715      1.0  0.49799  0.75473  0.40435  1.0000
  H   H716      1.0  0.50354  0.82493  0.47358  1.0000
  S   S239      1.0  0.49741  0.86538  0.97537  1.0000
  H   H717      1.0  0.50133  0.84450  0.49068  1.0000
  H   H718      1.0  0.49673  0.79008  0.53955  1.0000
  S   S240      1.0  0.49615  0.78926  0.39994  1.0000
  C   C718      1.0  0.49592  0.78806  0.47812  1.0000
  H   H719      1.0  0.49864  0.85784  0.78130  1.0000
  C   C719      1.0  0.50090  0.75228  0.20172  1.0000
  C   C720      1.0  0.49494  0.83023  0.48773  1.0000
  H   H720      1.0  0.76478  0.23656  0.27508  1.0000
  C   C721      1.0  0.75212  0.23014  0.28553  1.0000
  H   H721      1.0  0.75793  0.22153  0.70593  1.0000
  C   C722      1.0  0.75810  0.24647  0.68940  1.0000
  H   H722      1.0  0.74916  0.20505  0.26248  1.0000
  C   C723      1.0  0.75038  0.22855  0.69591  1.0000
  Fe  Fe121     1.0  0.81293  0.46255  0.74296  1.0000
  S   S241      1.0  0.83748  0.47574  0.71230  1.0000
  S   S242      1.0  0.79354  0.47499  0.73924  1.0000
  Fe  Fe122     1.0  0.82207  0.43212  0.76523  1.0000
  S   S243      1.0  0.84652  0.44264  0.73495  1.0000
  S   S244      1.0  0.81844  0.40773  0.79708  1.0000
  Fe  Fe123     1.0  0.84942  0.46791  0.76316  1.0000
  C   C724      1.0  0.86261  0.28783  0.80827  1.0000
  Fe  Fe124     1.0  0.83229  0.44923  0.68755  1.0000
  S   S245      1.0  0.83239  0.43905  0.62708  1.0000
  S   S246      1.0  0.82528  0.45697  0.79536  1.0000
  S   S247      1.0  0.80737  0.43647  0.71625  1.0000
  Fe  Fe125     1.0  0.81155  0.31286  0.62579  1.0000
  S   S248      1.0  0.78489  0.30184  0.64647  1.0000
  S   S249      1.0  0.81419  0.32266  0.56458  1.0000
  Fe  Fe126     1.0  0.82575  0.31620  0.70899  1.0000
  S   S250      1.0  0.79997  0.30576  0.73435  1.0000
  S   S251      1.0  0.85039  0.32744  0.74314  1.0000
  Fe  Fe127     1.0  0.79354  0.28605  0.68660  1.0000
  Fe  Fe128     1.0  0.79376  0.32247  0.69162  1.0000
  S   S252      1.0  0.77980  0.34031  0.69932  1.0000
  S   S253      1.0  0.81996  0.29557  0.66318  1.0000
  S   S254      1.0  0.81989  0.33433  0.66952  1.0000
  Fe  Fe129     1.0  0.80887  0.44191  0.34858  1.0000
  S   S255      1.0  0.82286  0.47037  0.35765  1.0000
  S   S256      1.0  0.78097  0.42764  0.33754  1.0000
  Fe  Fe130     1.0  0.84026  0.43422  0.36336  1.0000
  S   S257      1.0  0.85672  0.46211  0.37427  1.0000
  S   S258      1.0  0.84956  0.41244  0.36410  1.0000
  Fe  Fe131     1.0  0.83461  0.46247  0.40831  1.0000
  S   S259      1.0  0.83482  0.47522  0.46599  1.0000
  Fe  Fe132     1.0  0.84356  0.46714  0.32251  1.0000
  S   S260      1.0  0.85518  0.48516  0.27250  1.0000
  S   S261      1.0  0.81932  0.43417  0.40082  1.0000
  S   S262      1.0  0.82846  0.43915  0.31017  1.0000
  Fe  Fe133     1.0  0.79930  0.32008  0.30033  1.0000
  S   S263      1.0  0.82490  0.31865  0.30311  1.0000
  S   S264      1.0  0.79370  0.34435  0.29891  1.0000
  Fe  Fe134     1.0  0.78057  0.28077  0.30174  1.0000
  S   S265      1.0  0.80487  0.27631  0.30421  1.0000
  Fe  Fe135     1.0  0.81336  0.29818  0.34730  1.0000
  S   S266      1.0  0.82771  0.29724  0.40159  1.0000
  Fe  Fe136     1.0  0.81427  0.29734  0.25969  1.0000
  S   S267      1.0  0.82784  0.29386  0.20635  1.0000
  S   S268      1.0  0.78864  0.30129  0.34744  1.0000
  S   S269      1.0  0.78922  0.30004  0.25435  1.0000
  Fe  Fe137     1.0  0.88552  0.33962  0.95715  1.0000
  S   S270      1.0  0.90002  0.33511  0.00765  1.0000
  S   S271      1.0  0.86614  0.31971  0.91814  1.0000
  Fe  Fe138     1.0  0.89706  0.37765  0.97481  1.0000
  S   S272      1.0  0.91211  0.37673  0.02648  1.0000
  S   S273      1.0  0.89338  0.40079  0.95101  1.0000
  Fe  Fe139     1.0  0.92134  0.36001  0.99020  1.0000
  S   S274      1.0  0.94922  0.36340  0.98591  1.0000
  Fe  Fe140     1.0  0.88994  0.35229  0.04109  1.0000
  S   S275      1.0  0.88039  0.35196  0.10212  1.0000
  S   S276      1.0  0.90750  0.36264  0.93716  1.0000
  S   S277      1.0  0.87431  0.35511  0.99202  1.0000
  Fe  Fe141     1.0  0.93821  0.48570  0.02723  1.0000
  S   S278      1.0  0.95121  0.46785  0.01154  1.0000
  S   S279      1.0  0.91034  0.47805  0.03355  1.0000
  C   C725      1.0  0.97123  0.37660  0.99054  1.0000
  H   H723      1.0  0.80295  0.46974  0.60666  1.0000
  C   C726      1.0  0.91063  0.41962  0.96252  1.0000
  C   C727      1.0  0.90915  0.43565  0.95902  1.0000
  C   C728      1.0  0.92214  0.45072  0.97204  1.0000
  C   C729      1.0  0.93654  0.44967  0.98891  1.0000
  C   C730      1.0  0.93841  0.43373  0.99071  1.0000
  C   C731      1.0  0.92545  0.41868  0.97731  1.0000
  H   H724      1.0  0.89772  0.43630  0.94747  1.0000
  H   H725      1.0  0.92088  0.46309  0.96971  1.0000
  H   H726      1.0  0.94954  0.43291  0.00382  1.0000
  H   H727      1.0  0.92679  0.40634  0.97927  1.0000
  C   C732      1.0  0.84185  0.31034  0.17696  1.0000
  C   C733      1.0  0.84685  0.30564  0.14203  1.0000
  C   C734      1.0  0.85837  0.31816  0.11845  1.0000
  C   C735      1.0  0.86529  0.33557  0.12983  1.0000
  C   C736      1.0  0.86039  0.34025  0.16496  1.0000
  C   C737      1.0  0.84867  0.32777  0.18824  1.0000
  H   H728      1.0  0.84173  0.29220  0.13301  1.0000
  H   H729      1.0  0.86203  0.31430  0.09168  1.0000
  H   H730      1.0  0.86568  0.35363  0.17423  1.0000
  H   H731      1.0  0.84502  0.33163  0.21502  1.0000
  C   C738      1.0  0.86854  0.48250  0.23634  1.0000
  H   H732      1.0  0.89819  0.45319  0.87565  1.0000
  C   C739      1.0  0.75814  0.43838  0.66465  1.0000
  C   C740      1.0  0.80220  0.46577  0.63685  1.0000
  C   C741      1.0  0.79728  0.44264  0.24809  1.0000
  C   C742      1.0  0.83474  0.39426  0.34137  1.0000
  C   C743      1.0  0.81847  0.39360  0.33391  1.0000
  C   C744      1.0  0.80613  0.37840  0.31934  1.0000
  C   C745      1.0  0.80999  0.36379  0.31230  1.0000
  C   C746      1.0  0.82642  0.36466  0.31843  1.0000
  C   C747      1.0  0.83879  0.37988  0.33306  1.0000
  H   H733      1.0  0.81515  0.40454  0.34066  1.0000
  H   H734      1.0  0.79342  0.37778  0.31463  1.0000
  H   H735      1.0  0.82955  0.35354  0.31262  1.0000
  H   H736      1.0  0.85139  0.38040  0.33863  1.0000
  C   C748      1.0  0.81597  0.31252  0.52113  1.0000
  C   C749      1.0  0.82808  0.30522  0.51620  1.0000
  C   C750      1.0  0.83124  0.30018  0.47963  1.0000
  C   C751      1.0  0.82213  0.30206  0.44768  1.0000
  C   C752      1.0  0.80949  0.30861  0.45294  1.0000
  C   C753      1.0  0.80670  0.31416  0.48924  1.0000
  H   H737      1.0  0.83556  0.30418  0.54026  1.0000
  H   H738      1.0  0.84102  0.29511  0.47602  1.0000
  H   H739      1.0  0.80210  0.30979  0.42891  1.0000
  H   H740      1.0  0.79739  0.31990  0.49257  1.0000
  C   C754      1.0  0.85394  0.32604  0.79259  1.0000
  C   C755      1.0  0.84155  0.31514  0.81653  1.0000
  C   C756      1.0  0.84541  0.31353  0.85503  1.0000
  C   C757      1.0  0.86151  0.32312  0.87028  1.0000
  C   C758      1.0  0.87370  0.33443  0.84661  1.0000
  C   C759      1.0  0.86998  0.33569  0.80793  1.0000
  H   H741      1.0  0.82917  0.30760  0.80516  1.0000
  H   H742      1.0  0.83592  0.30467  0.87306  1.0000
  H   H743      1.0  0.88616  0.34179  0.85783  1.0000
  H   H744      1.0  0.87967  0.34413  0.78967  1.0000
  C   C760      1.0  0.83343  0.44957  0.58270  1.0000
  C   C761      1.0  0.81558  0.26593  0.75031  1.0000
  C   C762      1.0  0.79106  0.47380  0.43661  1.0000
  C   C763      1.0  0.83445  0.46504  0.51051  1.0000
  C   C764      1.0  0.83185  0.44746  0.51315  1.0000
  C   C765      1.0  0.83130  0.43979  0.54901  1.0000
  C   C766      1.0  0.76693  0.43854  0.33461  1.0000
  H   H745      1.0  0.90580  0.48993  0.83574  1.0000
  H   H746      1.0  0.83033  0.43979  0.48755  1.0000
  H   H747      1.0  0.82933  0.42621  0.55062  1.0000
  H   H748      1.0  0.75873  0.47827  0.82174  1.0000
  H   H749      1.0  0.78763  0.44559  0.26286  1.0000
  H   H750      1.0  0.86043  0.29231  0.22770  1.0000
  H   H751      1.0  0.80713  0.39269  0.41142  1.0000
  H   H752      1.0  0.81790  0.47720  0.27278  1.0000
  C   C767      1.0  0.96467  0.38848  0.90702  1.0000
  C   C768      1.0  0.80778  0.38906  0.76971  1.0000
  C   C769      1.0  0.81314  0.37513  0.77064  1.0000
  C   C770      1.0  0.80473  0.36013  0.74878  1.0000
  C   C771      1.0  0.79056  0.35884  0.72709  1.0000
  C   C772      1.0  0.78502  0.37265  0.72681  1.0000
  C   C773      1.0  0.79382  0.38788  0.74747  1.0000
  H   H753      1.0  0.82389  0.37604  0.78797  1.0000
  H   H754      1.0  0.80903  0.34949  0.74915  1.0000
  H   H755      1.0  0.77391  0.37158  0.71053  1.0000
  H   H756      1.0  0.78946  0.39848  0.74721  1.0000
  H   H757      1.0  0.79926  0.33482  0.38617  1.0000
  H   H758      1.0  0.77764  0.49091  0.43319  1.0000
  C   C774      1.0  0.83616  0.46718  0.58008  1.0000
  H   H759      1.0  0.78612  0.46412  0.33026  1.0000
  C   C775      1.0  0.87994  0.48726  0.84115  1.0000
  H   H760      1.0  0.74586  0.42363  0.78140  1.0000
  N   N61       1.0  0.78672  0.45064  0.64320  1.0000
  N   N62       1.0  0.90448  0.42720  0.09509  1.0000
  C   C776      1.0  0.89997  0.41249  0.07324  1.0000
  C   C777      1.0  0.89796  0.42667  0.13060  1.0000
  C   C778      1.0  0.88861  0.39670  0.08681  1.0000
  C   C779      1.0  0.88666  0.41103  0.14517  1.0000
  C   C780      1.0  0.88205  0.39595  0.12311  1.0000
  H   H761      1.0  0.83832  0.47505  0.60555  1.0000
  H   H762      1.0  0.90147  0.43839  0.14786  1.0000
  H   H763      1.0  0.88505  0.38504  0.06947  1.0000
  H   H764      1.0  0.88159  0.41060  0.17343  1.0000
  H   H765      1.0  0.87348  0.38362  0.13402  1.0000
  N   N63       1.0  0.81143  0.45568  0.23539  1.0000
  N   N64       1.0  0.80572  0.36410  0.61358  1.0000
  C   C781      1.0  0.82188  0.36793  0.60187  1.0000
  C   C782      1.0  0.80204  0.37514  0.63749  1.0000
  C   C783      1.0  0.83475  0.38350  0.61298  1.0000
  C   C784      1.0  0.81461  0.39077  0.64932  1.0000
  C   C785      1.0  0.83103  0.39503  0.63663  1.0000
  C   C786      1.0  0.79245  0.34770  0.60174  1.0000
  H   H766      1.0  0.82488  0.35886  0.58400  1.0000
  H   H767      1.0  0.78936  0.37176  0.64785  1.0000
  H   H768      1.0  0.84754  0.38654  0.60349  1.0000
  H   H769      1.0  0.81171  0.39950  0.66841  1.0000
  H   H770      1.0  0.84083  0.40723  0.64531  1.0000
  H   H771      1.0  0.79390  0.34466  0.57153  1.0000
  H   H772      1.0  0.79319  0.33703  0.61937  1.0000
  H   H773      1.0  0.77968  0.34792  0.60523  1.0000
  C   C787      1.0  0.83509  0.37480  0.42796  1.0000
  C   C788      1.0  0.83823  0.35989  0.41940  1.0000
  C   C789      1.0  0.82527  0.34538  0.40439  1.0000
  H   H774      1.0  0.84535  0.38623  0.43853  1.0000
  H   H775      1.0  0.85066  0.35966  0.42377  1.0000
  H   H776      1.0  0.82760  0.33384  0.39687  1.0000
  H   H777      1.0  0.81121  0.38962  0.46090  1.0000
  H   H778      1.0  0.80795  0.25262  0.76003  1.0000
  C   C790      1.0  0.85712  0.44082  0.84884  1.0000
  C   C791      1.0  0.98482  0.42270  0.92297  1.0000
  C   C792      1.0  0.87428  0.44402  0.84602  1.0000
  S   S280      1.0  0.75312  0.26262  0.30725  1.0000
  C   C793      1.0  0.77654  0.47753  0.43201  1.0000
  Fe  Fe142     1.0  0.91643  0.49232  0.08954  1.0000
  C   C794      1.0  0.74614  0.46873  0.42214  1.0000
  N   N65       1.0  0.84663  0.35483  0.88229  1.0000
  C   C795      1.0  0.86214  0.36723  0.89041  1.0000
  H   H779      1.0  0.77143  0.40695  0.63456  1.0000
  C   C796      1.0  0.87186  0.37774  0.86175  1.0000
  C   C797      1.0  0.84964  0.36309  0.81664  1.0000
  C   C798      1.0  0.86559  0.37555  0.82458  1.0000
  C   C799      1.0  0.83671  0.34402  0.91297  1.0000
  H   H780      1.0  0.86715  0.36896  0.91916  1.0000
  H   H781      1.0  0.88422  0.38742  0.86851  1.0000
  H   H782      1.0  0.84476  0.36101  0.78770  1.0000
  H   H783      1.0  0.87309  0.38339  0.80189  1.0000
  H   H784      1.0  0.82692  0.33186  0.90179  1.0000
  C   C800      1.0  0.88895  0.49759  0.91799  1.0000
  C   C801      1.0  0.79526  0.42528  0.24337  1.0000
  C   C802      1.0  0.77167  0.41978  0.64090  1.0000
  C   C803      1.0  0.77284  0.45276  0.65746  1.0000
  S   S281      1.0  0.87511  0.48119  0.79253  1.0000
  S   S282      1.0  0.78006  0.25723  0.69782  1.0000
  C   C804      1.0  0.84019  0.35291  0.84610  1.0000
  N   N66       1.0  0.81947  0.37520  0.42177  1.0000
  C   C805      1.0  0.81625  0.39076  0.43174  1.0000
  H   H785      1.0  0.84492  0.34002  0.93225  1.0000
  C   C806      1.0  0.86874  0.32072  0.30141  1.0000
  C   C807      1.0  0.78614  0.43447  0.63390  1.0000
  C   C808      1.0  0.80935  0.34585  0.39862  1.0000
  C   C809      1.0  0.80663  0.36092  0.40765  1.0000
  H   H786      1.0  0.83060  0.35132  0.92960  1.0000
  H   H787      1.0  0.79431  0.36127  0.40207  1.0000
  H   H788      1.0  0.82796  0.40259  0.43015  1.0000
  H   H789      1.0  0.87527  0.33437  0.30800  1.0000
  H   H790      1.0  0.82787  0.34315  0.83955  1.0000
  N   N67       1.0  0.85059  0.44364  0.88236  1.0000
  H   H791      1.0  0.80836  0.27431  0.75563  1.0000
  C   C810      1.0  0.75994  0.46954  0.73849  1.0000
  H   H792      1.0  0.83105  0.45327  0.88011  1.0000
  C   C811      1.0  0.87252  0.49411  0.90416  1.0000
  H   H793      1.0  0.83534  0.46226  0.20903  1.0000
  C   C812      1.0  0.75981  0.44759  0.42435  1.0000
  C   C813      1.0  0.86086  0.45014  0.91327  1.0000
  H   H794      1.0  0.86796  0.45778  0.25521  1.0000
  C   C814      1.0  0.77409  0.44343  0.42847  1.0000
  H   H795      1.0  0.74641  0.41054  0.66291  1.0000
  H   H796      1.0  0.84913  0.43633  0.82386  1.0000
  H   H797      1.0  0.82512  0.43128  0.86280  1.0000
  H   H798      1.0  0.90518  0.41289  0.04515  1.0000
  H   H799      1.0  0.80330  0.48410  0.44135  1.0000
  H   H800      1.0  0.94379  0.39508  0.92413  1.0000
  H   H801      1.0  0.80662  0.40791  0.22269  1.0000
  C   C815      1.0  0.80784  0.42131  0.22555  1.0000
  H   H802      1.0  0.85585  0.45317  0.93931  1.0000
  C   C816      1.0  0.91688  0.44339  0.08060  1.0000
  H   H803      1.0  0.80094  0.45364  0.43820  1.0000
  H   H804      1.0  0.77617  0.44047  0.76981  1.0000
  H   H805      1.0  0.97792  0.35545  0.97199  1.0000
  C   C817      1.0  0.96736  0.41709  0.92730  1.0000
  H   H806      1.0  0.92966  0.44296  0.08147  1.0000
  H   H807      1.0  0.97708  0.49293  0.06168  1.0000
  C   C818      1.0  0.97777  0.39424  0.00151  1.0000
  H   H808      1.0  0.81340  0.46272  0.64406  1.0000
  H   H809      1.0  0.83133  0.26698  0.25322  1.0000
  H   H810      1.0  0.91376  0.44534  0.05081  1.0000
  H   H811      1.0  0.91712  0.45484  0.09732  1.0000
  S   S283      1.0  0.90231  0.47593  0.14009  1.0000
  C   C819      1.0  0.85956  0.30932  0.32933  1.0000
  H   H812      1.0  0.76386  0.48241  0.72670  1.0000
  C   C820      1.0  0.88932  0.47896  0.17670  1.0000
  N   N68       1.0  0.85122  0.28590  0.28393  1.0000
  C   C821      1.0  0.86796  0.48872  0.86619  1.0000
  C   C822      1.0  0.88293  0.46605  0.20444  1.0000
  C   C823      1.0  0.95727  0.39982  0.91954  1.0000
  C   C824      1.0  0.76693  0.44595  0.76273  1.0000
  C   C825      1.0  0.87262  0.46778  0.23403  1.0000
  H   H813      1.0  0.88609  0.45467  0.20330  1.0000
  C   C826      1.0  0.76118  0.46480  0.32867  1.0000
  C   C827      1.0  0.77275  0.45655  0.33122  1.0000
  C   C828      1.0  0.82387  0.45192  0.21801  1.0000
  H   H814      1.0  0.80291  0.47687  0.65544  1.0000
  C   C829      1.0  0.83652  0.47481  0.54422  1.0000
  C   C830      1.0  0.77210  0.46262  0.74774  1.0000
  C   C831      1.0  0.82224  0.43470  0.21266  1.0000
  H   H815      1.0  0.76573  0.47872  0.32563  1.0000
  H   H816      1.0  0.87590  0.32329  0.24243  1.0000
  C   C832      1.0  0.84150  0.26773  0.27381  1.0000
  H   H817      1.0  0.84455  0.28799  0.72234  1.0000
  H   H818      1.0  0.85531  0.48619  0.85599  1.0000
  H   H819      1.0  0.80174  0.47576  0.23794  1.0000
  C   C833      1.0  0.98263  0.36897  0.98041  1.0000
  C   C834      1.0  0.84566  0.28428  0.75143  1.0000
  C   C835      1.0  0.86918  0.31452  0.26474  1.0000
  H   H820      1.0  0.87947  0.44228  0.81904  1.0000
  H   H821      1.0  0.83233  0.43184  0.19970  1.0000
  H   H822      1.0  0.85886  0.31399  0.35785  1.0000
  H   H823      1.0  0.83873  0.48845  0.54252  1.0000
  H   H824      1.0  0.82755  0.43552  0.91272  1.0000
  H   H825      1.0  0.96919  0.40037  0.00952  1.0000
  C   C836      1.0  0.78976  0.45664  0.43485  1.0000
  H   H826      1.0  0.88623  0.45906  0.93577  1.0000
  H   H827      1.0  0.78425  0.41504  0.25469  1.0000
  H   H828      1.0  0.82214  0.26077  0.82225  1.0000
  C   C837      1.0  0.86122  0.29171  0.77021  1.0000
  H   H829      1.0  0.77326  0.46561  0.66442  1.0000
  H   H830      1.0  0.95698  0.37487  0.90235  1.0000
  H   H831      1.0  0.84319  0.28325  0.34167  1.0000
  H   H832      1.0  0.77307  0.43009  0.42571  1.0000
  H   H833      1.0  0.87189  0.30108  0.75578  1.0000
  C   C838      1.0  0.86042  0.29694  0.25657  1.0000
  C   C839      1.0  0.88478  0.45024  0.87768  1.0000
  H   H834      1.0  0.99264  0.43607  0.92962  1.0000
  H   H835      1.0  0.87442  0.29406  0.82362  1.0000
  C   C840      1.0  0.87807  0.45345  0.91148  1.0000
  N   N69       1.0  0.76119  0.46448  0.42590  1.0000
  C   C841      1.0  0.74952  0.42889  0.33596  1.0000
  C   C842      1.0  0.98217  0.39450  0.90317  1.0000
  C   C843      1.0  0.83269  0.44081  0.88463  1.0000
  H   H836      1.0  0.83548  0.25989  0.29894  1.0000
  C   C844      1.0  0.85070  0.29187  0.31998  1.0000
  C   C845      1.0  0.89641  0.49092  0.85489  1.0000
  H   H837      1.0  0.79708  0.43285  0.62191  1.0000
  H   H838      1.0  0.84978  0.26183  0.26053  1.0000
  C   C846      1.0  0.74975  0.43642  0.76914  1.0000
  N   N70       1.0  0.83194  0.27303  0.76988  1.0000
  C   C847      1.0  0.75764  0.42179  0.65669  1.0000
  H   H839      1.0  0.75394  0.26921  0.67167  1.0000
  H   H840      1.0  0.96171  0.42596  0.93731  1.0000
  C   C848      1.0  0.81368  0.47374  0.24288  1.0000
  H   H841      1.0  0.74839  0.47952  0.40175  1.0000
  C   C849      1.0  0.87477  0.49533  0.20838  1.0000
  H   H842      1.0  0.74771  0.43724  0.41888  1.0000
  H   H843      1.0  0.81698  0.26502  0.71909  1.0000
  C   C850      1.0  0.88511  0.49362  0.17883  1.0000
  H   H844      1.0  0.74733  0.44009  0.67710  1.0000
  H   H845      1.0  0.86327  0.49568  0.92290  1.0000
  C   C851      1.0  0.74619  0.47816  0.82631  1.0000
  H   H846      1.0  0.98864  0.47678  0.02023  1.0000
  H   H847      1.0  0.82346  0.48283  0.22436  1.0000
  C   C852      1.0  0.90084  0.49577  0.89318  1.0000
  H   H848      1.0  0.98786  0.38541  0.89491  1.0000
  C   C853      1.0  0.74820  0.25543  0.67667  1.0000
  H   H849      1.0  0.91354  0.49849  0.90319  1.0000
  S   S284      1.0  0.94421  0.49795  0.08473  1.0000
  C   C854      1.0  0.83315  0.26924  0.80729  1.0000
  C   C855      1.0  0.84850  0.27652  0.82701  1.0000
  N   N71       1.0  0.99201  0.41138  0.91157  1.0000
  H   H850      1.0  0.84937  0.27387  0.85694  1.0000
  H   H851      1.0  0.74494  0.41493  0.33849  1.0000
  Fe  Fe143     1.0  0.94681  0.52225  0.05364  1.0000
  S   S285      1.0  0.91928  0.51786  0.06279  1.0000
  S   S286      1.0  0.94217  0.51011  0.99540  1.0000
  C   C856      1.0  0.92763  0.54630  0.97464  1.0000
  S   S287      1.0  0.96938  0.54710  0.06873  1.0000
  C   C857      1.0  0.95659  0.56114  0.98989  1.0000
  H   H852      1.0  0.98516  0.53553  0.00594  1.0000
  H   H853      1.0  0.96641  0.56915  0.00922  1.0000
  H   H854      1.0  0.94332  0.56076  0.05866  1.0000
  N   N72       1.0  0.93999  0.55635  0.99909  1.0000
  H   H855      1.0  0.92217  0.55540  0.04220  1.0000
  C   C858      1.0  0.93558  0.56260  0.03481  1.0000
  H   H856      1.0  0.93787  0.57660  0.03264  1.0000
  S   S288      1.0  0.89417  0.50516  0.96565  1.0000
  C   C859      1.0  0.96120  0.55545  0.95592  1.0000
  C   C860      1.0  0.93178  0.54056  0.94021  1.0000
  H   H857      1.0  0.91443  0.54243  0.98176  1.0000
  H   H858      1.0  0.92189  0.53239  0.92122  1.0000
  H   H859      1.0  0.95206  0.54052  0.90457  1.0000
  C   C861      1.0  0.94868  0.54512  0.93092  1.0000
  H   H860      1.0  0.87168  0.50676  0.20972  1.0000
  H   H861      1.0  0.97442  0.55895  0.94934  1.0000
  C   C862      1.0  0.98991  0.50134  0.06880  1.0000
  H   H862      1.0  0.88987  0.50367  0.15781  1.0000
  Fe  Fe144     1.0  0.91456  0.50357  0.00623  1.0000
  H   H863      1.0  0.98240  0.52065  0.09567  1.0000
  C   C863      1.0  0.99058  0.55363  0.05263  1.0000
  C   C864      1.0  0.99283  0.51694  0.08810  1.0000
  H   H864      1.0  0.75198  0.50362  0.80390  1.0000
