data_image0
_chemical_formula_structural       FeS2FeS2FeHFeS3FeS2FeS2FeSFeS3FeS2FeS2FeSFeS3C3HC3H2C7H4SC2H2NHCH4C3HCH2C7H4NC2HCH2C2H2CH4CH2CH3CHCHCH6CHC2HC2HCH2CH3CH3NCHCHC2H2C3H3CH2NC10H3C4HNH2CH2CNFeS2FeS2FeHFeS3FeS2FeS2FeSFeS3FeS2FeS2FeSFeS3HC2SHC2NH2CHC2HC3HNC6H7C2HC2H2C6H6CH3C3H3CH2C2H3CH3C2H2CNC3H2NCHNCHCH4C2H2CHNC6H5CH2CH3CHC4HC2HC2H3C2HCHCH2C3HCH3CH2FeS2FeS2FeSFeS3FeS2FeS2FeSFeS3FeS2FeS2FeSFeS3CHNC4H3C2HCHCNCH2C6H5C2H2C3H2C6H4CHC3H2C6H3N2H2CH2C4HCHCNC6H2CH8CHC2HC2HCHC2NHCH4CHC4HCH2CH2C2HCHC2H4C3HC3H5CH2CH7NHC3HCFeS2FeS2FeSFeS3FeS2FeS2FeSFeS3FeS2FeS2FeNFeS3CHC4H4CHCH2C2HNH3CH2C4HC6H4C6H4C3H2SHCHC4H3C3H2CHCHNHC2H2CNH2C2HC4HCHC2HCH2C2H3CH2CHCNC6H8CH2CH2CH4C3FeS2FeSCFeSFeS3FeS2FeSHFeSFeS3CH2CHCH2C6H4CH3C2SCHNH2C2HCHCH3CH2NHC2HSH2CH3C2HNC3H2CHC3FeSCFeS2FeHFeS3FeS2FeS2FeSFeHS2CHC2H2C6H6C4H2C3HSCH2C2H2CHSHCH2CHCNH2NCHSC6H4CH2C2H3NCHC3FeS2FeS2FeSFeS2FeS2FeS2FeSFeS3CH2CH5CH2CH2C5H4C6H4SHCH2C5HCHC2HCN2CHC4N2C6H8NC4H5CHCH3CHCH3NH3CH2C3NCHC3HCH2CHC2HFeS2FeS2FeSFeS2FeS2FeS2FeSFeS3C3HC2H3CH4C5H4C6H4C3H2C5H2CNC2NC6H6CHCHCH2NHCSCH2CH3C2H5CH2C2HC2HC2H3CHC2H2NC2HC3HCHCH2CHFeS2FeS2FeSFeS3FeS2FeS2FeSFeS3FeS2FeS2FeSFeS3C6H4C3H8C2H2CHC2HC3H2C6H5N2H2C4HCHC3HCHCHCHC5H2CHCHC2H2CH2CHCHCHCNC6H11C3NCHCNC4H2CHC4H4CHCNH7C2H2C3H3NHFeS2FeS2FeSFeS3FeS2FeS2FeSFeS3FeS2FeS2FeSFeS3CHC4HCNHC6H4C3H2C2H3C3H2C6H5CNH2C2HCHCH2CH3C7HNHC2H2CHCHCHCH3NC2HC3H2CH3CHNC5H9C2HCH2C2H2CH2CH3CH2CH2C2HC2H3CHCHC2FeS2FeS2FeSFeS3CFeS2FeS2FeSFeS3FeSHFeS2FeSFeS3H2CH2C6H4C4H2C3HC6H4C4HC3H3C3HC4H2NC6H11C3HCH4CHSH4NC2H3CNC2HC2H4C4H3NCHCHCH2NHC2H4CHCHCHCHCH2C4HCH2FeS2FeS2FeSFeS3CFeS2FeS2FeSFeS3FeS2FeS2FeSFeS3H3CHCH3C3H2C7H5C6H4C3H2CH2C3H4C3H3N2H3C2H2NC6H8NC6H4CH2CNC3HNHCHCHC2H2C3HC3HCH2C3HC3H2CHCH2
_chemical_formula_sum              "Fe128 S256 H768 C768 N64"
_cell_length_a       66.9561
_cell_length_b       67.2337
_cell_length_c       42.5279
_cell_angle_alpha    89.8157
_cell_angle_beta     90.1887
_cell_angle_gamma    84.047

_space_group_name_H-M_alt    "P 1"
_space_group_IT_number       1

loop_
  _space_group_symop_operation_xyz
  'x, y, z'

loop_
  _atom_site_type_symbol
  _atom_site_label
  _atom_site_symmetry_multiplicity
  _atom_site_fract_x
  _atom_site_fract_y
  _atom_site_fract_z
  _atom_site_occupancy
  Fe  Fe1       1.0  0.25598  0.08745  0.13109  1.0000
  S   S1        1.0  0.23014  0.07002  0.14311  1.0000
  S   S2        1.0  0.25705  0.10248  0.08310  1.0000
  Fe  Fe2       1.0  0.27149  0.08704  0.20016  1.0000
  S   S3        1.0  0.24577  0.07049  0.21614  1.0000
  S   S4        1.0  0.29267  0.09880  0.23705  1.0000
  Fe  Fe3       1.0  0.25253  0.05117  0.17338  1.0000
  H   H1        1.0  0.15122  0.38361  0.35552  1.0000
  Fe  Fe4       1.0  0.22586  0.09111  0.18431  1.0000
  S   S5        1.0  0.19425  0.10543  0.19704  1.0000
  S   S6        1.0  0.27899  0.06728  0.15833  1.0000
  S   S7        1.0  0.25090  0.10906  0.17147  1.0000
  Fe  Fe5       1.0  0.09673  0.41734  0.35321  1.0000
  S   S8        1.0  0.06767  0.42176  0.37907  1.0000
  S   S9        1.0  0.11601  0.44336  0.35033  1.0000
  Fe  Fe6       1.0  0.09149  0.37301  0.33761  1.0000
  S   S10       1.0  0.06189  0.37496  0.36300  1.0000
  S   S11       1.0  0.10588  0.34280  0.31815  1.0000
  Fe  Fe7       1.0  0.05593  0.40480  0.33918  1.0000
  S   S12       1.0  0.02627  0.41749  0.31928  1.0000
  Fe  Fe8       1.0  0.07652  0.39171  0.40108  1.0000
  S   S13       1.0  0.06586  0.38768  0.45135  1.0000
  S   S14       1.0  0.08442  0.40214  0.31125  1.0000
  S   S15       1.0  0.10677  0.38799  0.37769  1.0000
  Fe  Fe9       1.0  0.09290  0.22736  0.12408  1.0000
  S   S16       1.0  0.09547  0.19921  0.15329  1.0000
  S   S17       1.0  0.08266  0.22350  0.07349  1.0000
  Fe  Fe10      1.0  0.09840  0.25446  0.18272  1.0000
  S   S18       1.0  0.10204  0.22762  0.21478  1.0000
  S   S19       1.0  0.09207  0.28752  0.19813  1.0000
  Fe  Fe11      1.0  0.12153  0.21198  0.17671  1.0000
  S   S20       1.0  0.15360  0.19566  0.18062  1.0000
  Fe  Fe12      1.0  0.07576  0.21727  0.18798  1.0000
  S   S21       1.0  0.04755  0.21036  0.21399  1.0000
  S   S22       1.0  0.11958  0.23982  0.14591  1.0000
  S   S23       1.0  0.07161  0.24434  0.15741  1.0000
  C   C1        1.0  0.02460  0.20829  0.19366  1.0000
  C   C2        1.0  0.02407  0.20566  0.16107  1.0000
  C   C3        1.0  0.15671  0.16420  0.10980  1.0000
  H   H2        1.0  0.03782  0.20522  0.14766  1.0000
  C   C4        1.0  0.12269  0.39338  0.25281  1.0000
  C   C5        1.0  0.01061  0.39851  0.31456  1.0000
  C   C6        1.0  0.13785  0.37744  0.29923  1.0000
  H   H3        1.0  0.19423  0.13421  0.26237  1.0000
  H   H4        1.0  0.03494  0.37531  0.30815  1.0000
  C   C7        1.0  0.21579  0.09980  0.27667  1.0000
  C   C8        1.0  0.10153  0.32764  0.28471  1.0000
  C   C9        1.0  0.08889  0.33451  0.25980  1.0000
  C   C10       1.0  0.08646  0.32212  0.23349  1.0000
  C   C11       1.0  0.09632  0.30256  0.23176  1.0000
  C   C12       1.0  0.10888  0.29567  0.25675  1.0000
  C   C13       1.0  0.11155  0.30817  0.28284  1.0000
  H   H5        1.0  0.08111  0.34943  0.26064  1.0000
  H   H6        1.0  0.07677  0.32772  0.21433  1.0000
  H   H7        1.0  0.11668  0.28076  0.25585  1.0000
  H   H8        1.0  0.12148  0.30267  0.30177  1.0000
  S   S24       1.0  0.25996  0.01743  0.18038  1.0000
  C   C14       1.0  0.09654  0.22577  0.03860  1.0000
  C   C15       1.0  0.11278  0.23725  0.03713  1.0000
  H   H9        1.0  0.02194  0.24150  0.02386  1.0000
  H   H10       1.0  0.11821  0.24373  0.05838  1.0000
  N   N1        1.0  0.22344  0.11825  0.26565  1.0000
  H   H11       1.0  0.24324  0.16645  0.23397  1.0000
  C   C16       1.0  0.12140  0.24115  0.00782  1.0000
  H   H12       1.0  0.31644  0.05949  0.23090  1.0000
  H   H13       1.0  0.10900  0.38282  0.46644  1.0000
  H   H14       1.0  0.03951  0.24833  0.05291  1.0000
  H   H15       1.0  0.08005  0.28113  0.31886  1.0000
  C   C17       1.0  0.08507  0.47323  0.33730  1.0000
  C   C18       1.0  0.10521  0.46860  0.34595  1.0000
  C   C19       1.0  0.11725  0.48436  0.35030  1.0000
  H   H16       1.0  0.23221  0.01015  0.23020  1.0000
  C   C20       1.0  0.21027  0.13476  0.25946  1.0000
  H   H17       1.0  0.07564  0.46130  0.33372  1.0000
  H   H18       1.0  0.13285  0.48097  0.35692  1.0000
  C   C21       1.0  0.02220  0.46828  0.33425  1.0000
  C   C22       1.0  0.16440  0.17040  0.18550  1.0000
  C   C23       1.0  0.15311  0.15487  0.19410  1.0000
  C   C24       1.0  0.16249  0.13514  0.19758  1.0000
  C   C25       1.0  0.18318  0.13056  0.19195  1.0000
  C   C26       1.0  0.19443  0.14605  0.18303  1.0000
  C   C27       1.0  0.18515  0.16583  0.18026  1.0000
  H   H19       1.0  0.13717  0.15809  0.19833  1.0000
  H   H20       1.0  0.15359  0.12333  0.20455  1.0000
  H   H21       1.0  0.21034  0.14285  0.17863  1.0000
  H   H22       1.0  0.19405  0.17770  0.17362  1.0000
  N   N2        1.0  0.14228  0.39558  0.31030  1.0000
  C   C28       1.0  0.31429  0.08690  0.25717  1.0000
  C   C29       1.0  0.17540  0.17020  0.10197  1.0000
  H   H23       1.0  0.20676  0.16080  0.09544  1.0000
  C   C30       1.0  0.13754  0.41257  0.29289  1.0000
  H   H24       1.0  0.00679  0.21072  0.23590  1.0000
  H   H25       1.0  0.21047  0.09148  0.25628  1.0000
  C   C31       1.0  0.25898  0.06835  0.04627  1.0000
  C   C32       1.0  0.25683  0.08924  0.04710  1.0000
  H   H26       1.0  0.05963  0.31005  0.29439  1.0000
  H   H27       1.0  0.26062  0.05991  0.06800  1.0000
  C   C33       1.0  0.17217  0.13030  0.11561  1.0000
  H   H28       1.0  0.12332  0.42540  0.25081  1.0000
  H   H29       1.0  0.01289  0.34791  0.30806  1.0000
  H   H30       1.0  0.22047  0.01169  0.15302  1.0000
  H   H31       1.0  0.14682  0.41023  0.35368  1.0000
  C   C34       1.0  0.00642  0.36326  0.31037  1.0000
  H   H32       1.0  0.14161  0.36390  0.31291  1.0000
  H   H33       1.0  0.14119  0.42694  0.30153  1.0000
  C   C35       1.0  0.32317  0.09726  0.28144  1.0000
  H   H34       1.0  0.31665  0.11211  0.28769  1.0000
  H   H35       1.0  0.11469  0.39254  0.23071  1.0000
  H   H36       1.0  0.14063  0.13941  0.12332  1.0000
  C   C36       1.0  0.15297  0.39678  0.34027  1.0000
  H   H37       1.0  0.12409  0.36169  0.26214  1.0000
  C   C37       1.0  0.01980  0.36526  0.44372  1.0000
  H   H38       1.0  0.22239  0.12887  0.11162  1.0000
  C   C38       1.0  0.06413  0.26183  0.01301  1.0000
  H   H39       1.0  0.22761  0.08996  0.28924  1.0000
  H   H40       1.0  0.02948  0.48127  0.34324  1.0000
  H   H41       1.0  0.07705  0.20864  0.01170  1.0000
  H   H42       1.0  0.06781  0.26417  0.03752  1.0000
  H   H43       1.0  0.02196  0.45694  0.35329  1.0000
  H   H44       1.0  0.20666  0.16545  0.24341  1.0000
  C   C39       1.0  0.25936  0.05831  0.01721  1.0000
  H   H45       1.0  0.14369  0.17523  0.11170  1.0000
  C   C40       1.0  0.24353  0.11862  0.26023  1.0000
  C   C41       1.0  0.22120  0.99920  0.23492  1.0000
  H   H46       1.0  0.20767  0.11074  0.12778  1.0000
  C   C42       1.0  0.19223  0.15598  0.10116  1.0000
  C   C43       1.0  0.23769  0.15297  0.24305  1.0000
  H   H47       1.0  0.00121  0.44875  0.29331  1.0000
  C   C44       1.0  0.10058  0.38388  0.48814  1.0000
  H   H48       1.0  0.20306  0.10319  0.29315  1.0000
  H   H49       1.0  0.26691  0.13604  0.24436  1.0000
  C   C45       1.0  0.12797  0.37608  0.27040  1.0000
  H   H50       1.0  0.03817  0.25587  0.20730  1.0000
  H   H51       1.0  0.08157  0.24764  0.29341  1.0000
  H   H52       1.0  0.02923  0.39099  0.41962  1.0000
  C   C46       1.0  0.07958  0.38657  0.48717  1.0000
  H   H53       1.0  0.06258  0.24356  0.24441  1.0000
  H   H54       1.0  0.25322  0.11615  0.01902  1.0000
  H   H55       1.0  0.25397  0.10542  0.26446  1.0000
  N   N3        1.0  0.19051  0.13639  0.10850  1.0000
  C   C47       1.0  0.12752  0.41178  0.26406  1.0000
  H   H56       1.0  0.04867  0.27785  0.19295  1.0000
  C   C48       1.0  0.07725  0.49331  0.33241  1.0000
  H   H57       1.0  0.02465  0.28002  0.21279  1.0000
  C   C49       1.0  0.01869  0.37977  0.42008  1.0000
  C   C50       1.0  0.25096  0.13595  0.24889  1.0000
  H   H58       1.0  0.17086  0.11482  0.12180  1.0000
  H   H59       1.0  0.00331  0.39079  0.37810  1.0000
  C   C51       1.0  0.01890  0.37872  0.31068  1.0000
  C   C52       1.0  0.20830  0.12169  0.10826  1.0000
  C   C53       1.0  0.15501  0.14411  0.11644  1.0000
  H   H60       1.0  0.16918  0.39769  0.33592  1.0000
  H   H61       1.0  0.04134  0.30544  0.24470  1.0000
  H   H62       1.0  0.20938  0.11351  0.08557  1.0000
  C   C54       1.0  0.21721  0.15244  0.24849  1.0000
  H   H63       1.0  0.17686  0.18589  0.09750  1.0000
  H   H64       1.0  0.26128  0.04214  0.01684  1.0000
  N   N4        1.0  0.05036  0.27412  0.24227  1.0000
  C   C55       1.0  0.04958  0.29259  0.25592  1.0000
  C   C56       1.0  0.06164  0.25811  0.25553  1.0000
  C   C57       1.0  0.05991  0.29529  0.28399  1.0000
  C   C58       1.0  0.07236  0.26032  0.28338  1.0000
  C   C59       1.0  0.07143  0.27904  0.29768  1.0000
  C   C60       1.0  0.03992  0.27185  0.21236  1.0000
  C   C61       1.0  0.25480  0.09998  0.01859  1.0000
  C   C62       1.0  0.22919  0.99728  0.15538  1.0000
  C   C63       1.0  0.00410  0.37968  0.39670  1.0000
  C   C64       1.0  0.00655  0.20875  0.21067  1.0000
  H   H65       1.0  0.00704  0.33962  0.46208  1.0000
  H   H66       1.0  0.21383  0.00278  0.25782  1.0000
  H   H67       1.0  0.03176  0.46152  0.31490  1.0000
  C   C65       1.0  0.08954  0.21762  0.01077  1.0000
  C   C66       1.0  0.00581  0.20298  0.14583  1.0000
  C   C67       1.0  0.24907  0.99624  0.16608  1.0000
  C   C68       1.0  0.00603  0.35094  0.44376  1.0000
  H   H68       1.0  0.00570  0.20052  0.12070  1.0000
  N   N5        1.0  0.00168  0.47420  0.32309  1.0000
  H   H69       1.0  0.03140  0.36509  0.46169  1.0000
  H   H70       1.0  0.04440  0.22497  0.03286  1.0000
  C   C69       1.0  0.32297  0.06769  0.24949  1.0000
  H   H71       1.0  0.13360  0.25050  0.00672  1.0000
  H   H72       1.0  0.20982  0.00122  0.21576  1.0000
  C   C70       1.0  0.03816  0.24084  0.02982  1.0000
  N   N6        1.0  0.04924  0.25025  0.00511  1.0000
  Fe  Fe13      1.0  0.26895  0.07089  0.83633  1.0000
  S   S25       1.0  0.23794  0.07698  0.81507  1.0000
  S   S26       1.0  0.29794  0.06166  0.80826  1.0000
  Fe  Fe14      1.0  0.25112  0.06689  0.90337  1.0000
  S   S27       1.0  0.21925  0.07239  0.88622  1.0000
  S   S28       1.0  0.25901  0.05551  0.95293  1.0000
  Fe  Fe15      1.0  0.22949  0.05184  0.84622  1.0000
  H   H73       1.0  0.10405  0.19351  0.76322  1.0000
  Fe  Fe16      1.0  0.23016  0.09702  0.85691  1.0000
  S   S29       1.0  0.21493  0.12947  0.85730  1.0000
  S   S30       1.0  0.26048  0.04483  0.86514  1.0000
  S   S31       1.0  0.26203  0.09252  0.87646  1.0000
  Fe  Fe17      1.0  0.09504  0.41824  0.67849  1.0000
  S   S32       1.0  0.08018  0.41760  0.63148  1.0000
  S   S33       1.0  0.10847  0.44609  0.69555  1.0000
  Fe  Fe18      1.0  0.08628  0.37452  0.69546  1.0000
  S   S34       1.0  0.07102  0.37102  0.64871  1.0000
  S   S35       1.0  0.08263  0.35353  0.73768  1.0000
  Fe  Fe19      1.0  0.09604  0.38669  0.62756  1.0000
  S   S36       1.0  0.11301  0.38006  0.58206  1.0000
  Fe  Fe20      1.0  0.05666  0.40232  0.65641  1.0000
  S   S37       1.0  0.02404  0.41353  0.65176  1.0000
  S   S38       1.0  0.11270  0.38792  0.67381  1.0000
  S   S39       1.0  0.07018  0.40527  0.70402  1.0000
  Fe  Fe21      1.0  0.10994  0.20032  0.84850  1.0000
  S   S40       1.0  0.12775  0.22646  0.85428  1.0000
  S   S41       1.0  0.12430  0.16874  0.83677  1.0000
  Fe  Fe22      1.0  0.06989  0.22566  0.86363  1.0000
  S   S42       1.0  0.08567  0.25343  0.87102  1.0000
  S   S43       1.0  0.03628  0.23236  0.87313  1.0000
  Fe  Fe23      1.0  0.10293  0.24460  0.82717  1.0000
  S   S44       1.0  0.11050  0.26364  0.78447  1.0000
  Fe  Fe24      1.0  0.10869  0.23298  0.89733  1.0000
  S   S45       1.0  0.12351  0.24060  0.94324  1.0000
  S   S46       1.0  0.08614  0.21769  0.81829  1.0000
  S   S47       1.0  0.09198  0.20594  0.89298  1.0000
  H   H74       1.0  0.11827  0.16988  0.76874  1.0000
  C   C71       1.0  0.01568  0.21771  0.87281  1.0000
  C   C72       1.0  0.01740  0.19777  0.86293  1.0000
  S   S48       1.0  0.21017  0.02853  0.82733  1.0000
  H   H75       1.0  0.03192  0.19047  0.85625  1.0000
  C   C73       1.0  0.11376  0.23371  0.97987  1.0000
  C   C74       1.0  0.09804  0.22162  0.98155  1.0000
  N   N7        1.0  0.16763  0.14910  0.92698  1.0000
  H   H76       1.0  0.09201  0.21578  0.96031  1.0000
  H   H77       1.0  0.15791  0.41755  0.62611  1.0000
  C   C75       1.0  0.00581  0.36025  0.62676  1.0000
  H   H78       1.0  0.13071  0.19728  0.93011  1.0000
  C   C76       1.0  0.01746  0.37626  0.63041  1.0000
  C   C77       1.0  0.02449  0.49282  0.68569  1.0000
  H   H79       1.0  0.03262  0.37503  0.62159  1.0000
  C   C78       1.0  0.07895  0.38617  0.54473  1.0000
  C   C79       1.0  0.09991  0.38302  0.54575  1.0000
  C   C80       1.0  0.11037  0.48678  0.69234  1.0000
  H   H80       1.0  0.07048  0.38698  0.56639  1.0000
  N   N8        1.0  0.30700  0.05477  0.91778  1.0000
  C   C81       1.0  0.10227  0.28863  0.77178  1.0000
  C   C82       1.0  0.10941  0.29560  0.74302  1.0000
  C   C83       1.0  0.10355  0.31525  0.73206  1.0000
  C   C84       1.0  0.09047  0.32835  0.74982  1.0000
  C   C85       1.0  0.08325  0.32135  0.77849  1.0000
  C   C86       1.0  0.08904  0.30167  0.78938  1.0000
  H   H81       1.0  0.11967  0.28575  0.72913  1.0000
  H   H82       1.0  0.10932  0.32032  0.71004  1.0000
  H   H83       1.0  0.07318  0.33128  0.79255  1.0000
  H   H84       1.0  0.08341  0.29667  0.81154  1.0000
  H   H85       1.0  0.29954  0.06580  0.96377  1.0000
  H   H86       1.0  0.11863  0.42157  0.57766  1.0000
  H   H87       1.0  0.10399  0.45205  0.55009  1.0000
  C   C87       1.0  0.10191  0.47030  0.67949  1.0000
  C   C88       1.0  0.08896  0.47337  0.65365  1.0000
  H   H88       1.0  0.32923  0.04562  0.67276  1.0000
  C   C89       1.0  0.05527  0.46641  0.71000  1.0000
  C   C90       1.0  0.12836  0.47344  0.60935  1.0000
  H   H89       1.0  0.08227  0.46090  0.64354  1.0000
  H   H90       1.0  0.31426  0.10945  0.89621  1.0000
  C   C91       1.0  0.18968  0.14003  0.85069  1.0000
  C   C92       1.0  0.17449  0.12860  0.84093  1.0000
  C   C93       1.0  0.15463  0.13764  0.83677  1.0000
  C   C94       1.0  0.14959  0.15814  0.84266  1.0000
  C   C95       1.0  0.16475  0.16956  0.85259  1.0000
  C   C96       1.0  0.18465  0.16058  0.85634  1.0000
  H   H91       1.0  0.17805  0.11278  0.83647  1.0000
  H   H92       1.0  0.14309  0.12861  0.82902  1.0000
  H   H93       1.0  0.16117  0.18534  0.85724  1.0000
  H   H94       1.0  0.19624  0.16959  0.86396  1.0000
  H   H95       1.0  0.18856  0.00255  0.79217  1.0000
  H   H96       1.0  0.03308  0.32286  0.66758  1.0000
  C   C97       1.0  0.31991  0.09136  0.78353  1.0000
  H   H97       1.0  0.30219  0.03177  0.95113  1.0000
  H   H98       1.0  0.25342  0.09832  0.96774  1.0000
  H   H99       1.0  0.11904  0.18252  0.73112  1.0000
  C   C98       1.0  0.16106  0.18425  0.93799  1.0000
  C   C99       1.0  0.11665  0.47210  0.58240  1.0000
  C   C100      1.0  0.31762  0.07095  0.78603  1.0000
  H   H100      1.0  0.00744  0.39240  0.74377  1.0000
  H   H101      1.0  0.30415  0.10077  0.95054  1.0000
  H   H102      1.0  0.30932  0.10217  0.79509  1.0000
  C   C101      1.0  0.00936  0.39390  0.64497  1.0000
  H   H103      1.0  0.06933  0.49251  0.72361  1.0000
  H   H104      1.0  0.16627  0.19827  0.94541  1.0000
  C   C102      1.0  0.05635  0.48695  0.71260  1.0000
  C   C103      1.0  0.14102  0.18371  0.92937  1.0000
  H   H105      1.0  0.11893  0.16526  0.91205  1.0000
  H   H106      1.0  0.13513  0.40589  0.62118  1.0000
  H   H107      1.0  0.08100  0.27170  0.93984  1.0000
  C   C104      1.0  0.14794  0.14842  0.91874  1.0000
  H   H108      1.0  0.31711  0.07607  0.70227  1.0000
  H   H109      1.0  0.06739  0.45592  0.71903  1.0000
  H   H110      1.0  0.05360  0.25096  0.92583  1.0000
  C   C105      1.0  0.04543  0.24633  0.97422  1.0000
  C   C106      1.0  0.08519  0.49254  0.64011  1.0000
  H   H111      1.0  0.14459  0.45708  0.64646  1.0000
  H   H112      1.0  0.00308  0.24715  0.81477  1.0000
  C   C107      1.0  0.00018  0.18731  0.86136  1.0000
  N   N9        1.0  0.13259  0.43759  0.61351  1.0000
  C   C108      1.0  0.17425  0.16667  0.93673  1.0000
  C   C109      1.0  0.13438  0.16572  0.91961  1.0000
  C   C110      1.0  0.30683  0.08923  0.93284  1.0000
  H   H113      1.0  0.04779  0.34592  0.70303  1.0000
  H   H114      1.0  0.05263  0.38984  0.51510  1.0000
  N   N10       1.0  0.02352  0.47264  0.68334  1.0000
  C   C111      1.0  0.25490  0.08992  0.98951  1.0000
  H   H115      1.0  0.28952  0.03038  0.91427  1.0000
  N   N11       1.0  0.01664  0.34183  0.70056  1.0000
  C   C112      1.0  0.31221  0.05946  0.88779  1.0000
  H   H116      1.0  0.18171  0.12327  0.95010  1.0000
  C   C113      1.0  0.30425  0.06937  0.94019  1.0000
  H   H117      1.0  0.00160  0.17193  0.85356  1.0000
  H   H118      1.0  0.14270  0.13458  0.91059  1.0000
  H   H119      1.0  0.12035  0.48459  0.71241  1.0000
  H   H120      1.0  0.31635  0.02353  0.91675  1.0000
  C   C114      1.0  0.02952  0.37015  0.72466  1.0000
  C   C115      1.0  0.11315  0.45333  0.57095  1.0000
  H   H121      1.0  0.19705  0.13397  0.92083  1.0000
  H   H122      1.0  0.18986  0.16721  0.94325  1.0000
  C   C116      1.0  0.13614  0.45592  0.62483  1.0000
  H   H123      1.0  0.00123  0.21193  0.79976  1.0000
  N   N12       1.0  0.13566  0.19475  0.76749  1.0000
  C   C117      1.0  0.15327  0.18367  0.77539  1.0000
  C   C118      1.0  0.13434  0.21519  0.76785  1.0000
  C   C119      1.0  0.16998  0.19303  0.78496  1.0000
  C   C120      1.0  0.15075  0.22505  0.77730  1.0000
  C   C121      1.0  0.16862  0.21387  0.78610  1.0000
  C   C122      1.0  0.11843  0.18467  0.75697  1.0000
  H   H124      1.0  0.15433  0.16745  0.77510  1.0000
  H   H125      1.0  0.12048  0.22403  0.76114  1.0000
  H   H126      1.0  0.18374  0.18413  0.79197  1.0000
  H   H127      1.0  0.14946  0.24129  0.77812  1.0000
  H   H128      1.0  0.18134  0.22136  0.79388  1.0000
  C   C123      1.0  0.12141  0.43611  0.58677  1.0000
  H   H129      1.0  0.12691  0.37950  0.51792  1.0000
  H   H130      1.0  0.31466  0.11057  0.70961  1.0000
  C   C124      1.0  0.32661  0.07736  0.68187  1.0000
  H   H131      1.0  0.17724  0.12010  0.90855  1.0000
  H   H132      1.0  0.31379  0.04802  0.86972  1.0000
  H   H133      1.0  0.33012  0.04136  0.77263  1.0000
  C   C125      1.0  0.02022  0.32271  0.68404  1.0000
  H   H134      1.0  0.03822  0.44348  0.69240  1.0000
  C   C126      1.0  0.11069  0.38198  0.51735  1.0000
  C   C127      1.0  0.31244  0.09408  0.90241  1.0000
  C   C128      1.0  0.03257  0.35192  0.70880  1.0000
  C   C129      1.0  0.06886  0.38777  0.51559  1.0000
  H   H135      1.0  0.04227  0.37801  0.73115  1.0000
  C   C130      1.0  0.05655  0.25426  0.95028  1.0000
  C   C131      1.0  0.03875  0.45947  0.69492  1.0000
  H   H136      1.0  0.01220  0.34653  0.61585  1.0000
  C   C132      1.0  0.18154  0.13073  0.92677  1.0000
  C   C133      1.0  0.14143  0.41955  0.62983  1.0000
  H   H137      1.0  0.01132  0.45984  0.64309  1.0000
  H   H138      1.0  0.13831  0.42073  0.65547  1.0000
  H   H139      1.0  0.02354  0.31038  0.70132  1.0000
  C   C134      1.0  0.07178  0.26604  0.95811  1.0000
  C   C135      1.0  0.01003  0.37806  0.73206  1.0000
  H   H140      1.0  0.03392  0.23681  0.96786  1.0000
  C   C136      1.0  0.30371  0.03407  0.92538  1.0000
  H   H141      1.0  0.00159  0.45194  0.67998  1.0000
  C   C137      1.0  0.32486  0.11375  0.69007  1.0000
  H   H142      1.0  0.13072  0.48798  0.61890  1.0000
  H   H143      1.0  0.23842  0.99596  0.85636  1.0000
  C   C138      1.0  0.07558  0.26993  0.98965  1.0000
  C   C139      1.0  0.31521  0.07912  0.87974  1.0000
  C   C140      1.0  0.00661  0.46493  0.66704  1.0000
  H   H144      1.0  0.31917  0.08275  0.85581  1.0000
  C   C141      1.0  0.25727  0.06901  0.98873  1.0000
  H   H145      1.0  0.31655  0.12468  0.67391  1.0000
  H   H146      1.0  0.00696  0.31977  0.66959  1.0000
  H   H147      1.0  0.11006  0.48564  0.57080  1.0000
  C   C142      1.0  0.21335  0.00193  0.82454  1.0000
  H   H148      1.0  0.08787  0.27847  0.99600  1.0000
  H   H149      1.0  0.07571  0.49459  0.61946  1.0000
  Fe  Fe25      1.0  0.26156  0.87503  0.12241  1.0000
  S   S49       1.0  0.22816  0.88097  0.12788  1.0000
  S   S50       1.0  0.27626  0.86608  0.07587  1.0000
  Fe  Fe26      1.0  0.27038  0.88434  0.19192  1.0000
  S   S51       1.0  0.23720  0.89047  0.20175  1.0000
  S   S52       1.0  0.29155  0.89450  0.23010  1.0000
  Fe  Fe27      1.0  0.23284  0.86311  0.17260  1.0000
  S   S53       1.0  0.21504  0.83753  0.18954  1.0000
  Fe  Fe28      1.0  0.23562  0.90765  0.15614  1.0000
  S   S54       1.0  0.21900  0.93867  0.14880  1.0000
  S   S55       1.0  0.26633  0.85577  0.16591  1.0000
  S   S56       1.0  0.26866  0.90277  0.14745  1.0000
  Fe  Fe29      1.0  0.12681  0.76306  0.14428  1.0000
  S   S57       1.0  0.14071  0.73135  0.15095  1.0000
  S   S58       1.0  0.14430  0.79022  0.13342  1.0000
  Fe  Fe30      1.0  0.08410  0.74873  0.13918  1.0000
  S   S59       1.0  0.09530  0.71625  0.14482  1.0000
  S   S60       1.0  0.05128  0.76022  0.13066  1.0000
  Fe  Fe31      1.0  0.11477  0.72676  0.18305  1.0000
  S   S61       1.0  0.11828  0.71153  0.23129  1.0000
  Fe  Fe32      1.0  0.12003  0.72333  0.11211  1.0000
  S   S62       1.0  0.13341  0.70064  0.07684  1.0000
  S   S63       1.0  0.10216  0.75930  0.17949  1.0000
  S   S64       1.0  0.10749  0.75496  0.10341  1.0000
  Fe  Fe33      1.0  0.11095  0.59171  0.38417  1.0000
  S   S65       1.0  0.11985  0.57784  0.33702  1.0000
  S   S66       1.0  0.12874  0.58674  0.42959  1.0000
  Fe  Fe34      1.0  0.06825  0.60340  0.36279  1.0000
  S   S67       1.0  0.07375  0.59067  0.31493  1.0000
  S   S68       1.0  0.03685  0.61406  0.37749  1.0000
  Fe  Fe35      1.0  0.09048  0.56414  0.33919  1.0000
  S   S69       1.0  0.07853  0.53401  0.32930  1.0000
  Fe  Fe36      1.0  0.10221  0.60574  0.31655  1.0000
  S   S70       1.0  0.10844  0.62116  0.26974  1.0000
  S   S71       1.0  0.08314  0.57647  0.38690  1.0000
  S   S72       1.0  0.09542  0.62031  0.36367  1.0000
  C   C143      1.0  0.02245  0.59377  0.37660  1.0000
  H   H150      1.0  0.31675  0.90884  0.27750  1.0000
  N   N13       1.0  0.00834  0.58359  0.29559  1.0000
  C   C144      1.0  0.14336  0.64136  0.17477  1.0000
  C   C145      1.0  0.01946  0.55893  0.36475  1.0000
  C   C146      1.0  0.03114  0.57490  0.36732  1.0000
  C   C147      1.0  0.00620  0.72867  0.08041  1.0000
  H   H151      1.0  0.15989  0.66853  0.23383  1.0000
  H   H152      1.0  0.02631  0.54448  0.35696  1.0000
  H   H153      1.0  0.04671  0.57264  0.36083  1.0000
  C   C148      1.0  0.03040  0.74898  0.14524  1.0000
  C   C149      1.0  0.01100  0.75877  0.14070  1.0000
  H   H154      1.0  0.15577  0.69487  0.19306  1.0000
  C   C150      1.0  0.15490  0.66478  0.21049  1.0000
  H   H155      1.0  0.27617  0.95256  0.24942  1.0000
  C   C151      1.0  0.03269  0.73095  0.16198  1.0000
  N   N14       1.0  0.23097  0.97864  0.23534  1.0000
  C   C152      1.0  0.12460  0.58680  0.49406  1.0000
  H   H156      1.0  0.10788  0.52058  0.42186  1.0000
  H   H157      1.0  0.04751  0.72316  0.16535  1.0000
  C   C153      1.0  0.11281  0.68706  0.24232  1.0000
  C   C154      1.0  0.11616  0.68069  0.27363  1.0000
  C   C155      1.0  0.11363  0.66092  0.28293  1.0000
  C   C156      1.0  0.10793  0.64716  0.26089  1.0000
  C   C157      1.0  0.10411  0.65368  0.22971  1.0000
  C   C158      1.0  0.10631  0.67355  0.22053  1.0000
  H   H158      1.0  0.12117  0.69099  0.29074  1.0000
  H   H159      1.0  0.11685  0.65613  0.30690  1.0000
  H   H160      1.0  0.09978  0.64316  0.21240  1.0000
  H   H161      1.0  0.10362  0.67817  0.19637  1.0000
  H   H162      1.0  0.14200  0.61910  0.22543  1.0000
  C   C159      1.0  0.15262  0.67977  0.18748  1.0000
  C   C160      1.0  0.08931  0.50906  0.33652  1.0000
  H   H163      1.0  0.09422  0.61528  0.44350  1.0000
  H   H164      1.0  0.13557  0.76322  0.02528  1.0000
  C   C161      1.0  0.12022  0.71541  0.01748  1.0000
  C   C162      1.0  0.13348  0.70213  0.03520  1.0000
  C   C163      1.0  0.14762  0.68903  0.01947  1.0000
  H   H165      1.0  0.10910  0.72549  0.02938  1.0000
  H   H166      1.0  0.15782  0.67863  0.03278  1.0000
  C   C164      1.0  0.19403  0.82589  0.17484  1.0000
  C   C165      1.0  0.18729  0.80983  0.19182  1.0000
  C   C166      1.0  0.17193  0.79894  0.17993  1.0000
  C   C167      1.0  0.16292  0.80406  0.15085  1.0000
  C   C168      1.0  0.16933  0.82044  0.13424  1.0000
  C   C169      1.0  0.18474  0.83127  0.14608  1.0000
  H   H167      1.0  0.19423  0.80554  0.21419  1.0000
  H   H168      1.0  0.16716  0.78651  0.19317  1.0000
  H   H169      1.0  0.16238  0.82470  0.11189  1.0000
  H   H170      1.0  0.18958  0.84361  0.13274  1.0000
  C   C170      1.0  0.22465  0.93673  0.06167  1.0000
  H   H171      1.0  0.00910  0.77271  0.12768  1.0000
  C   C171      1.0  0.26289  0.87093  0.04030  1.0000
  C   C172      1.0  0.24303  0.87966  0.04032  1.0000
  C   C173      1.0  0.00196  0.59657  0.38354  1.0000
  H   H172      1.0  0.23547  0.88323  0.06223  1.0000
  H   H173      1.0  0.01876  0.55247  0.29484  1.0000
  C   C174      1.0  0.10022  0.60901  0.46547  1.0000
  C   C175      1.0  0.22031  0.97954  0.14915  1.0000
  C   C176      1.0  0.23125  0.96068  0.15324  1.0000
  C   C177      1.0  0.25137  0.95974  0.16255  1.0000
  C   C178      1.0  0.26017  0.97741  0.16899  1.0000
  C   C179      1.0  0.25089  0.97503  0.24306  1.0000
  H   H174      1.0  0.20475  0.98044  0.14180  1.0000
  H   H175      1.0  0.25999  0.94539  0.16588  1.0000
  H   H176      1.0  0.27556  0.97644  0.17720  1.0000
  N   N15       1.0  0.05012  0.74323  0.23402  1.0000
  N   N16       1.0  0.06306  0.55778  0.44775  1.0000
  H   H177      1.0  0.07339  0.72397  0.21303  1.0000
  H   H178      1.0  0.13959  0.62641  0.16965  1.0000
  C   C180      1.0  0.02360  0.56713  0.28763  1.0000
  H   H179      1.0  0.16847  0.62253  0.22687  1.0000
  H   H180      1.0  0.04804  0.58643  0.43800  1.0000
  C   C181      1.0  0.25875  0.92496  0.04782  1.0000
  C   C182      1.0  0.06012  0.54310  0.42650  1.0000
  C   C183      1.0  0.23459  0.93261  0.00736  1.0000
  C   C184      1.0  0.09521  0.53068  0.42981  1.0000
  H   H181      1.0  0.21775  0.89150  0.01211  1.0000
  C   C185      1.0  0.10932  0.50449  0.34589  1.0000
  H   H182      1.0  0.01778  0.70973  0.18919  1.0000
  C   C186      1.0  0.27246  0.86647  0.01143  1.0000
  N   N17       1.0  0.22291  0.80156  0.11997  1.0000
  C   C187      1.0  0.23745  0.81432  0.12271  1.0000
  C   C188      1.0  0.21020  0.80283  0.09459  1.0000
  C   C189      1.0  0.23952  0.82887  0.09972  1.0000
  C   C190      1.0  0.21169  0.81741  0.07136  1.0000
  C   C191      1.0  0.22653  0.83044  0.07394  1.0000
  C   C192      1.0  0.22161  0.78583  0.14361  1.0000
  H   H183      1.0  0.24734  0.81352  0.14306  1.0000
  H   H184      1.0  0.19847  0.79288  0.09264  1.0000
  C   C193      1.0  0.24427  0.93026  0.07081  1.0000
  H   H185      1.0  0.20133  0.81866  0.05162  1.0000
  H   H186      1.0  0.22796  0.84179  0.05609  1.0000
  H   H187      1.0  0.20617  0.78117  0.14482  1.0000
  H   H188      1.0  0.23231  0.77263  0.13790  1.0000
  H   H189      1.0  0.22512  0.79136  0.16745  1.0000
  H   H190      1.0  0.25977  0.98737  0.24734  1.0000
  H   H191      1.0  0.20419  0.96593  0.22250  1.0000
  H   H192      1.0  0.21330  0.94077  0.07940  1.0000
  C   C194      1.0  0.26027  0.95542  0.24419  1.0000
  H   H193      1.0  0.03610  0.72061  0.25839  1.0000
  C   C195      1.0  0.04680  0.57357  0.45423  1.0000
  C   C196      1.0  0.03407  0.73508  0.24682  1.0000
  H   H194      1.0  0.27390  0.91963  0.05517  1.0000
  C   C197      1.0  0.01581  0.72331  0.17527  1.0000
  C   C198      1.0  0.09163  0.61576  0.49419  1.0000
  H   H195      1.0  0.28782  0.85962  0.01122  1.0000
  C   C199      1.0  0.32112  0.86304  0.24333  1.0000
  H   H196      1.0  0.08191  0.74252  0.23905  1.0000
  C   C200      1.0  0.32280  0.89367  0.27225  1.0000
  C   C201      1.0  0.02820  0.77132  0.21508  1.0000
  N   N18       1.0  0.15012  0.64591  0.20404  1.0000
  H   H197      1.0  0.15052  0.63663  0.25217  1.0000
  C   C202      1.0  0.15304  0.63026  0.22822  1.0000
  H   H198      1.0  0.14359  0.68680  0.13964  1.0000
  H   H199      1.0  0.03554  0.73651  0.06723  1.0000
  H   H200      1.0  0.31308  0.87158  0.33747  1.0000
  H   H201      1.0  0.31511  0.89681  0.37984  1.0000
  C   C203      1.0  0.01468  0.74499  0.24425  1.0000
  H   H202      1.0  0.22002  0.93117  0.22417  1.0000
  C   C204      1.0  0.07017  0.73220  0.23536  1.0000
  C   C205      1.0  0.32519  0.88310  0.38002  1.0000
  C   C206      1.0  0.14559  0.67531  0.15768  1.0000
  C   C207      1.0  0.23300  0.88435  0.01180  1.0000
  H   H203      1.0  0.04556  0.54249  0.41549  1.0000
  C   C208      1.0  0.31311  0.88265  0.24980  1.0000
  H   H204      1.0  0.08418  0.57101  0.47669  1.0000
  H   H205      1.0  0.02603  0.78504  0.20142  1.0000
  C   C209      1.0  0.14092  0.65601  0.15119  1.0000
  H   H206      1.0  0.02977  0.60451  0.30329  1.0000
  H   H207      1.0  0.02651  0.56707  0.26196  1.0000
  C   C210      1.0  0.21988  0.96311  0.22919  1.0000
  C   C211      1.0  0.32399  0.86894  0.35636  1.0000
  H   H208      1.0  0.24817  0.92931  0.09559  1.0000
  C   C212      1.0  0.09804  0.54558  0.45169  1.0000
  H   H209      1.0  0.31383  0.85434  0.22619  1.0000
  C   C213      1.0  0.24910  0.93951  0.23766  1.0000
  C   C214      1.0  0.11700  0.59477  0.46529  1.0000
  H   H210      1.0  0.13533  0.65255  0.12805  1.0000
  H   H211      1.0  0.11881  0.51642  0.34906  1.0000
  H   H212      1.0  0.02366  0.75092  0.01559  1.0000
  H   H213      1.0  0.20447  0.94279  0.02238  1.0000
  C   C215      1.0  0.04737  0.76101  0.21806  1.0000
  C   C216      1.0  0.01400  0.60210  0.30232  1.0000
  C   C217      1.0  0.07611  0.52930  0.41730  1.0000
  H   H214      1.0  0.05990  0.76701  0.20657  1.0000
  C   C218      1.0  0.01988  0.73659  0.06030  1.0000
  C   C219      1.0  0.08168  0.55904  0.46054  1.0000
  C   C220      1.0  0.21972  0.93790  0.02975  1.0000
  H   H215      1.0  0.25628  0.92426  0.23786  1.0000
  H   H216      1.0  0.16084  0.73411  0.01602  1.0000
  H   H217      1.0  0.25109  0.83893  0.10196  1.0000
  H   H218      1.0  0.07391  0.51817  0.39952  1.0000
  H   H219      1.0  0.03796  0.56855  0.30024  1.0000
  C   C221      1.0  0.22876  0.94335  0.23017  1.0000
  H   H220      1.0  0.00184  0.73815  0.25325  1.0000
  H   H221      1.0  0.07169  0.72123  0.25506  1.0000
  C   C222      1.0  0.01318  0.74482  0.03150  1.0000
  H   H222      1.0  0.06179  0.49667  0.32506  1.0000
  H   H223      1.0  0.03181  0.56820  0.45074  1.0000
  H   H224      1.0  0.04765  0.57899  0.47883  1.0000
  H   H225      1.0  0.13757  0.57577  0.49412  1.0000
  H   H226      1.0  0.07908  0.62728  0.49407  1.0000
  H   H227      1.0  0.00428  0.63250  0.31562  1.0000
  H   H228      1.0  0.01156  0.72225  0.10269  1.0000
  N   N19       1.0  0.25377  0.92610  0.01657  1.0000
  H   H229      1.0  0.11295  0.54731  0.46070  1.0000
  C   C223      1.0  0.01177  0.76320  0.22824  1.0000
  C   C224      1.0  0.99887  0.56188  0.37052  1.0000
  C   C225      1.0  0.99960  0.61807  0.30924  1.0000
  H   H230      1.0  0.28019  0.90856  0.00086  1.0000
  C   C226      1.0  0.14172  0.76042  0.00191  1.0000
  Fe  Fe37      1.0  0.23029  0.90565  0.83561  1.0000
  S   S73       1.0  0.25665  0.90431  0.86829  1.0000
  S   S74       1.0  0.21531  0.93348  0.81126  1.0000
  Fe  Fe38      1.0  0.22627  0.85999  0.84107  1.0000
  S   S75       1.0  0.25295  0.85582  0.87386  1.0000
  S   S76       1.0  0.21107  0.83294  0.82260  1.0000
  Fe  Fe39      1.0  0.23940  0.88395  0.89756  1.0000
  S   S77       1.0  0.23040  0.88998  0.94844  1.0000
  Fe  Fe40      1.0  0.26793  0.87654  0.84119  1.0000
  S   S78       1.0  0.30123  0.86989  0.82792  1.0000
  S   S79       1.0  0.21203  0.88707  0.86621  1.0000
  S   S80       1.0  0.24223  0.87883  0.80687  1.0000
  Fe  Fe41      1.0  0.11925  0.75912  0.85446  1.0000
  S   S81       1.0  0.13575  0.72868  0.84544  1.0000
  S   S82       1.0  0.13362  0.78883  0.86135  1.0000
  Fe  Fe42      1.0  0.07983  0.74006  0.87184  1.0000
  S   S83       1.0  0.09457  0.70882  0.86527  1.0000
  S   S84       1.0  0.04849  0.74183  0.89343  1.0000
  Fe  Fe43      1.0  0.12099  0.71959  0.89022  1.0000
  S   S85       1.0  0.13993  0.70246  0.92751  1.0000
  Fe  Fe44      1.0  0.10750  0.72059  0.82110  1.0000
  S   S86       1.0  0.10143  0.70532  0.77405  1.0000
  S   S87       1.0  0.10559  0.74984  0.90006  1.0000
  S   S88       1.0  0.09168  0.75198  0.82686  1.0000
  Fe  Fe45      1.0  0.06077  0.59929  0.66031  1.0000
  S   S89       1.0  0.08305  0.58078  0.69034  1.0000
  S   S90       1.0  0.02930  0.60796  0.67619  1.0000
  Fe  Fe46      1.0  0.09020  0.60340  0.60656  1.0000
  S   S91       1.0  0.11526  0.58570  0.63298  1.0000
  S   S92       1.0  0.08898  0.61830  0.55839  1.0000
  Fe  Fe47      1.0  0.09219  0.56450  0.64546  1.0000
  N   N20       1.0  0.15641  0.75224  0.94170  1.0000
  Fe  Fe48      1.0  0.10370  0.60372  0.67578  1.0000
  S   S93       1.0  0.12280  0.61889  0.71166  1.0000
  S   S94       1.0  0.06794  0.58176  0.61667  1.0000
  S   S95       1.0  0.08061  0.62282  0.64803  1.0000
  C   C227      1.0  0.01686  0.58651  0.68041  1.0000
  H   H231      1.0  0.23991  0.83058  0.76995  1.0000
  C   C228      1.0  0.03458  0.69696  0.85005  1.0000
  C   C229      1.0  0.12352  0.64008  0.60829  1.0000
  C   C230      1.0  0.01503  0.55138  0.66932  1.0000
  C   C231      1.0  0.02622  0.56783  0.67135  1.0000
  H   H232      1.0  0.05402  0.70955  0.78045  1.0000
  H   H233      1.0  0.32948  0.94456  0.66295  1.0000
  H   H234      1.0  0.02196  0.53734  0.66029  1.0000
  H   H235      1.0  0.04182  0.56625  0.66450  1.0000
  C   C232      1.0  0.09933  0.60798  0.52298  1.0000
  H   H236      1.0  0.16639  0.62768  0.64097  1.0000
  C   C233      1.0  0.11566  0.59318  0.52281  1.0000
  H   H237      1.0  0.11598  0.67933  0.67435  1.0000
  H   H238      1.0  0.12179  0.58712  0.54481  1.0000
  C   C234      1.0  0.02477  0.74407  0.87430  1.0000
  C   C235      1.0  0.02234  0.75044  0.84306  1.0000
  H   H239      1.0  0.01580  0.68834  0.88786  1.0000
  N   N21       1.0  0.28410  0.82352  0.80927  1.0000
  H   H240      1.0  0.15428  0.75495  0.89170  1.0000
  H   H241      1.0  0.02456  0.59656  0.60981  1.0000
  H   H242      1.0  0.03515  0.75447  0.82997  1.0000
  C   C236      1.0  0.01639  0.69277  0.86337  1.0000
  H   H243      1.0  0.29935  0.84000  0.73891  1.0000
  H   H244      1.0  0.09341  0.68211  0.62752  1.0000
  C   C237      1.0  0.13587  0.70237  0.96869  1.0000
  C   C238      1.0  0.16318  0.74021  0.96632  1.0000
  C   C239      1.0  0.13506  0.77275  0.97671  1.0000
  C   C240      1.0  0.10549  0.67008  0.62916  1.0000
  H   H245      1.0  0.27746  0.93447  0.98808  1.0000
  C   C241      1.0  0.10651  0.68028  0.75982  1.0000
  C   C242      1.0  0.12313  0.66742  0.76982  1.0000
  C   C243      1.0  0.12765  0.64854  0.75538  1.0000
  C   C244      1.0  0.11541  0.64202  0.73127  1.0000
  C   C245      1.0  0.09841  0.65463  0.72206  1.0000
  C   C246      1.0  0.09420  0.67369  0.73588  1.0000
  H   H246      1.0  0.13287  0.67224  0.78799  1.0000
  H   H247      1.0  0.14083  0.63900  0.76281  1.0000
  H   H248      1.0  0.08875  0.64991  0.70371  1.0000
  H   H249      1.0  0.08134  0.68345  0.72782  1.0000
  C   C247      1.0  0.19036  0.82002  0.83552  1.0000
  C   C248      1.0  0.18596  0.80267  0.81945  1.0000
  C   C249      1.0  0.16910  0.79259  0.82749  1.0000
  C   C250      1.0  0.15607  0.79993  0.85145  1.0000
  C   C251      1.0  0.16057  0.81721  0.86768  1.0000
  C   C252      1.0  0.17765  0.82704  0.86007  1.0000
  H   H250      1.0  0.19554  0.79703  0.80035  1.0000
  H   H251      1.0  0.16591  0.77944  0.81458  1.0000
  H   H252      1.0  0.15069  0.82308  0.88628  1.0000
  H   H253      1.0  0.18078  0.84024  0.87288  1.0000
  C   C253      1.0  0.13328  0.65262  0.65753  1.0000
  C   C254      1.0  0.26875  0.83564  0.75064  1.0000
  C   C255      1.0  0.31365  0.87458  0.79189  1.0000
  H   H254      1.0  0.27013  0.86843  0.96065  1.0000
  H   H255      1.0  0.29356  0.83195  0.85439  1.0000
  S   S96       1.0  0.09136  0.53176  0.63110  1.0000
  H   H256      1.0  0.12524  0.62890  0.58988  1.0000
  C   C256      1.0  0.24276  0.88062  0.98295  1.0000
  H   H257      1.0  0.15254  0.61206  0.61655  1.0000
  C   C257      1.0  0.20101  0.97233  0.80151  1.0000
  C   C258      1.0  0.21537  0.95966  0.81792  1.0000
  C   C259      1.0  0.22889  0.96822  0.83796  1.0000
  C   C260      1.0  0.22798  0.98938  0.84108  1.0000
  H   H258      1.0  0.11117  0.72565  0.97046  1.0000
  H   H259      1.0  0.19059  0.96606  0.78583  1.0000
  H   H260      1.0  0.24013  0.95864  0.85068  1.0000
  C   C261      1.0  0.14277  0.76854  0.94663  1.0000
  C   C262      1.0  0.01286  0.56934  0.59611  1.0000
  C   C263      1.0  0.05451  0.70784  0.80645  1.0000
  H   H261      1.0  0.14843  0.61266  0.65826  1.0000
  H   H262      1.0  0.16017  0.67914  0.97507  1.0000
  C   C264      1.0  0.00785  0.73928  0.89116  1.0000
  H   H263      1.0  0.06658  0.69565  0.81182  1.0000
  C   C265      1.0  0.25597  0.83001  0.77415  1.0000
  H   H264      1.0  0.00526  0.62763  0.61564  1.0000
  N   N22       1.0  0.13578  0.63863  0.63419  1.0000
  H   H265      1.0  0.17360  0.72701  0.96226  1.0000
  C   C266      1.0  0.15158  0.62194  0.63751  1.0000
  C   C267      1.0  0.29214  0.81813  0.84063  1.0000
  H   H266      1.0  0.09828  0.65662  0.58507  1.0000
  H   H267      1.0  0.28221  0.80875  0.85367  1.0000
  C   C268      1.0  0.26393  0.82406  0.80357  1.0000
  N   N23       1.0  0.03532  0.70310  0.81942  1.0000
  H   H268      1.0  0.17925  0.75413  0.90772  1.0000
  H   H269      1.0  0.05871  0.72198  0.81680  1.0000
  C   C269      1.0  0.16455  0.74807  0.91018  1.0000
  C   C270      1.0  0.15603  0.74416  0.99679  1.0000
  H   H270      1.0  0.26271  0.91639  0.97039  1.0000
  C   C271      1.0  0.31342  0.88293  0.73602  1.0000
  C   C272      1.0  0.26245  0.87133  0.98277  1.0000
  C   C273      1.0  0.09407  0.50892  0.65240  1.0000
  C   C274      1.0  0.10638  0.50604  0.67901  1.0000
  H   H271      1.0  0.02755  0.56086  0.59529  1.0000
  C   C275      1.0  0.10822  0.65582  0.60537  1.0000
  H   H272      1.0  0.30721  0.80959  0.83897  1.0000
  C   C276      1.0  0.29673  0.82909  0.78637  1.0000
  C   C277      1.0  0.99971  0.70177  0.81423  1.0000
  H   H273      1.0  0.16635  0.73170  0.90558  1.0000
  C   C278      1.0  0.11816  0.66856  0.65536  1.0000
  H   H274      1.0  0.11346  0.51847  0.68856  1.0000
  H   H275      1.0  0.25379  0.82011  0.82189  1.0000
  C   C279      1.0  0.01108  0.58958  0.60432  1.0000
  C   C280      1.0  0.01818  0.70570  0.80158  1.0000
  H   H276      1.0  0.00958  0.73444  0.91538  1.0000
  H   H277      1.0  0.04173  0.51630  0.70197  1.0000
  H   H278      1.0  0.04802  0.69583  0.86458  1.0000
  C   C281      1.0  0.04091  0.50028  0.70033  1.0000
  H   H279      1.0  0.00136  0.75719  0.80486  1.0000
  H   H280      1.0  0.26273  0.84068  0.72793  1.0000
  C   C282      1.0  0.14892  0.68927  0.98665  1.0000
  H   H281      1.0  0.28692  0.88405  0.76540  1.0000
  C   C283      1.0  0.12131  0.71542  0.98412  1.0000
  N   N24       1.0  0.16808  0.90601  0.82436  1.0000
  C   C284      1.0  0.17931  0.89933  0.79894  1.0000
  C   C285      1.0  0.15753  0.89315  0.84102  1.0000
  C   C286      1.0  0.17989  0.87941  0.78928  1.0000
  C   C287      1.0  0.15753  0.87320  0.83171  1.0000
  C   C288      1.0  0.16877  0.86635  0.80564  1.0000
  C   C289      1.0  0.16835  0.92670  0.83506  1.0000
  H   H282      1.0  0.18808  0.90935  0.78614  1.0000
  H   H283      1.0  0.14914  0.89826  0.86175  1.0000
  H   H284      1.0  0.18912  0.87405  0.76954  1.0000
  H   H285      1.0  0.14916  0.86299  0.84488  1.0000
  H   H286      1.0  0.16920  0.85082  0.79849  1.0000
  H   H287      1.0  0.18076  0.92755  0.85231  1.0000
  H   H288      1.0  0.17096  0.93687  0.81512  1.0000
  H   H289      1.0  0.15390  0.93245  0.84610  1.0000
  C   C290      1.0  0.30309  0.88096  0.76461  1.0000
  H   H290      1.0  0.13748  0.77817  0.92713  1.0000
  H   H291      1.0  0.12380  0.78533  0.98032  1.0000
  C   C291      1.0  0.26933  0.92121  0.99283  1.0000
  H   H292      1.0  0.30500  0.88757  0.71503  1.0000
  H   H293      1.0  0.14264  0.65116  0.67849  1.0000
  C   C292      1.0  0.28929  0.83515  0.75670  1.0000
  H   H294      1.0  0.31259  0.82959  0.79134  1.0000
  H   H295      1.0  0.01255  0.50330  0.67620  1.0000
  H   H296      1.0  0.01862  0.71127  0.77768  1.0000
  H   H297      1.0  0.23059  0.93330  0.98256  1.0000
  C   C293      1.0  0.00315  0.75203  0.82893  1.0000
  C   C294      1.0  0.19990  0.99313  0.80501  1.0000
  C   C295      1.0  0.99887  0.69520  0.84528  1.0000
  Fe  Fe49      1.0  0.61838  0.08235  0.40513  1.0000
  S   S97       1.0  0.59983  0.08932  0.36144  1.0000
  S   S98       1.0  0.62205  0.10749  0.43894  1.0000
  Fe  Fe50      1.0  0.62763  0.03912  0.38741  1.0000
  S   S99       1.0  0.60977  0.04240  0.34280  1.0000
  C   C296      1.0  0.34034  0.08858  0.29789  1.0000
  Fe  Fe51      1.0  0.62506  0.07046  0.33645  1.0000
  S   S100      1.0  0.63827  0.07844  0.28898  1.0000
  Fe  Fe52      1.0  0.58639  0.06058  0.37184  1.0000
  S   S101      1.0  0.55464  0.05171  0.37952  1.0000
  S   S102      1.0  0.64435  0.06585  0.37950  1.0000
  S   S103      1.0  0.60370  0.05512  0.41709  1.0000
  Fe  Fe53      1.0  0.40534  0.07638  0.41502  1.0000
  S   S104      1.0  0.40681  0.09013  0.36656  1.0000
  S   S105      1.0  0.39816  0.09429  0.45940  1.0000
  Fe  Fe54      1.0  0.42127  0.03559  0.39240  1.0000
  S   S106      1.0  0.42421  0.04565  0.34251  1.0000
  H   H298      1.0  0.40392  0.00809  0.35724  1.0000
  Fe  Fe55      1.0  0.43718  0.07211  0.36351  1.0000
  S   S107      1.0  0.46449  0.08542  0.34361  1.0000
  Fe  Fe56      1.0  0.39347  0.06257  0.34923  1.0000
  S   S108      1.0  0.37130  0.05779  0.30888  1.0000
  S   S109      1.0  0.43647  0.06069  0.41281  1.0000
  S   S110      1.0  0.38988  0.05021  0.39819  1.0000
  C   C297      1.0  0.34906  0.06940  0.29009  1.0000
  H   H299      1.0  0.62790  0.13562  0.48626  1.0000
  H   H300      1.0  0.63657  0.12302  0.28683  1.0000
  C   C298      1.0  0.56814  0.10589  0.46115  1.0000
  H   H301      1.0  0.66120  0.11069  0.40912  1.0000
  C   C299      1.0  0.56295  0.07115  0.49408  1.0000
  H   H302      1.0  0.44059  0.06528  0.48028  1.0000
  H   H303      1.0  0.65231  0.01687  0.33038  1.0000
  C   C300      1.0  0.52982  0.06182  0.36939  1.0000
  C   C301      1.0  0.52577  0.07892  0.35063  1.0000
  C   C302      1.0  0.50572  0.08602  0.34301  1.0000
  C   C303      1.0  0.48952  0.07623  0.35419  1.0000
  C   C304      1.0  0.49361  0.05924  0.37314  1.0000
  C   C305      1.0  0.51362  0.05209  0.38061  1.0000
  H   H304      1.0  0.53804  0.08654  0.34173  1.0000
  H   H305      1.0  0.50274  0.09917  0.32831  1.0000
  H   H306      1.0  0.48136  0.05151  0.38186  1.0000
  H   H307      1.0  0.51655  0.03887  0.39514  1.0000
  C   C306      1.0  0.42610  0.08646  0.28323  1.0000
  H   H308      1.0  0.59956  0.01536  0.39375  1.0000
  H   H309      1.0  0.43069  0.09811  0.29848  1.0000
  H   H310      1.0  0.37968  0.10629  0.26503  1.0000
  C   C307      1.0  0.39169  0.10314  0.28303  1.0000
  C   C308      1.0  0.66322  0.00346  0.32660  1.0000
  S   S111      1.0  0.64254  0.00891  0.40021  1.0000
  C   C309      1.0  0.62142  0.10516  0.48042  1.0000
  H   H311      1.0  0.39226  0.05281  0.47255  1.0000
  N   N25       1.0  0.56911  0.10575  0.49331  1.0000
  H   H312      1.0  0.63276  0.12201  0.37411  1.0000
  H   H313      1.0  0.39863  0.11722  0.28721  1.0000
  C   C310      1.0  0.43447  0.05512  0.25648  1.0000
  C   C311      1.0  0.34025  0.05910  0.26572  1.0000
  H   H314      1.0  0.55889  0.05778  0.44865  1.0000
  C   C312      1.0  0.40082  0.07184  0.25475  1.0000
  H   H315      1.0  0.45569  0.07025  0.28330  1.0000
  C   C313      1.0  0.66396  0.07512  0.27691  1.0000
  H   H316      1.0  0.38454  0.09866  0.30513  1.0000
  H   H317      1.0  0.38523  0.07184  0.24761  1.0000
  H   H318      1.0  0.65709  0.08548  0.22967  1.0000
  C   C314      1.0  0.61704  0.08770  0.49614  1.0000
  H   H319      1.0  0.61477  0.07447  0.48276  1.0000
  H   H320      1.0  0.62374  0.00059  0.32037  1.0000
  N   N26       1.0  0.40667  0.08700  0.27288  1.0000
  H   H321      1.0  0.40966  0.04341  0.23282  1.0000
  C   C315      1.0  0.64758  0.11850  0.36404  1.0000
  C   C316      1.0  0.56430  0.08869  0.44469  1.0000
  H   H322      1.0  0.34676  0.09674  0.31661  1.0000
  S   S112      1.0  0.43163  0.00462  0.40952  1.0000
  H   H323      1.0  0.58252  0.13301  0.49751  1.0000
  H   H324      1.0  0.56353  0.08876  0.41916  1.0000
  C   C317      1.0  0.44033  0.07066  0.27485  1.0000
  H   H325      1.0  0.62005  0.11895  0.31824  1.0000
  H   H326      1.0  0.44526  0.04254  0.25057  1.0000
  H   H327      1.0  0.34679  0.04427  0.25937  1.0000
  C   C318      1.0  0.60409  0.99949  0.39354  1.0000
  C   C319      1.0  0.41457  0.05565  0.24640  1.0000
  H   H328      1.0  0.57053  0.11929  0.44801  1.0000
  N   N27       1.0  0.65043  0.11989  0.33229  1.0000
  C   C320      1.0  0.56167  0.07125  0.46131  1.0000
  C   C321      1.0  0.66365  0.11215  0.38401  1.0000
  C   C322      1.0  0.63335  0.12673  0.31192  1.0000
  H   H329      1.0  0.44580  0.09843  0.46945  1.0000
  H   H330      1.0  0.62964  0.14313  0.31419  1.0000
  C   C323      1.0  0.39249  0.06073  0.49463  1.0000
  H   H331      1.0  0.42978  0.11320  0.49591  1.0000
  C   C324      1.0  0.39465  0.08120  0.49472  1.0000
  C   C325      1.0  0.44425  0.10352  0.49428  1.0000
  C   C326      1.0  0.62445  0.12211  0.49804  1.0000
  Fe  Fe57      1.0  0.62901  0.06118  0.68048  1.0000
  S   S113      1.0  0.63252  0.05640  0.62822  1.0000
  C   C327      1.0  0.51389  0.99641  0.69195  1.0000
  Fe  Fe58      1.0  0.58232  0.06800  0.67339  1.0000
  S   S114      1.0  0.58293  0.06386  0.62105  1.0000
  S   S115      1.0  0.55330  0.06936  0.70168  1.0000
  Fe  Fe59      1.0  0.60631  0.03840  0.63141  1.0000
  H   H332      1.0  0.44424  0.07735  0.59449  1.0000
  Fe  Fe60      1.0  0.60903  0.08230  0.62214  1.0000
  S   S116      1.0  0.61306  0.10721  0.58757  1.0000
  S   S117      1.0  0.60434  0.04107  0.68377  1.0000
  S   S118      1.0  0.60696  0.08875  0.67436  1.0000
  Fe  Fe61      1.0  0.39403  0.07511  0.69901  1.0000
  S   S119      1.0  0.38884  0.04539  0.67865  1.0000
  S   S120      1.0  0.36936  0.09313  0.72758  1.0000
  Fe  Fe62      1.0  0.43575  0.07485  0.66728  1.0000
  S   S121      1.0  0.43303  0.04516  0.64506  1.0000
  S   S122      1.0  0.46356  0.08844  0.64981  1.0000
  Fe  Fe63      1.0  0.40132  0.05663  0.63367  1.0000
  S   S123      1.0  0.38886  0.04696  0.58722  1.0000
  Fe  Fe64      1.0  0.42104  0.03649  0.69141  1.0000
  H   H333      1.0  0.48425  0.04184  0.65166  1.0000
  S   S124      1.0  0.40434  0.08725  0.65256  1.0000
  S   S125      1.0  0.42589  0.06539  0.71527  1.0000
  C   C328      1.0  0.39111  0.06052  0.55201  1.0000
  H   H334      1.0  0.35149  0.04816  0.62631  1.0000
  C   C329      1.0  0.39041  0.05052  0.52316  1.0000
  C   C330      1.0  0.34483  0.09700  0.64799  1.0000
  H   H335      1.0  0.38846  0.03475  0.52287  1.0000
  H   H336      1.0  0.44021  0.04320  0.57483  1.0000
  C   C331      1.0  0.52850  0.07472  0.68670  1.0000
  C   C332      1.0  0.51214  0.07092  0.70570  1.0000
  C   C333      1.0  0.49221  0.07477  0.69465  1.0000
  C   C334      1.0  0.48840  0.08283  0.66459  1.0000
  C   C335      1.0  0.50475  0.08665  0.64559  1.0000
  C   C336      1.0  0.52470  0.08246  0.65643  1.0000
  H   H337      1.0  0.51490  0.06498  0.72917  1.0000
  H   H338      1.0  0.47981  0.07187  0.70965  1.0000
  H   H339      1.0  0.50199  0.09299  0.62238  1.0000
  H   H340      1.0  0.53712  0.08555  0.64161  1.0000
  H   H341      1.0  0.54059  0.01037  0.67994  1.0000
  H   H342      1.0  0.58090  0.01331  0.66098  1.0000
  C   C337      1.0  0.41184  0.99541  0.65566  1.0000
  C   C338      1.0  0.61770  0.10493  0.54670  1.0000
  C   C339      1.0  0.34591  0.06147  0.63933  1.0000
  C   C340      1.0  0.44508  0.09010  0.54791  1.0000
  H   H343      1.0  0.61152  0.07426  0.54146  1.0000
  H   H344      1.0  0.62446  0.13547  0.54389  1.0000
  C   C341      1.0  0.56653  0.08870  0.50983  1.0000
  C   C342      1.0  0.35002  0.08403  0.75081  1.0000
  C   C343      1.0  0.35173  0.08003  0.63066  1.0000
  H   H345      1.0  0.39636  0.10718  0.52380  1.0000
  S   S126      1.0  0.43179  0.00562  0.70844  1.0000
  C   C344      1.0  0.62253  0.12202  0.53080  1.0000
  H   H346      1.0  0.55714  0.13356  0.51231  1.0000
  H   H347      1.0  0.45685  0.11248  0.49965  1.0000
  C   C345      1.0  0.33165  0.05719  0.77080  1.0000
  C   C346      1.0  0.39339  0.08097  0.55217  1.0000
  H   H348      1.0  0.56756  0.08852  0.53533  1.0000
  H   H349      1.0  0.43874  0.03721  0.51725  1.0000
  C   C347      1.0  0.33607  0.09780  0.76621  1.0000
  H   H350      1.0  0.36175  0.08117  0.61086  1.0000
  S   S127      1.0  0.60658  0.00911  0.60607  1.0000
  H   H351      1.0  0.39384  0.08884  0.57425  1.0000
  C   C348      1.0  0.44394  0.07448  0.56942  1.0000
  H   H352      1.0  0.35824  0.05282  0.74163  1.0000
  H   H353      1.0  0.46647  0.01528  0.67598  1.0000
  C   C349      1.0  0.58477  0.99765  0.65630  1.0000
  H   H354      1.0  0.64665  0.08401  0.75467  1.0000
  C   C350      1.0  0.44101  0.05191  0.52610  1.0000
  N   N28       1.0  0.44416  0.08668  0.51625  1.0000
  H   H355      1.0  0.56126  0.05757  0.50721  1.0000
  H   H356      1.0  0.57807  0.12122  0.53413  1.0000
  N   N29       1.0  0.49334  0.99782  0.69056  1.0000
  C   C351      1.0  0.39483  0.09132  0.52357  1.0000
  H   H357      1.0  0.62629  0.00536  0.71667  1.0000
  S   S128      1.0  0.65867  0.05301  0.70736  1.0000
  C   C352      1.0  0.61522  0.08757  0.52937  1.0000
  C   C353      1.0  0.44182  0.05529  0.55839  1.0000
  C   C354      1.0  0.49273  0.02900  0.66261  1.0000
  C   C355      1.0  0.66275  0.10278  0.68336  1.0000
  C   C356      1.0  0.34768  0.06364  0.75323  1.0000
  C   C357      1.0  0.44214  0.06788  0.50525  1.0000
  H   H358      1.0  0.64354  0.01206  0.66673  1.0000
  H   H359      1.0  0.40923  0.01118  0.65067  1.0000
  H   H360      1.0  0.52159  0.03935  0.65352  1.0000
  H   H361      1.0  0.64954  0.10090  0.69843  1.0000
  C   C358      1.0  0.57178  0.12430  0.51012  1.0000
  H   H362      1.0  0.34973  0.11133  0.64152  1.0000
  H   H363      1.0  0.66426  0.08983  0.66701  1.0000
  C   C359      1.0  0.48276  0.01395  0.67644  1.0000
  C   C360      1.0  0.52433  0.01131  0.67857  1.0000
  H   H364      1.0  0.44630  0.10505  0.55676  1.0000
  H   H365      1.0  0.33774  0.11361  0.76468  1.0000
  H   H366      1.0  0.65978  0.11669  0.66921  1.0000
  N   N30       1.0  0.33222  0.09555  0.67296  1.0000
  C   C361      1.0  0.66170  0.07742  0.76003  1.0000
  H   H367      1.0  0.33775  0.12059  0.70059  1.0000
  C   C362      1.0  0.51365  0.02763  0.66371  1.0000
  C   C363      1.0  0.64079  0.99688  0.67288  1.0000
  C   C364      1.0  0.33342  0.06004  0.66528  1.0000
  Fe  Fe65      1.0  0.60161  0.87674  0.39590  1.0000
  S   S129      1.0  0.60452  0.86325  0.34719  1.0000
  S   S130      1.0  0.60164  0.85912  0.44141  1.0000
  Fe  Fe66      1.0  0.58959  0.91823  0.37042  1.0000
  S   S131      1.0  0.59110  0.90840  0.32034  1.0000
  S   S132      1.0  0.57686  0.94947  0.38198  1.0000
  Fe  Fe67      1.0  0.57542  0.88249  0.33739  1.0000
  S   S133      1.0  0.54855  0.87309  0.31057  1.0000
  Fe  Fe68      1.0  0.62022  0.89042  0.33399  1.0000
  S   S134      1.0  0.57176  0.89391  0.38635  1.0000
  S   S135      1.0  0.61938  0.90219  0.38390  1.0000
  Fe  Fe69      1.0  0.43300  0.87421  0.36049  1.0000
  S   S136      1.0  0.42327  0.90342  0.38397  1.0000
  S   S137      1.0  0.46484  0.86132  0.37267  1.0000
  Fe  Fe70      1.0  0.39090  0.87176  0.33142  1.0000
  S   S138      1.0  0.37866  0.90059  0.35337  1.0000
  S   S139      1.0  0.37094  0.85485  0.29958  1.0000
  Fe  Fe71      1.0  0.40766  0.91135  0.33831  1.0000
  S   S140      1.0  0.40610  0.94086  0.31342  1.0000
  Fe  Fe72      1.0  0.39548  0.88962  0.39699  1.0000
  S   S141      1.0  0.38056  0.89673  0.44389  1.0000
  S   S142      1.0  0.41926  0.88320  0.31349  1.0000
  S   S143      1.0  0.40577  0.85961  0.37646  1.0000
  C   C365      1.0  0.34857  0.86585  0.28099  1.0000
  H   H368      1.0  0.54824  0.94405  0.33377  1.0000
  H   H369      1.0  0.58166  0.91636  0.46971  1.0000
  C   C366      1.0  0.35276  0.89960  0.21074  1.0000
  H   H370      1.0  0.36398  0.85961  0.42180  1.0000
  H   H371      1.0  0.33947  0.92943  0.21960  1.0000
  H   H372      1.0  0.35316  0.95278  0.25206  1.0000
  H   H373      1.0  0.64553  0.96595  0.40050  1.0000
  H   H374      1.0  0.35680  0.81656  0.38063  1.0000
  C   C367      1.0  0.62317  0.96884  0.31692  1.0000
  H   H375      1.0  0.34784  0.89423  0.30438  1.0000
  H   H376      1.0  0.47527  0.94314  0.35017  1.0000
  C   C368      1.0  0.35204  0.91842  0.22492  1.0000
  H   H377      1.0  0.40973  0.86204  0.45696  1.0000
  H   H378      1.0  0.40621  0.98482  0.46317  1.0000
  C   C369      1.0  0.40463  0.97321  0.48060  1.0000
  C   C370      1.0  0.40564  0.97875  0.33659  1.0000
  C   C371      1.0  0.41439  0.95896  0.33843  1.0000
  C   C372      1.0  0.42921  0.95357  0.36101  1.0000
  C   C373      1.0  0.43474  0.96774  0.38256  1.0000
  H   H379      1.0  0.54474  0.97920  0.34635  1.0000
  H   H380      1.0  0.39422  0.98301  0.31909  1.0000
  H   H381      1.0  0.43659  0.93854  0.36163  1.0000
  H   H382      1.0  0.44605  0.96350  0.40024  1.0000
  C   C374      1.0  0.52433  0.87307  0.32727  1.0000
  C   C375      1.0  0.52050  0.87818  0.35871  1.0000
  C   C376      1.0  0.50154  0.87613  0.37187  1.0000
  C   C377      1.0  0.48618  0.86915  0.35370  1.0000
  C   C378      1.0  0.48970  0.86502  0.32186  1.0000
  C   C379      1.0  0.50869  0.86695  0.30875  1.0000
  H   H383      1.0  0.53233  0.88291  0.37330  1.0000
  H   H384      1.0  0.49905  0.87910  0.39662  1.0000
  H   H385      1.0  0.47813  0.85925  0.30775  1.0000
  H   H386      1.0  0.51146  0.86303  0.28437  1.0000
  S   S144      1.0  0.64776  0.89728  0.30511  1.0000
  H   H387      1.0  0.62737  0.93662  0.31499  1.0000
  C   C380      1.0  0.61559  0.88861  0.47839  1.0000
  H   H388      1.0  0.60696  0.96971  0.31490  1.0000
  H   H389      1.0  0.39364  0.91176  0.26972  1.0000
  C   C381      1.0  0.58957  0.98624  0.38910  1.0000
  C   C382      1.0  0.59525  0.96568  0.38818  1.0000
  C   C383      1.0  0.61539  0.95835  0.39264  1.0000
  C   C384      1.0  0.62991  0.97162  0.39750  1.0000
  C   C385      1.0  0.59705  0.96240  0.47801  1.0000
  H   H390      1.0  0.61990  0.94254  0.39225  1.0000
  C   C386      1.0  0.36532  0.82986  0.37936  1.0000
  H   H391      1.0  0.59768  0.92849  0.44383  1.0000
  C   C387      1.0  0.60531  0.87154  0.47737  1.0000
  C   C388      1.0  0.38217  0.90846  0.25299  1.0000
  H   H392      1.0  0.41945  0.94194  0.43186  1.0000
  C   C389      1.0  0.35270  0.86200  0.40338  1.0000
  N   N31       1.0  0.36669  0.92263  0.24569  1.0000
  N   N32       1.0  0.58998  0.94464  0.48570  1.0000
  C   C390      1.0  0.40410  0.94861  0.43802  1.0000
  H   H393      1.0  0.36386  0.94043  0.28685  1.0000
  C   C391      1.0  0.38329  0.88945  0.23940  1.0000
  C   C392      1.0  0.38911  0.88445  0.47901  1.0000
  C   C393      1.0  0.34048  0.88542  0.28755  1.0000
  C   C394      1.0  0.33867  0.85467  0.25901  1.0000
  N   N33       1.0  0.40331  0.95388  0.47146  1.0000
  N   N34       1.0  0.55066  0.83181  0.36930  1.0000
  C   C395      1.0  0.56150  0.83819  0.39398  1.0000
  C   C396      1.0  0.53062  0.82988  0.37260  1.0000
  C   C397      1.0  0.55215  0.84335  0.42261  1.0000
  C   C398      1.0  0.52082  0.83479  0.40097  1.0000
  C   C399      1.0  0.53167  0.84170  0.42603  1.0000
  C   C400      1.0  0.56077  0.82604  0.33969  1.0000
  H   H394      1.0  0.57747  0.83945  0.39166  1.0000
  H   H395      1.0  0.52194  0.82505  0.35297  1.0000
  H   H396      1.0  0.56081  0.84865  0.44194  1.0000
  H   H397      1.0  0.50476  0.83388  0.40306  1.0000
  H   H398      1.0  0.52419  0.84590  0.44797  1.0000
  H   H399      1.0  0.57318  0.83540  0.33500  1.0000
  H   H400      1.0  0.56692  0.81008  0.34062  1.0000
  H   H401      1.0  0.55028  0.82853  0.31937  1.0000
  N   N35       1.0  0.52116  0.96018  0.35033  1.0000
  C   C401      1.0  0.50099  0.95989  0.35528  1.0000
  C   C402      1.0  0.53218  0.94404  0.33718  1.0000
  C   C403      1.0  0.49129  0.94329  0.34639  1.0000
  C   C404      1.0  0.52297  0.92724  0.32797  1.0000
  H   H402      1.0  0.40011  0.96189  0.42271  1.0000
  H   H403      1.0  0.65448  0.85622  0.27967  1.0000
  H   H404      1.0  0.49226  0.97253  0.36616  1.0000
  H   H405      1.0  0.53619  0.97516  0.38563  1.0000
  H   H406      1.0  0.39523  0.87802  0.24605  1.0000
  C   C405      1.0  0.50239  0.92687  0.33265  1.0000
  H   H407      1.0  0.34472  0.83949  0.25377  1.0000
  C   C406      1.0  0.53122  0.97739  0.36079  1.0000
  H   H408      1.0  0.53179  0.91455  0.31739  1.0000
  H   H409      1.0  0.57153  0.93790  0.44739  1.0000
  H   H410      1.0  0.62173  0.89422  0.45702  1.0000
  C   C407      1.0  0.36574  0.94220  0.26104  1.0000
  H   H411      1.0  0.52113  0.99157  0.35879  1.0000
  C   C408      1.0  0.40347  0.86777  0.47895  1.0000
  H   H412      1.0  0.49512  0.91382  0.32578  1.0000
  H   H413      1.0  0.37996  0.94907  0.25707  1.0000
  H   H414      1.0  0.59929  0.96628  0.45363  1.0000
  N   N36       1.0  0.35147  0.84823  0.37998  1.0000
  H   H415      1.0  0.37413  0.82921  0.35716  1.0000
  H   H416      1.0  0.39329  0.93759  0.43255  1.0000
  H   H417      1.0  0.37616  0.82904  0.39931  1.0000
  C   C409      1.0  0.58494  0.93117  0.46051  1.0000
  H   H418      1.0  0.34079  0.89610  0.19503  1.0000
  H   H419      1.0  0.36884  0.87017  0.20817  1.0000
  C   C410      1.0  0.63460  0.95027  0.31721  1.0000
  C   C411      1.0  0.36848  0.88505  0.21812  1.0000
  C   C412      1.0  0.65540  0.94930  0.32065  1.0000
  N   N37       1.0  0.65319  0.98517  0.32367  1.0000
  C   C413      1.0  0.63277  0.98625  0.32011  1.0000
  H   H420      1.0  0.57400  0.99203  0.38595  1.0000
  C   C414      1.0  0.42550  0.98736  0.38139  1.0000
  C   C415      1.0  0.62428  0.99222  0.39746  1.0000
  C   C416      1.0  0.33732  0.85148  0.35674  1.0000
  H   H421      1.0  0.33664  0.84076  0.33782  1.0000
  C   C417      1.0  0.66451  0.96701  0.32382  1.0000
  H   H422      1.0  0.66434  0.93485  0.32091  1.0000
  H   H423      1.0  0.34075  0.89056  0.42221  1.0000
  C   C418      1.0  0.33957  0.87960  0.40376  1.0000
  H   H424      1.0  0.40158  0.92377  0.48614  1.0000
  C   C419      1.0  0.41115  0.99295  0.35816  1.0000
  C   C420      1.0  0.40206  0.93915  0.49344  1.0000
  H   H425      1.0  0.60726  0.98983  0.49522  1.0000
  Fe  Fe73      1.0  0.58701  0.91484  0.67828  1.0000
  S   S145      1.0  0.58328  0.88620  0.70371  1.0000
  S   S146      1.0  0.57905  0.94507  0.69940  1.0000
  Fe  Fe74      1.0  0.60258  0.89446  0.61823  1.0000
  S   S147      1.0  0.60026  0.86394  0.63895  1.0000
  S   S148      1.0  0.61370  0.90429  0.57065  1.0000
  Fe  Fe75      1.0  0.57008  0.87716  0.65767  1.0000
  S   S149      1.0  0.54093  0.86297  0.64909  1.0000
  Fe  Fe76      1.0  0.61373  0.87591  0.68327  1.0000
  S   S150      1.0  0.57185  0.90674  0.63396  1.0000
  S   S151      1.0  0.61810  0.90534  0.66106  1.0000
  Fe  Fe77      1.0  0.42435  0.88298  0.67624  1.0000
  S   S152      1.0  0.42527  0.89361  0.62649  1.0000
  S   S153      1.0  0.45309  0.87732  0.70518  1.0000
  Fe  Fe78      1.0  0.37812  0.88269  0.67673  1.0000
  S   S154      1.0  0.37612  0.89298  0.62604  1.0000
  S   S155      1.0  0.34642  0.88111  0.69707  1.0000
  Fe  Fe79      1.0  0.40324  0.87155  0.61663  1.0000
  S   S156      1.0  0.40965  0.85367  0.57202  1.0000
  Fe  Fe80      1.0  0.39824  0.91412  0.63943  1.0000
  S   S157      1.0  0.39379  0.94510  0.61936  1.0000
  S   S158      1.0  0.40385  0.85903  0.66603  1.0000
  S   S159      1.0  0.39869  0.90571  0.69055  1.0000
  C   C421      1.0  0.40185  0.86580  0.53636  1.0000
  C   C422      1.0  0.38774  0.88266  0.53628  1.0000
  C   C423      1.0  0.37625  0.95381  0.74413  1.0000
  H   H426      1.0  0.38152  0.88847  0.55819  1.0000
  C   C424      1.0  0.60152  0.97582  0.50145  1.0000
  C   C425      1.0  0.36630  0.95770  0.68971  1.0000
  H   H427      1.0  0.64792  0.89913  0.72869  1.0000
  H   H428      1.0  0.47058  0.97800  0.68890  1.0000
  H   H429      1.0  0.38473  0.95833  0.76421  1.0000
  C   C426      1.0  0.34509  0.87296  0.76172  1.0000
  H   H430      1.0  0.34309  0.86567  0.81109  1.0000
  H   H431      1.0  0.36370  0.92992  0.76885  1.0000
  H   H432      1.0  0.36125  0.86974  0.76088  1.0000
  H   H433      1.0  0.40020  0.93200  0.54299  1.0000
  C   C427      1.0  0.42670  0.96794  0.68768  1.0000
  C   C428      1.0  0.41849  0.95438  0.66758  1.0000
  C   C429      1.0  0.40653  0.96144  0.64203  1.0000
  C   C430      1.0  0.40349  0.98193  0.63579  1.0000
  C   C431      1.0  0.64639  0.98105  0.65238  1.0000
  H   H434      1.0  0.43549  0.96248  0.70793  1.0000
  H   H435      1.0  0.42118  0.93852  0.67219  1.0000
  H   H436      1.0  0.60198  0.98136  0.55130  1.0000
  H   H437      1.0  0.60839  0.96661  0.60215  1.0000
  C   C432      1.0  0.51754  0.87234  0.66581  1.0000
  C   C433      1.0  0.51400  0.86973  0.69790  1.0000
  C   C434      1.0  0.49427  0.87229  0.70978  1.0000
  C   C435      1.0  0.47777  0.87740  0.68977  1.0000
  C   C436      1.0  0.48135  0.88088  0.65787  1.0000
  C   C437      1.0  0.50112  0.87829  0.64598  1.0000
  H   H438      1.0  0.52638  0.86471  0.71336  1.0000
  H   H439      1.0  0.49171  0.86956  0.73445  1.0000
  H   H440      1.0  0.46886  0.88484  0.64215  1.0000
  H   H441      1.0  0.50362  0.88017  0.62109  1.0000
  C   C438      1.0  0.61074  0.89096  0.53531  1.0000
  C   C439      1.0  0.60046  0.87388  0.53434  1.0000
  C   C440      1.0  0.59144  0.95282  0.54057  1.0000
  H   H442      1.0  0.59456  0.86814  0.55582  1.0000
  H   H443      1.0  0.46420  0.84266  0.58488  1.0000
  C   C441      1.0  0.36452  0.93788  0.74673  1.0000
  C   C442      1.0  0.58357  0.96296  0.67111  1.0000
  C   C443      1.0  0.59319  0.95701  0.64303  1.0000
  C   C444      1.0  0.59963  0.97133  0.62255  1.0000
  C   C445      1.0  0.63303  0.95818  0.68723  1.0000
  H   H444      1.0  0.59651  0.94136  0.63770  1.0000
  H   H445      1.0  0.61513  0.83870  0.76251  1.0000
  C   C446      1.0  0.57899  0.98330  0.67748  1.0000
  N   N38       1.0  0.64282  0.96193  0.65998  1.0000
  C   C447      1.0  0.61838  0.89818  0.50723  1.0000
  C   C448      1.0  0.33447  0.87891  0.73428  1.0000
  N   N39       1.0  0.48771  0.83605  0.61865  1.0000
  C   C449      1.0  0.46806  0.83903  0.60918  1.0000
  C   C450      1.0  0.49245  0.83137  0.64933  1.0000
  C   C451      1.0  0.45255  0.83787  0.63082  1.0000
  C   C452      1.0  0.47728  0.83022  0.67161  1.0000
  C   C453      1.0  0.45723  0.83363  0.66227  1.0000
  C   C454      1.0  0.50370  0.83746  0.59553  1.0000
  H   H446      1.0  0.50801  0.82941  0.65702  1.0000
  H   H447      1.0  0.43701  0.84061  0.62326  1.0000
  H   H448      1.0  0.48104  0.82763  0.69622  1.0000
  H   H449      1.0  0.44536  0.83354  0.67958  1.0000
  H   H450      1.0  0.50564  0.82366  0.58113  1.0000
  H   H451      1.0  0.36999  0.90456  0.50801  1.0000
  C   C455      1.0  0.63180  0.88725  0.80422  1.0000
  H   H452      1.0  0.52236  0.98379  0.70351  1.0000
  C   C456      1.0  0.40964  0.85835  0.50756  1.0000
  H   H453      1.0  0.62926  0.94323  0.69257  1.0000
  C   C457      1.0  0.33471  0.87065  0.79021  1.0000
  H   H454      1.0  0.58169  0.92564  0.52284  1.0000
  H   H455      1.0  0.51828  0.83952  0.60713  1.0000
  N   N40       1.0  0.35530  0.94171  0.69220  1.0000
  H   H456      1.0  0.38602  0.97639  0.71326  1.0000
  C   C458      1.0  0.59862  0.97101  0.53293  1.0000
  S   S160      1.0  0.63908  0.85854  0.71188  1.0000
  C   C459      1.0  0.42307  0.98851  0.68201  1.0000
  H   H457      1.0  0.50008  0.85068  0.58000  1.0000
  H   H458      1.0  0.65324  0.98429  0.63012  1.0000
  C   C460      1.0  0.37701  0.96393  0.71555  1.0000
  H   H459      1.0  0.34474  0.91985  0.72272  1.0000
  H   H460      1.0  0.34170  0.91941  0.66641  1.0000
  H   H461      1.0  0.62656  0.91124  0.50780  1.0000
  C   C461      1.0  0.64858  0.94542  0.63825  1.0000
  C   C462      1.0  0.62497  0.87053  0.78979  1.0000
  H   H462      1.0  0.36707  0.96554  0.66749  1.0000
  H   H463      1.0  0.65509  0.93192  0.65133  1.0000
  H   H464      1.0  0.61855  0.97074  0.72901  1.0000
  H   H465      1.0  0.66001  0.94933  0.62105  1.0000
  H   H466      1.0  0.40168  0.96709  0.55999  1.0000
  C   C463      1.0  0.62695  0.97371  0.70802  1.0000
  H   H467      1.0  0.62325  0.82356  0.79625  1.0000
  H   H468      1.0  0.47479  0.98851  0.72692  1.0000
  C   C464      1.0  0.38120  0.89175  0.50774  1.0000
  C   C465      1.0  0.58710  0.93979  0.51652  1.0000
  H   H469      1.0  0.59014  0.85081  0.50503  1.0000
  C   C466      1.0  0.34424  0.93547  0.66477  1.0000
  C   C467      1.0  0.40138  0.94369  0.52555  1.0000
  H   H470      1.0  0.58940  0.94863  0.56494  1.0000
  C   C468      1.0  0.40394  0.97830  0.51255  1.0000
  C   C469      1.0  0.40224  0.96342  0.53510  1.0000
  H   H471      1.0  0.57142  0.98794  0.69909  1.0000
  H   H472      1.0  0.42056  0.84531  0.50740  1.0000
  H   H473      1.0  0.65934  0.83455  0.81694  1.0000
  C   C470      1.0  0.65915  0.86810  0.73294  1.0000
  H   H474      1.0  0.61228  0.87269  0.77373  1.0000
  C   C471      1.0  0.62794  0.83442  0.77874  1.0000
  C   C472      1.0  0.59585  0.99164  0.62952  1.0000
  H   H475      1.0  0.63520  0.94150  0.62500  1.0000
  H   H476      1.0  0.64026  0.82711  0.76396  1.0000
  N   N41       1.0  0.63475  0.85185  0.79462  1.0000
  C   C473      1.0  0.35391  0.93215  0.72044  1.0000
  C   C474      1.0  0.65127  0.84927  0.81380  1.0000
  H   H477      1.0  0.62438  0.90208  0.79954  1.0000
  C   C475      1.0  0.48235  0.98247  0.70520  1.0000
  C   C476      1.0  0.64880  0.88477  0.82350  1.0000
  C   C477      1.0  0.65949  0.88855  0.73871  1.0000
  H   H478      1.0  0.65480  0.89766  0.83379  1.0000
  C   C478      1.0  0.65859  0.86568  0.82843  1.0000
  H   H479      1.0  0.49236  0.96876  0.71130  1.0000
  C   C479      1.0  0.59792  0.86412  0.50551  1.0000
  H   H480      1.0  0.35291  0.93717  0.64281  1.0000
  H   H481      1.0  0.39428  0.98747  0.61604  1.0000
  C   C480      1.0  0.63105  0.99313  0.70089  1.0000
  H   H482      1.0  0.40472  0.99367  0.51977  1.0000
  Fe  Fe81      1.0  0.78396  0.08953  0.16708  1.0000
  S   S161      1.0  0.75037  0.09806  0.16598  1.0000
  S   S162      1.0  0.80219  0.11680  0.16197  1.0000
  Fe  Fe82      1.0  0.77754  0.04425  0.16354  1.0000
  S   S163      1.0  0.74395  0.05043  0.16183  1.0000
  S   S164      1.0  0.79251  0.01298  0.15205  1.0000
  Fe  Fe83      1.0  0.74969  0.07495  0.12774  1.0000
  S   S165      1.0  0.73200  0.08010  0.08195  1.0000
  Fe  Fe84      1.0  0.74761  0.07279  0.20022  1.0000
  S   S166      1.0  0.73067  0.07424  0.24746  1.0000
  S   S167      1.0  0.78299  0.06765  0.12733  1.0000
  S   S168      1.0  0.78147  0.06544  0.20383  1.0000
  Fe  Fe85      1.0  0.90902  0.39193  0.35930  1.0000
  S   S169      1.0  0.93728  0.37869  0.38315  1.0000
  S   S170      1.0  0.90105  0.42527  0.36881  1.0000
  Fe  Fe86      1.0  0.89858  0.35020  0.33818  1.0000
  S   S171      1.0  0.92553  0.33452  0.36236  1.0000
  S   S172      1.0  0.87911  0.33358  0.30498  1.0000
  Fe  Fe87      1.0  0.91874  0.35572  0.40282  1.0000
  S   S173      1.0  0.92844  0.34601  0.45253  1.0000
  Fe  Fe88      1.0  0.94147  0.35877  0.34118  1.0000
  S   S174      1.0  0.97075  0.34798  0.31862  1.0000
  S   S175      1.0  0.88991  0.36958  0.38077  1.0000
  S   S176      1.0  0.91507  0.37392  0.31507  1.0000
  Fe  Fe89      1.0  0.89229  0.22061  0.13138  1.0000
  S   S177      1.0  0.90897  0.19000  0.13275  1.0000
  S   S178      1.0  0.87475  0.22942  0.08666  1.0000
  Fe  Fe90      1.0  0.90271  0.22953  0.20009  1.0000
  S   S179      1.0  0.91960  0.19878  0.20538  1.0000
  S   S180      1.0  0.90736  0.24842  0.24394  1.0000
  Fe  Fe91      1.0  0.93298  0.20478  0.15850  1.0000
  S   S181      1.0  0.96555  0.19848  0.14252  1.0000
  Fe  Fe92      1.0  0.89383  0.18687  0.17939  1.0000
  S   S182      1.0  0.88243  0.15724  0.19548  1.0000
  S   S183      1.0  0.91722  0.23579  0.15377  1.0000
  S   S184      1.0  0.87596  0.21711  0.17743  1.0000
  C   C481      1.0  0.88628  0.30939  0.28916  1.0000
  C   C482      1.0  0.90179  0.29649  0.30243  1.0000
  C   C483      1.0  0.90741  0.27763  0.28889  1.0000
  C   C484      1.0  0.89785  0.27146  0.26161  1.0000
  C   C485      1.0  0.88206  0.28418  0.24860  1.0000
  C   C486      1.0  0.87628  0.30300  0.26241  1.0000
  H   H483      1.0  0.90945  0.30101  0.32323  1.0000
  H   H484      1.0  0.91950  0.26787  0.29936  1.0000
  H   H485      1.0  0.87441  0.27960  0.22782  1.0000
  H   H486      1.0  0.86409  0.31275  0.25215  1.0000
  C   C487      1.0  0.88704  0.25370  0.04051  1.0000
  C   C488      1.0  0.88673  0.23391  0.05059  1.0000
  C   C489      1.0  0.87421  0.47242  0.40140  1.0000
  H   H487      1.0  0.88312  0.26581  0.05677  1.0000
  H   H488      1.0  0.70023  0.10504  0.32868  1.0000
  H   H489      1.0  0.77279  0.00204  0.21003  1.0000
  H   H490      1.0  0.97959  0.15814  0.18293  1.0000
  H   H491      1.0  0.67196  0.00591  0.30502  1.0000
  H   H492      1.0  0.88815  0.36587  0.46533  1.0000
  H   H493      1.0  0.95884  0.30954  0.29857  1.0000
  H   H494      1.0  0.96383  0.14684  0.21053  1.0000
  C   C490      1.0  0.98778  0.20339  0.16278  1.0000
  C   C491      1.0  0.98818  0.20652  0.19530  1.0000
  H   H495      1.0  0.72083  0.03854  0.03999  1.0000
  H   H496      1.0  0.97445  0.20681  0.20871  1.0000
  C   C492      1.0  0.92778  0.13891  0.11524  1.0000
  H   H497      1.0  0.86251  0.47350  0.32540  1.0000
  C   C493      1.0  0.97734  0.38741  0.31749  1.0000
  C   C494      1.0  0.95826  0.15117  0.13392  1.0000
  H   H498      1.0  0.96131  0.39077  0.32064  1.0000
  C   C495      1.0  0.91572  0.46163  0.36438  1.0000
  C   C496      1.0  0.90850  0.44594  0.34748  1.0000
  C   C497      1.0  0.90291  0.44918  0.31597  1.0000
  H   H499      1.0  0.91987  0.45938  0.38884  1.0000
  H   H500      1.0  0.89694  0.43736  0.30282  1.0000
  C   C498      1.0  0.82558  0.12673  0.16919  1.0000
  C   C499      1.0  0.82845  0.14573  0.15695  1.0000
  C   C500      1.0  0.84591  0.15507  0.16403  1.0000
  C   C501      1.0  0.86078  0.14556  0.18368  1.0000
  C   C502      1.0  0.85813  0.12636  0.19541  1.0000
  C   C503      1.0  0.84072  0.11697  0.18815  1.0000
  H   H501      1.0  0.81692  0.15344  0.14220  1.0000
  H   H502      1.0  0.84765  0.16978  0.15473  1.0000
  H   H503      1.0  0.86952  0.11878  0.21055  1.0000
  H   H504      1.0  0.83886  0.10234  0.19769  1.0000
  H   H505      1.0  0.95159  0.14665  0.08494  1.0000
  N   N42       1.0  0.92719  0.30012  0.22494  1.0000
  N   N43       1.0  0.74920  0.02205  0.03065  1.0000
  H   H506      1.0  0.92357  0.30067  0.17537  1.0000
  H   H507      1.0  0.87294  0.45668  0.40590  1.0000
  C   C504      1.0  0.70480  0.07348  0.25725  1.0000
  C   C505      1.0  0.69978  0.06801  0.28803  1.0000
  C   C506      1.0  0.95310  0.28867  0.26195  1.0000
  C   C507      1.0  0.68919  0.07946  0.23619  1.0000
  H   H508      1.0  0.71168  0.06337  0.30457  1.0000
  C   C508      1.0  0.91541  0.29661  0.19673  1.0000
  H   H509      1.0  0.69271  0.08383  0.21250  1.0000
  C   C509      1.0  0.76398  0.06792  0.04294  1.0000
  C   C510      1.0  0.74415  0.07662  0.04503  1.0000
  C   C511      1.0  0.92110  0.13821  0.14621  1.0000
  H   H510      1.0  0.77238  0.06378  0.06402  1.0000
  C   C512      1.0  0.89119  0.21839  0.02878  1.0000
  H   H511      1.0  0.86420  0.45275  0.35184  1.0000
  C   C513      1.0  0.75306  0.01797  0.09549  1.0000
  H   H512      1.0  0.98335  0.41821  0.32046  1.0000
  C   C514      1.0  0.66916  0.11555  0.31971  1.0000
  H   H513      1.0  0.92747  0.14447  0.19446  1.0000
  C   C515      1.0  0.96375  0.15720  0.19014  1.0000
  C   C516      1.0  0.89543  0.36168  0.48748  1.0000
  C   C517      1.0  0.66895  0.08041  0.24606  1.0000
  C   C518      1.0  0.94644  0.14551  0.10897  1.0000
  C   C519      1.0  0.91627  0.48064  0.35066  1.0000
  H   H514      1.0  0.72416  0.03531  0.09762  1.0000
  H   H515      1.0  0.89071  0.20304  0.03613  1.0000
  C   C520      1.0  0.97319  0.46735  0.29185  1.0000
  H   H516      1.0  0.96628  0.45781  0.27538  1.0000
  C   C521      1.0  0.97759  0.33574  0.42086  1.0000
  H   H517      1.0  0.90641  0.13353  0.15130  1.0000
  C   C522      1.0  0.89120  0.25802  0.00904  1.0000
  C   C523      1.0  0.99070  0.36508  0.39731  1.0000
  H   H518      1.0  0.67606  0.06444  0.32151  1.0000
  H   H519      1.0  0.97963  0.36494  0.37878  1.0000
  C   C524      1.0  0.91496  0.35198  0.48765  1.0000
  H   H520      1.0  0.97279  0.33240  0.44517  1.0000
  H   H521      1.0  0.91280  0.32962  0.23220  1.0000
  C   C525      1.0  0.76845  0.00995  0.07587  1.0000
  H   H522      1.0  0.90043  0.30545  0.19739  1.0000
  C   C526      1.0  0.76623  0.01207  0.04327  1.0000
  H   H523      1.0  0.67144  0.11643  0.29450  1.0000
  C   C527      1.0  0.67954  0.06857  0.29771  1.0000
  H   H524      1.0  0.89805  0.47087  0.27839  1.0000
  C   C528      1.0  0.99104  0.49105  0.33471  1.0000
  N   N44       1.0  0.79977  0.13506  0.23659  1.0000
  C   C529      1.0  0.79164  0.15087  0.21875  1.0000
  C   C530      1.0  0.81776  0.13587  0.25163  1.0000
  C   C531      1.0  0.80171  0.16799  0.21536  1.0000
  C   C532      1.0  0.82829  0.15271  0.24860  1.0000
  C   C533      1.0  0.82020  0.16883  0.23028  1.0000
  C   C534      1.0  0.78953  0.11686  0.23927  1.0000
  H   H525      1.0  0.77776  0.14995  0.20585  1.0000
  H   H526      1.0  0.82441  0.12315  0.26514  1.0000
  H   H527      1.0  0.79559  0.18017  0.20026  1.0000
  H   H528      1.0  0.84298  0.15299  0.25937  1.0000
  H   H529      1.0  0.82858  0.18165  0.22684  1.0000
  H   H530      1.0  0.79972  0.10370  0.23144  1.0000
  H   H531      1.0  0.78484  0.11456  0.26391  1.0000
  H   H532      1.0  0.77599  0.11745  0.22391  1.0000
  H   H533      1.0  0.94345  0.27110  0.22375  1.0000
  H   H534      1.0  0.84216  0.47074  0.35256  1.0000
  H   H535      1.0  0.91255  0.28062  0.19518  1.0000
  C   C535      1.0  0.93316  0.14433  0.17056  1.0000
  C   C536      1.0  0.73337  0.08147  0.01710  1.0000
  C   C537      1.0  0.94149  0.28554  0.23535  1.0000
  N   N45       1.0  0.95160  0.15046  0.16427  1.0000
  C   C538      1.0  0.90331  0.46829  0.30230  1.0000
  H   H536      1.0  0.93321  0.33593  0.27898  1.0000
  C   C539      1.0  0.85871  0.46891  0.34962  1.0000
  N   N46       1.0  0.86815  0.48084  0.37314  1.0000
  C   C540      1.0  0.95019  0.30695  0.27762  1.0000
  C   C541      1.0  0.92435  0.31815  0.24003  1.0000
  C   C542      1.0  0.77288  0.06399  0.01344  1.0000
  C   C543      1.0  0.93579  0.32182  0.26658  1.0000
  H   H537      1.0  0.77826  0.00580  0.02815  1.0000
  H   H538      1.0  0.83726  0.21799  0.05558  1.0000
  C   C544      1.0  0.90930  0.48431  0.31994  1.0000
  H   H539      1.0  0.96359  0.34074  0.40763  1.0000
  C   C545      1.0  0.98571  0.36758  0.31437  1.0000
  C   C546      1.0  0.96241  0.48475  0.30300  1.0000
  C   C547      1.0  0.73586  0.02829  0.08248  1.0000
  C   C548      1.0  0.98979  0.40293  0.31721  1.0000
  H   H540      1.0  0.75461  0.01634  0.12078  1.0000
  H   H541      1.0  0.92111  0.49260  0.36455  1.0000
  H   H542      1.0  0.71797  0.08814  0.01844  1.0000
  H   H543      1.0  0.78814  0.05694  0.01228  1.0000
  C   C549      1.0  0.84374  0.23802  0.00538  1.0000
  H   H544      1.0  0.78205  0.00232  0.08605  1.0000
  C   C550      1.0  0.73410  0.03011  0.04980  1.0000
  N   N47       1.0  0.84314  0.21773  0.00598  1.0000
  H   H545      1.0  0.97257  0.15670  0.12876  1.0000
  H   H546      1.0  0.82837  0.19759  0.03423  1.0000
  H   H547      1.0  0.91830  0.13475  0.09612  1.0000
  H   H548      1.0  0.95758  0.17242  0.19759  1.0000
  H   H549      1.0  0.96394  0.27684  0.27071  1.0000
  H   H550      1.0  0.84294  0.24654  0.02706  1.0000
  H   H551      1.0  0.94718  0.48898  0.29490  1.0000
  C   C551      1.0  0.99293  0.46228  0.30218  1.0000
  C   C552      1.0  0.68271  0.10728  0.37131  1.0000
  H   H552      1.0  0.88804  0.47689  0.44644  1.0000
  H   H553      1.0  0.85495  0.19815  0.04220  1.0000
  C   C553      1.0  0.84074  0.20734  0.03589  1.0000
  C   C554      1.0  0.68555  0.10908  0.33898  1.0000
  C   C555      1.0  0.88287  0.48374  0.42435  1.0000
  H   H554      1.0  0.69522  0.10195  0.38647  1.0000
  H   H555      1.0  0.67341  0.00236  0.34739  1.0000
  H   H556      1.0  0.98473  0.32188  0.40975  1.0000
  N   N48       1.0  0.99155  0.35116  0.42093  1.0000
  H   H557      1.0  0.89081  0.27345  0.00151  1.0000
  Fe  Fe93      1.0  0.73763  0.07768  0.84063  1.0000
  S   S185      1.0  0.76332  0.07052  0.80742  1.0000
  S   S186      1.0  0.70605  0.08826  0.82207  1.0000
  Fe  Fe94      1.0  0.76406  0.06659  0.89851  1.0000
  S   S187      1.0  0.79106  0.05782  0.86813  1.0000
  S   S188      1.0  0.77370  0.06119  0.94952  1.0000
  Fe  Fe95      1.0  0.78218  0.08645  0.84176  1.0000
  S   S189      1.0  0.80716  0.10548  0.82554  1.0000
  Fe  Fe96      1.0  0.76995  0.04285  0.83731  1.0000
  S   S190      1.0  0.77562  0.01253  0.81338  1.0000
  S   S191      1.0  0.75588  0.09584  0.87314  1.0000
  S   S192      1.0  0.74357  0.04938  0.86929  1.0000
  Fe  Fe97      1.0  0.90508  0.34961  0.69405  1.0000
  S   S193      1.0  0.91356  0.33463  0.64791  1.0000
  S   S194      1.0  0.89179  0.33503  0.73686  1.0000
  Fe  Fe98      1.0  0.91775  0.39064  0.67237  1.0000
  S   S195      1.0  0.92679  0.37835  0.62521  1.0000
  S   S196      1.0  0.92799  0.42122  0.68327  1.0000
  Fe  Fe99      1.0  0.89903  0.36295  0.62568  1.0000
  S   S197      1.0  0.88094  0.36483  0.58052  1.0000
  Fe  Fe100     1.0  0.94069  0.35158  0.65104  1.0000
  S   S198      1.0  0.97201  0.34131  0.63580  1.0000
  S   S199      1.0  0.88831  0.37716  0.67150  1.0000
  S   S200      1.0  0.93359  0.36437  0.69867  1.0000
  Fe  Fe101     1.0  0.88190  0.19403  0.87052  1.0000
  S   S201      1.0  0.87417  0.22764  0.86912  1.0000
  S   S202      1.0  0.85603  0.17483  0.88268  1.0000
  Fe  Fe102     1.0  0.92769  0.19921  0.86892  1.0000
  S   S203      1.0  0.92243  0.23259  0.86838  1.0000
  S   S204      1.0  0.95954  0.18362  0.86458  1.0000
  Fe  Fe103     1.0  0.89898  0.22849  0.90498  1.0000
  S   S205      1.0  0.89617  0.24955  0.94671  1.0000
  Fe  Fe104     1.0  0.89846  0.22882  0.83256  1.0000
  S   S206      1.0  0.90009  0.24414  0.78429  1.0000
  S   S207      1.0  0.90581  0.19524  0.90814  1.0000
  S   S208      1.0  0.90461  0.19505  0.83136  1.0000
  C   C556      1.0  0.89467  0.24267  0.98687  1.0000
  H   H558      1.0  0.97158  0.27020  0.81935  1.0000
  C   C557      1.0  0.98602  0.36191  0.63760  1.0000
  C   C558      1.0  0.69709  0.11804  0.74646  1.0000
  C   C559      1.0  0.98940  0.39578  0.65489  1.0000
  C   C560      1.0  0.89431  0.36003  0.54498  1.0000
  H   H559      1.0  0.99519  0.24227  0.88940  1.0000
  C   C561      1.0  0.91398  0.35068  0.54516  1.0000
  N   N49       1.0  0.94859  0.39643  0.56404  1.0000
  H   H560      1.0  0.92121  0.34624  0.56724  1.0000
  C   C562      1.0  0.89622  0.31000  0.75111  1.0000
  C   C563      1.0  0.90657  0.29471  0.73349  1.0000
  C   C564      1.0  0.90794  0.27473  0.74435  1.0000
  C   C565      1.0  0.89946  0.26981  0.77328  1.0000
  C   C566      1.0  0.88974  0.28519  0.79139  1.0000
  C   C567      1.0  0.88795  0.30511  0.78019  1.0000
  H   H561      1.0  0.91301  0.29819  0.71109  1.0000
  H   H562      1.0  0.91546  0.26296  0.73009  1.0000
  H   H563      1.0  0.88304  0.28169  0.81359  1.0000
  H   H564      1.0  0.87992  0.31678  0.79406  1.0000
  C   C568      1.0  0.98110  0.19671  0.86936  1.0000
  C   C569      1.0  0.97952  0.21651  0.87976  1.0000
  C   C570      1.0  0.84816  0.21632  0.95003  1.0000
  H   H565      1.0  0.96505  0.22389  0.88637  1.0000
  H   H566      1.0  0.74120  0.00924  0.98751  1.0000
  C   C571      1.0  0.92383  0.42799  0.58971  1.0000
  C   C572      1.0  0.97778  0.37979  0.65132  1.0000
  H   H567      1.0  0.85142  0.24449  0.92725  1.0000
  H   H568      1.0  0.96265  0.38125  0.66014  1.0000
  H   H569      1.0  0.96944  0.19241  0.76144  1.0000
  C   C573      1.0  0.91653  0.44532  0.67285  1.0000
  C   C574      1.0  0.92758  0.46183  0.67671  1.0000
  C   C575      1.0  0.89684  0.44850  0.66138  1.0000
  H   H570      1.0  0.94281  0.45952  0.68561  1.0000
  H   H571      1.0  0.88814  0.43593  0.65845  1.0000
  C   C576      1.0  0.81937  0.12606  0.84054  1.0000
  C   C577      1.0  0.83597  0.13226  0.82419  1.0000
  C   C578      1.0  0.84702  0.14748  0.83609  1.0000
  C   C579      1.0  0.84161  0.15685  0.86463  1.0000
  C   C580      1.0  0.82471  0.15099  0.88060  1.0000
  C   C581      1.0  0.81369  0.13575  0.86872  1.0000
  H   H572      1.0  0.84052  0.12501  0.80230  1.0000
  H   H573      1.0  0.85989  0.15174  0.82338  1.0000
  H   H574      1.0  0.82023  0.15814  0.90257  1.0000
  H   H575      1.0  0.80088  0.13142  0.88151  1.0000
  H   H576      1.0  0.97108  0.40470  0.59570  1.0000
  C   C582      1.0  0.86478  0.28688  0.69354  1.0000
  N   N50       1.0  0.68072  0.10359  0.70297  1.0000
  H   H577      1.0  0.87945  0.27851  0.68748  1.0000
  H   H578      1.0  0.72759  0.08030  0.71363  1.0000
  C   C583      1.0  0.76212  0.06868  0.98555  1.0000
  C   C584      1.0  0.91908  0.48134  0.66935  1.0000
  H   H579      1.0  0.85421  0.35650  0.63209  1.0000
  C   C585      1.0  0.94363  0.42398  0.60009  1.0000
  H   H580      1.0  0.73382  0.08119  0.96611  1.0000
  C   C586      1.0  0.69227  0.07674  0.79244  1.0000
  H   H581      1.0  0.85246  0.27778  0.68721  1.0000
  H   H582      1.0  0.73404  0.00720  0.79268  1.0000
  C   C587      1.0  0.70087  0.06064  0.77458  1.0000
  H   H583      1.0  0.66563  0.09720  0.79906  1.0000
  H   H584      1.0  0.84679  0.35500  0.68937  1.0000
  H   H585      1.0  0.71605  0.05428  0.77968  1.0000
  C   C588      1.0  0.96096  0.37854  0.55306  1.0000
  C   C589      1.0  0.96831  0.19401  0.78734  1.0000
  C   C590      1.0  0.97098  0.25478  0.81232  1.0000
  C   C591      1.0  0.95193  0.22754  0.79833  1.0000
  C   C592      1.0  0.88511  0.36555  0.51605  1.0000
  C   C593      1.0  0.85545  0.09487  0.87303  1.0000
  C   C594      1.0  0.67251  0.08484  0.78529  1.0000
  H   H586      1.0  0.69650  0.12823  0.76626  1.0000
  N   N51       1.0  0.96925  0.21493  0.79626  1.0000
  H   H587      1.0  0.93864  0.25745  0.80854  1.0000
  C   C595      1.0  0.84543  0.20686  0.97882  1.0000
  C   C596      1.0  0.92418  0.34658  0.51663  1.0000
  H   H588      1.0  0.97713  0.38095  0.55278  1.0000
  H   H589      1.0  0.93750  0.22201  0.79419  1.0000
  C   C597      1.0  0.89931  0.48458  0.65833  1.0000
  H   H590      1.0  0.86990  0.37277  0.51568  1.0000
  C   C598      1.0  0.71453  0.09104  0.71701  1.0000
  H   H591      1.0  0.95899  0.36577  0.56909  1.0000
  C   C599      1.0  0.72482  0.00400  0.81346  1.0000
  H   H592      1.0  0.83066  0.07705  0.87379  1.0000
  C   C600      1.0  0.92919  0.40031  0.55363  1.0000
  H   H593      1.0  0.85034  0.20764  0.92858  1.0000
  H   H594      1.0  0.73184  0.01096  0.83385  1.0000
  H   H595      1.0  0.95402  0.18859  0.79543  1.0000
  N   N52       1.0  0.83053  0.09618  0.91374  1.0000
  C   C601      1.0  0.83827  0.08813  0.88631  1.0000
  C   C602      1.0  0.83946  0.11103  0.92851  1.0000
  H   H596      1.0  0.76127  0.02528  0.98477  1.0000
  C   C603      1.0  0.85667  0.11813  0.91586  1.0000
  C   C604      1.0  0.86463  0.11002  0.88788  1.0000
  C   C605      1.0  0.81186  0.08963  0.92604  1.0000
  H   H597      1.0  0.93920  0.33892  0.51699  1.0000
  H   H598      1.0  0.77189  0.00345  0.88001  1.0000
  C   C606      1.0  0.68040  0.11730  0.72673  1.0000
  H   H599      1.0  0.86324  0.13051  0.92677  1.0000
  H   H600      1.0  0.87739  0.11605  0.87709  1.0000
  H   H601      1.0  0.95664  0.37444  0.52883  1.0000
  C   C607      1.0  0.95590  0.40808  0.58685  1.0000
  H   H602      1.0  0.80878  0.09466  0.95058  1.0000
  N   N53       1.0  0.86219  0.30614  0.67693  1.0000
  C   C608      1.0  0.86646  0.30684  0.64551  1.0000
  C   C609      1.0  0.85485  0.32312  0.69247  1.0000
  C   C610      1.0  0.86357  0.32493  0.62890  1.0000
  C   C611      1.0  0.85192  0.34147  0.67665  1.0000
  C   C612      1.0  0.85623  0.34232  0.64464  1.0000
  H   H603      1.0  0.87231  0.29340  0.63316  1.0000
  H   H604      1.0  0.85184  0.32271  0.71752  1.0000
  H   H605      1.0  0.86730  0.32563  0.60409  1.0000
  H   H606      1.0  0.94917  0.43265  0.61914  1.0000
  H   H607      1.0  0.86094  0.08907  0.85054  1.0000
  H   H608      1.0  0.81260  0.07303  0.92620  1.0000
  H   H609      1.0  0.89772  0.21078  0.98005  1.0000
  H   H610      1.0  0.90100  0.41874  0.55864  1.0000
  H   H611      1.0  0.98301  0.40940  0.66614  1.0000
  C   C613      1.0  0.95251  0.24762  0.80643  1.0000
  C   C614      1.0  0.88825  0.46807  0.65434  1.0000
  H   H612      1.0  0.72691  0.10464  0.75760  1.0000
  C   C615      1.0  0.69007  0.05322  0.74935  1.0000
  H   H613      1.0  0.69710  0.04109  0.73527  1.0000
  H   H614      1.0  0.86477  0.28887  0.71953  1.0000
  C   C616      1.0  0.84633  0.24796  0.97698  1.0000
  C   C617      1.0  0.98748  0.22194  0.80119  1.0000
  H   H615      1.0  0.79897  0.09564  0.91105  1.0000
  H   H616      1.0  0.91405  0.44000  0.60033  1.0000
  C   C618      1.0  0.69753  0.09061  0.69784  1.0000
  H   H617      1.0  0.70930  0.01132  0.81019  1.0000
  H   H618      1.0  0.92775  0.49390  0.67261  1.0000
  C   C619      1.0  0.84857  0.23701  0.94919  1.0000
  H   H619      1.0  0.87291  0.47045  0.64597  1.0000
  H   H620      1.0  0.84766  0.26390  0.97667  1.0000
  H   H621      1.0  0.83296  0.11791  0.94965  1.0000
  C   C620      1.0  0.91653  0.41614  0.56628  1.0000
  H   H622      1.0  0.92319  0.39081  0.53612  1.0000
  H   H623      1.0  0.69762  0.07937  0.67959  1.0000
  C   C621      1.0  0.71421  0.10477  0.74158  1.0000
  H   H624      1.0  0.98053  0.18412  0.79892  1.0000
  H   H625      1.0  0.97863  0.37348  0.72968  1.0000
  C   C622      1.0  0.74233  0.07761  0.98742  1.0000
  C   C623      1.0  0.98862  0.24191  0.80952  1.0000
  H   H626      1.0  0.98487  0.34101  0.70251  1.0000
  C   C624      1.0  0.67056  0.06175  0.74154  1.0000
  C   C625      1.0  0.99670  0.22688  0.88160  1.0000
  H   H627      1.0  0.99347  0.47646  0.66503  1.0000
  H   H628      1.0  0.89111  0.49399  0.72419  1.0000
  H   H629      1.0  0.84544  0.19074  0.97933  1.0000
  C   C626      1.0  0.74677  0.02316  0.99639  1.0000
  H   H630      1.0  0.73604  0.03615  0.98929  1.0000
  C   C627      1.0  0.99389  0.36742  0.72430  1.0000
  H   H631      1.0  0.66694  0.12730  0.73119  1.0000
  C   C628      1.0  0.99752  0.34908  0.70881  1.0000
  C   C629      1.0  0.89507  0.22275  0.99694  1.0000
  Fe  Fe105     1.0  0.76720  0.90090  0.18006  1.0000
  S   S209      1.0  0.73613  0.89869  0.16164  1.0000
  S   S210      1.0  0.77278  0.92895  0.20720  1.0000
  Fe  Fe106     1.0  0.78250  0.85796  0.15905  1.0000
  S   S211      1.0  0.75194  0.85311  0.13939  1.0000
  S   S212      1.0  0.81003  0.83564  0.14714  1.0000
  Fe  Fe107     1.0  0.75155  0.88407  0.11935  1.0000
  S   S213      1.0  0.74146  0.89592  0.07107  1.0000
  Fe  Fe108     1.0  0.73902  0.86816  0.18362  1.0000
  S   S214      1.0  0.71312  0.85515  0.20935  1.0000
  S   S215      1.0  0.78250  0.88850  0.13645  1.0000
  S   S216      1.0  0.76964  0.87081  0.20465  1.0000
  C   C630      1.0  0.69884  0.86144  0.04446  1.0000
  Fe  Fe109     1.0  0.94410  0.72679  0.17595  1.0000
  S   S217      1.0  0.93785  0.70241  0.14261  1.0000
  S   S218      1.0  0.97639  0.72542  0.19364  1.0000
  Fe  Fe110     1.0  0.89931  0.74435  0.17731  1.0000
  S   S219      1.0  0.89048  0.72064  0.14421  1.0000
  S   S220      1.0  0.87619  0.76752  0.20063  1.0000
  Fe  Fe111     1.0  0.91112  0.69866  0.17340  1.0000
  S   S221      1.0  0.90343  0.66710  0.18693  1.0000
  Fe  Fe112     1.0  0.91824  0.72638  0.11695  1.0000
  S   S222      1.0  0.92184  0.73641  0.06616  1.0000
  S   S223      1.0  0.91821  0.72198  0.20810  1.0000
  S   S224      1.0  0.92609  0.75117  0.14892  1.0000
  Fe  Fe113     1.0  0.91542  0.53624  0.32942  1.0000
  S   S225      1.0  0.92987  0.53140  0.37649  1.0000
  H   H632      1.0  0.95785  0.59396  0.30039  1.0000
  Fe  Fe114     1.0  0.91930  0.58197  0.32970  1.0000
  S   S226      1.0  0.93389  0.57949  0.37780  1.0000
  S   S227      1.0  0.91820  0.61485  0.31357  1.0000
  Fe  Fe115     1.0  0.95146  0.55200  0.35902  1.0000
  S   S228      1.0  0.98433  0.54221  0.36348  1.0000
  Fe  Fe116     1.0  0.91083  0.55914  0.39078  1.0000
  S   S229      1.0  0.89303  0.55757  0.43569  1.0000
  S   S230      1.0  0.93856  0.55526  0.31047  1.0000
  S   S231      1.0  0.89460  0.56324  0.34438  1.0000
  H   H633      1.0  0.81574  0.92490  0.21114  1.0000
  H   H634      1.0  0.68054  0.91170  0.27154  1.0000
  C   C631      1.0  0.68034  0.89615  0.26526  1.0000
  H   H635      1.0  0.80900  0.87445  0.24333  1.0000
  H   H636      1.0  0.79577  0.97351  0.12552  1.0000
  C   C632      1.0  0.90888  0.65247  0.22181  1.0000
  C   C633      1.0  0.90470  0.63235  0.22238  1.0000
  C   C634      1.0  0.90788  0.62045  0.24984  1.0000
  C   C635      1.0  0.91500  0.62862  0.27742  1.0000
  C   C636      1.0  0.91920  0.64874  0.27685  1.0000
  C   C637      1.0  0.91633  0.66054  0.24927  1.0000
  H   H637      1.0  0.89889  0.62589  0.20140  1.0000
  H   H638      1.0  0.90447  0.60507  0.24973  1.0000
  H   H639      1.0  0.92470  0.65532  0.29794  1.0000
  H   H640      1.0  0.91965  0.67595  0.24937  1.0000
  C   C638      1.0  0.78879  0.97265  0.14830  1.0000
  C   C639      1.0  0.90404  0.56282  0.47218  1.0000
  C   C640      1.0  0.92036  0.57419  0.47385  1.0000
  C   C641      1.0  0.89211  0.61420  0.39267  1.0000
  H   H641      1.0  0.92746  0.57860  0.45248  1.0000
  H   H642      1.0  0.68069  0.96614  0.32652  1.0000
  C   C642      1.0  0.92107  0.72312  0.03045  1.0000
  C   C643      1.0  0.91619  0.70343  0.02916  1.0000
  C   C644      1.0  0.69260  0.87796  0.14049  1.0000
  H   H643      1.0  0.91344  0.69553  0.05067  1.0000
  C   C645      1.0  0.82813  0.81666  0.16278  1.0000
  C   C646      1.0  0.82966  0.81211  0.19492  1.0000
  C   C647      1.0  0.84458  0.79726  0.20600  1.0000
  C   C648      1.0  0.85810  0.78659  0.18521  1.0000
  C   C649      1.0  0.85646  0.79102  0.15307  1.0000
  C   C650      1.0  0.84167  0.80599  0.14203  1.0000
  H   H644      1.0  0.81941  0.82007  0.21125  1.0000
  H   H645      1.0  0.84563  0.79401  0.23091  1.0000
  H   H646      1.0  0.86667  0.78302  0.13670  1.0000
  H   H647      1.0  0.84070  0.80934  0.11714  1.0000
  C   C651      1.0  0.69505  0.86716  0.23590  1.0000
  C   C652      1.0  0.68025  0.85612  0.24882  1.0000
  C   C653      1.0  0.97132  0.49664  0.32467  1.0000
  C   C654      1.0  0.81240  0.89009  0.23934  1.0000
  H   H648      1.0  0.98390  0.56594  0.28950  1.0000
  C   C655      1.0  0.69493  0.88730  0.24420  1.0000
  C   C656      1.0  0.74800  0.85129  0.00610  1.0000
  C   C657      1.0  0.69485  0.85784  0.13200  1.0000
  H   H649      1.0  0.68015  0.84053  0.24265  1.0000
  H   H650      1.0  0.70616  0.89604  0.23459  1.0000
  H   H651      1.0  0.92740  0.63568  0.43456  1.0000
  C   C658      1.0  0.74850  0.86162  0.03486  1.0000
  C   C659      1.0  0.74449  0.88246  0.03541  1.0000
  C   C660      1.0  0.99014  0.58065  0.38027  1.0000
  H   H652      1.0  0.75127  0.85343  0.05665  1.0000
  C   C661      1.0  0.82583  0.87700  0.18884  1.0000
  C   C662      1.0  0.78412  0.95396  0.15975  1.0000
  C   C663      1.0  0.77599  0.95248  0.18983  1.0000
  C   C664      1.0  0.77184  0.96997  0.20772  1.0000
  H   H653      1.0  0.78739  0.94064  0.14572  1.0000
  H   H654      1.0  0.76567  0.96898  0.23109  1.0000
  N   N54       1.0  0.84407  0.72783  0.19986  1.0000
  C   C665      1.0  0.85305  0.73072  0.22821  1.0000
  C   C666      1.0  0.84665  0.70955  0.18555  1.0000
  C   C667      1.0  0.86498  0.71507  0.24297  1.0000
  C   C668      1.0  0.85824  0.69351  0.19987  1.0000
  C   C669      1.0  0.86750  0.69634  0.22870  1.0000
  C   C670      1.0  0.83255  0.74458  0.18362  1.0000
  H   H655      1.0  0.85154  0.74537  0.23914  1.0000
  H   H656      1.0  0.84007  0.70739  0.16265  1.0000
  H   H657      1.0  0.87259  0.71759  0.26493  1.0000
  H   H658      1.0  0.86061  0.67909  0.18827  1.0000
  H   H659      1.0  0.87698  0.68412  0.23955  1.0000
  H   H660      1.0  0.82847  0.75734  0.19975  1.0000
  H   H661      1.0  0.84177  0.75008  0.16436  1.0000
  H   H662      1.0  0.81841  0.73996  0.17366  1.0000
  H   H663      1.0  0.96299  0.51011  0.33371  1.0000
  H   H664      1.0  0.79821  0.89990  0.24350  1.0000
  H   H665      1.0  0.69108  0.88213  0.16511  1.0000
  C   C671      1.0  0.83289  0.87980  0.15839  1.0000
  C   C672      1.0  0.82744  0.91549  0.16605  1.0000
  C   C673      1.0  0.83355  0.89918  0.14689  1.0000
  H   H666      1.0  0.82499  0.86184  0.19723  1.0000
  C   C674      1.0  0.82068  0.91213  0.19649  1.0000
  H   H667      1.0  0.73775  0.90899  0.00714  1.0000
  H   H668      1.0  0.83727  0.86697  0.14357  1.0000
  H   H669      1.0  0.82758  0.93066  0.15731  1.0000
  H   H670      1.0  0.83850  0.90154  0.12303  1.0000
  C   C675      1.0  0.97362  0.59632  0.30109  1.0000
  H   H671      1.0  0.82382  0.89377  0.25675  1.0000
  S   S232      1.0  0.90655  0.50883  0.30355  1.0000
  H   H672      1.0  0.96377  0.73812  0.03815  1.0000
  H   H673      1.0  0.96198  0.71224  0.08174  1.0000
  H   H674      1.0  0.97934  0.75909  0.15104  1.0000
  H   H675      1.0  0.99515  0.61114  0.39069  1.0000
  N   N55       1.0  0.88653  0.61122  0.44825  1.0000
  C   C676      1.0  0.90877  0.62447  0.39866  1.0000
  C   C677      1.0  0.77584  0.98875  0.19582  1.0000
  H   H676      1.0  0.90724  0.62403  0.47842  1.0000
  H   H677      1.0  0.88797  0.61115  0.36856  1.0000
  H   H678      1.0  0.70975  0.84796  0.04133  1.0000
  C   C678      1.0  0.88110  0.60763  0.41789  1.0000
  N   N56       1.0  0.81965  0.89308  0.20734  1.0000
  C   C679      1.0  0.74090  0.89288  0.00692  1.0000
  C   C680      1.0  0.90285  0.62132  0.45434  1.0000
  H   H679      1.0  0.88043  0.52789  0.38481  1.0000
  C   C681      1.0  0.87415  0.60523  0.47432  1.0000
  C   C682      1.0  0.87012  0.50057  0.36719  1.0000
  H   H680      1.0  0.69582  0.89850  0.06803  1.0000
  H   H681      1.0  0.70434  0.87345  0.02978  1.0000
  H   H682      1.0  0.68392  0.85828  0.03549  1.0000
  H   H683      1.0  0.87320  0.72106  0.01232  1.0000
  C   C683      1.0  0.78472  0.99014  0.16627  1.0000
  C   C684      1.0  0.91429  0.62796  0.42967  1.0000
  C   C685      1.0  0.69516  0.88698  0.08581  1.0000
  C   C686      1.0  0.99649  0.73345  0.17164  1.0000
  H   H684      1.0  0.97434  0.58297  0.38524  1.0000
  H   H685      1.0  0.92855  0.74838  0.00312  1.0000
  H   H686      1.0  0.91755  0.62941  0.37922  1.0000
  N   N57       1.0  0.69740  0.86720  0.07768  1.0000
  C   C687      1.0  0.92477  0.73313  0.00234  1.0000
  H   H687      1.0  0.89185  0.51281  0.43587  1.0000
  C   C688      1.0  0.87862  0.51233  0.38969  1.0000
  H   H688      1.0  0.69504  0.84634  0.15003  1.0000
  C   C689      1.0  0.97927  0.61513  0.30847  1.0000
  H   H689      1.0  0.96243  0.73475  0.10460  1.0000
  H   H690      1.0  0.86837  0.59933  0.41307  1.0000
  N   N58       1.0  0.98635  0.72927  0.07233  1.0000
  H   H691      1.0  0.86186  0.61719  0.47918  1.0000
  C   C690      1.0  0.69723  0.85268  0.10028  1.0000
  C   C691      1.0  0.69287  0.89265  0.11732  1.0000
  H   H692      1.0  0.96786  0.62735  0.31367  1.0000
  H   H693      1.0  0.97946  0.71298  0.11378  1.0000
  H   H694      1.0  0.69180  0.90832  0.12380  1.0000
  H   H695      1.0  0.86756  0.59112  0.46873  1.0000
  C   C692      1.0  0.88506  0.50383  0.41840  1.0000
  H   H696      1.0  0.88142  0.75540  0.02290  1.0000
  C   C693      1.0  0.97193  0.72190  0.09422  1.0000
  H   H697      1.0  0.69909  0.83700  0.09392  1.0000
  C   C694      1.0  0.99409  0.75100  0.15368  1.0000
  H   H698      1.0  0.99670  0.77056  0.22493  1.0000
  C   C695      1.0  0.97958  0.73749  0.04431  1.0000
  H   H699      1.0  0.86562  0.50719  0.34461  1.0000
  C   C696      1.0  0.99291  0.74523  0.02334  1.0000
  H   H700      1.0  0.88327  0.60221  0.49607  1.0000
  H   H701      1.0  0.75052  0.83513  0.00588  1.0000
  C   C697      1.0  0.98843  0.58060  0.29475  1.0000
  C   C698      1.0  0.66563  0.86499  0.26987  1.0000
  C   C699      1.0  0.66560  0.88509  0.27835  1.0000
  C   C700      1.0  0.91460  0.69402  0.99981  1.0000
  H   H702      1.0  0.91067  0.67881  0.99890  1.0000
  C   C701      1.0  0.87803  0.75100  0.99906  1.0000
  H   H703      1.0  0.99775  0.50034  0.35178  1.0000
  H   H704      1.0  0.98753  0.75162  0.00101  1.0000
  Fe  Fe117     1.0  0.74791  0.86328  0.89587  1.0000
  S   S233      1.0  0.77878  0.87250  0.88930  1.0000
  S   S234      1.0  0.74179  0.84830  0.94227  1.0000
  Fe  Fe118     1.0  0.73360  0.87852  0.82997  1.0000
  S   S235      1.0  0.76418  0.88841  0.81936  1.0000
  S   S236      1.0  0.70662  0.89117  0.79937  1.0000
  Fe  Fe119     1.0  0.77722  0.85892  0.84127  1.0000
  S   S237      1.0  0.80544  0.84143  0.81991  1.0000
  Fe  Fe120     1.0  0.76325  0.90075  0.86832  1.0000
  S   S238      1.0  0.76997  0.93093  0.88753  1.0000
  S   S239      1.0  0.74663  0.84819  0.84847  1.0000
  S   S240      1.0  0.73241  0.89232  0.87837  1.0000
  C   C702      1.0  0.90656  0.51135  0.75721  1.0000
  Fe  Fe121     1.0  0.88862  0.74136  0.85070  1.0000
  S   S241      1.0  0.88712  0.70812  0.85684  1.0000
  S   S242      1.0  0.85841  0.76002  0.86094  1.0000
  Fe  Fe122     1.0  0.93487  0.73467  0.84293  1.0000
  S   S243      1.0  0.93620  0.70145  0.84982  1.0000
  S   S244      1.0  0.96261  0.74864  0.82640  1.0000
  Fe  Fe123     1.0  0.90946  0.70287  0.81740  1.0000
  S   S245      1.0  0.90965  0.68409  0.77209  1.0000
  Fe  Fe124     1.0  0.91394  0.70929  0.88870  1.0000
  S   S246      1.0  0.91378  0.69257  0.93523  1.0000
  S   S247      1.0  0.90890  0.73613  0.80865  1.0000
  S   S248      1.0  0.91460  0.74250  0.88441  1.0000
  Fe  Fe125     1.0  0.94800  0.54769  0.66150  1.0000
  S   S249      1.0  0.92319  0.54349  0.69506  1.0000
  S   S250      1.0  0.97979  0.53422  0.66921  1.0000
  Fe  Fe126     1.0  0.92038  0.56979  0.61361  1.0000
  S   S251      1.0  0.89292  0.56747  0.64356  1.0000
  S   S252      1.0  0.92489  0.58557  0.56719  1.0000
  Fe  Fe127     1.0  0.91204  0.57576  0.68460  1.0000
  S   S253      1.0  0.90032  0.59413  0.72765  1.0000
  Fe  Fe128     1.0  0.90625  0.53557  0.65216  1.0000
  S   S254      1.0  0.88769  0.50909  0.65096  1.0000
  S   S255      1.0  0.93840  0.58038  0.65394  1.0000
  S   S256      1.0  0.93201  0.53749  0.61920  1.0000
  H   H705      1.0  0.96320  0.56382  0.58873  1.0000
  H   H706      1.0  0.87333  0.69440  0.97317  1.0000
  H   H707      1.0  0.97589  0.73659  0.88998  1.0000
  C   C703      1.0  0.99461  0.55359  0.67692  1.0000
  H   H708      1.0  0.83651  0.85628  0.86363  1.0000
  C   C704      1.0  0.91765  0.57534  0.53116  1.0000
  H   H709      1.0  0.86946  0.70028  0.93275  1.0000
  H   H710      1.0  0.89494  0.56101  0.76989  1.0000
  H   H711      1.0  0.89458  0.55915  0.55093  1.0000
  C   C705      1.0  0.72399  0.97465  0.84781  1.0000
  C   C706      1.0  0.91772  0.70426  0.97163  1.0000
  C   C707      1.0  0.92300  0.72380  0.97306  1.0000
  H   H712      1.0  0.84991  0.55554  0.72402  1.0000
  H   H713      1.0  0.92556  0.73180  0.95160  1.0000
  C   C708      1.0  0.67437  0.85461  0.74633  1.0000
  C   C709      1.0  0.90817  0.65857  0.76119  1.0000
  C   C710      1.0  0.91349  0.65252  0.73037  1.0000
  C   C711      1.0  0.91173  0.63280  0.71997  1.0000
  C   C712      1.0  0.90420  0.61888  0.74010  1.0000
  C   C713      1.0  0.89876  0.62496  0.77090  1.0000
  C   C714      1.0  0.90088  0.64457  0.78149  1.0000
  H   H714      1.0  0.91909  0.66315  0.71435  1.0000
  H   H715      1.0  0.91590  0.62850  0.69621  1.0000
  H   H716      1.0  0.89289  0.61440  0.78675  1.0000
  H   H717      1.0  0.89665  0.64890  0.80521  1.0000
  H   H718      1.0  0.82559  0.90759  0.94073  1.0000
  C   C715      1.0  0.82034  0.81916  0.83264  1.0000
  C   C716      1.0  0.81436  0.80706  0.85699  1.0000
  C   C717      1.0  0.82634  0.78925  0.86548  1.0000
  C   C718      1.0  0.84463  0.78335  0.85017  1.0000
  C   C719      1.0  0.85082  0.79564  0.82621  1.0000
  C   C720      1.0  0.83870  0.81331  0.81742  1.0000
  H   H719      1.0  0.80031  0.81123  0.86895  1.0000
  H   H720      1.0  0.82127  0.77992  0.88398  1.0000
  H   H721      1.0  0.86486  0.79147  0.81426  1.0000
  H   H722      1.0  0.84356  0.82251  0.79859  1.0000
  C   C721      1.0  0.74414  0.86172  0.97764  1.0000
  C   C722      1.0  0.77234  0.98962  0.86694  1.0000
  C   C723      1.0  0.74098  0.88261  0.97813  1.0000
  H   H723      1.0  0.84859  0.70465  0.95975  1.0000
  H   H724      1.0  0.73794  0.89081  0.95642  1.0000
  C   C724      1.0  0.68936  0.88174  0.77245  1.0000
  H   H725      1.0  0.67443  0.83878  0.74182  1.0000
  H   H726      1.0  0.72371  0.94787  0.87613  1.0000
  C   C725      1.0  0.77500  0.97179  0.81760  1.0000
  C   C726      1.0  0.86519  0.56010  0.72792  1.0000
  C   C727      1.0  0.68938  0.86134  0.76594  1.0000
  H   H727      1.0  0.72457  0.97627  0.76888  1.0000
  H   H728      1.0  0.83098  0.87483  0.81341  1.0000
  H   H729      1.0  0.98601  0.70449  0.80043  1.0000
  H   H730      1.0  0.70077  0.85072  0.77636  1.0000
  C   C728      1.0  0.77119  0.97138  0.88284  1.0000
  C   C729      1.0  0.77164  0.95332  0.86620  1.0000
  C   C730      1.0  0.77351  0.95356  0.83346  1.0000
  H   H731      1.0  0.76982  0.97131  0.90819  1.0000
  H   H732      1.0  0.77390  0.93975  0.82040  1.0000
  H   H733      1.0  0.86780  0.73416  0.91444  1.0000
  N   N59       1.0  0.99259  0.60017  0.60696  1.0000
  N   N60       1.0  0.87010  0.72560  0.96277  1.0000
  H   H734      1.0  0.87083  0.56592  0.70552  1.0000
  H   H735      1.0  0.98455  0.69264  0.85558  1.0000
  H   H736      1.0  0.72337  0.93970  0.77610  1.0000
  C   C731      1.0  0.99087  0.62086  0.61822  1.0000
  C   C732      1.0  0.90754  0.53029  0.77014  1.0000
  H   H737      1.0  0.72291  0.92551  0.82984  1.0000
  H   H738      1.0  0.86397  0.57259  0.74514  1.0000
  N   N61       1.0  0.85911  0.71321  0.77262  1.0000
  C   C733      1.0  0.87195  0.72056  0.75157  1.0000
  C   C734      1.0  0.84663  0.72600  0.79046  1.0000
  C   C735      1.0  0.87227  0.74119  0.74762  1.0000
  C   C736      1.0  0.84630  0.74670  0.78667  1.0000
  C   C737      1.0  0.85931  0.75433  0.76528  1.0000
  C   C738      1.0  0.85931  0.69157  0.77734  1.0000
  H   H739      1.0  0.88228  0.71047  0.73801  1.0000
  H   H740      1.0  0.83695  0.72027  0.80796  1.0000
  H   H741      1.0  0.88278  0.74692  0.73139  1.0000
  H   H742      1.0  0.83635  0.75679  0.80085  1.0000
  H   H743      1.0  0.85952  0.77038  0.76281  1.0000
  H   H744      1.0  0.86592  0.68306  0.75681  1.0000
  H   H745      1.0  0.86863  0.68685  0.79827  1.0000
  H   H746      1.0  0.84388  0.68731  0.78069  1.0000
  N   N62       1.0  0.81972  0.90184  0.89248  1.0000
  C   C739      1.0  0.81671  0.91223  0.86483  1.0000
  C   C740      1.0  0.82697  0.88205  0.89228  1.0000
  C   C741      1.0  0.82086  0.90276  0.83600  1.0000
  C   C742      1.0  0.83143  0.87216  0.86388  1.0000
  C   C743      1.0  0.82826  0.88259  0.83560  1.0000
  C   C744      1.0  0.81393  0.91146  0.92247  1.0000
  H   H747      1.0  0.81063  0.92783  0.86487  1.0000
  H   H748      1.0  0.82871  0.87362  0.91408  1.0000
  H   H749      1.0  0.81796  0.91090  0.81411  1.0000
  H   H750      1.0  0.96086  0.59953  0.60317  1.0000
  C   C745      1.0  0.98630  0.74689  0.84561  1.0000
  H   H751      1.0  0.81175  0.92803  0.92019  1.0000
  H   H752      1.0  0.79942  0.90648  0.93043  1.0000
  C   C746      1.0  0.72416  0.97014  0.79245  1.0000
  N   N63       1.0  0.87904  0.54319  0.73898  1.0000
  C   C747      1.0  0.89363  0.54617  0.76058  1.0000
  C   C748      1.0  0.97678  0.57096  0.59282  1.0000
  C   C749      1.0  0.72315  0.94150  0.82656  1.0000
  H   H753      1.0  0.67429  0.91109  0.76309  1.0000
  N   N64       1.0  0.72458  0.98238  0.81805  1.0000
  H   H754      1.0  0.67225  0.86373  0.84244  1.0000
  C   C750      1.0  0.72348  0.94951  0.79632  1.0000
  H   H755      1.0  0.97030  0.57329  0.69600  1.0000
  C   C751      1.0  0.90190  0.56326  0.52956  1.0000
  H   H756      1.0  0.91751  0.49899  0.76381  1.0000
  C   C752      1.0  0.67447  0.89528  0.75833  1.0000
  C   C753      1.0  0.87897  0.76443  0.97415  1.0000
  H   H757      1.0  0.87578  0.76864  0.92392  1.0000
  H   H758      1.0  0.88278  0.77947  0.97852  1.0000
  C   C754      1.0  0.89172  0.50851  0.73506  1.0000
  C   C755      1.0  0.98874  0.74047  0.87683  1.0000
  C   C756      1.0  0.87345  0.73154  0.99291  1.0000
  H   H759      1.0  0.72455  0.98429  0.86813  1.0000
  C   C757      1.0  0.97556  0.59118  0.60105  1.0000
  C   C758      1.0  0.89496  0.55724  0.50014  1.0000
  C   C759      1.0  0.98574  0.57184  0.68840  1.0000
  H   H760      1.0  0.77658  0.97190  0.79228  1.0000
  C   C760      1.0  0.77437  0.98989  0.83425  1.0000
  H   H761      1.0  0.86699  0.52247  0.70805  1.0000
  H   H762      1.0  0.98967  0.60268  0.69765  1.0000
  C   C761      1.0  0.87066  0.73878  0.93830  1.0000
  C   C762      1.0  0.86497  0.70526  0.95687  1.0000
  C   C763      1.0  0.87516  0.75835  0.94357  1.0000
  H   H763      1.0  0.91932  0.53283  0.78678  1.0000
  C   C764      1.0  0.72337  0.95410  0.85252  1.0000
  C   C765      1.0  0.99679  0.58837  0.68985  1.0000
  C   C766      1.0  0.87806  0.52470  0.72607  1.0000
  H   H764      1.0  0.93913  0.59001  0.50428  1.0000
  H   H765      1.0  0.98707  0.62113  0.64366  1.0000
  C   C767      1.0  0.92692  0.58069  0.50321  1.0000
  H   H766      1.0  0.88226  0.54854  0.49908  1.0000
  C   C768      1.0  0.99554  0.55995  0.59071  1.0000
  H   H767      1.0  0.99661  0.54410  0.58549  1.0000
  H   H768      1.0  0.97907  0.63029  0.60501  1.0000
