data_image0
_chemical_formula_structural       FeS2FeS2FeSFeS3CNSH3FeS2FeS2Fe2S3H2FeS2FeS2FeSFeS3FeS2FeS2FeSCS2C6HCH3CHC5NHC6H4C6H4CHFeHC6H4C6H4C6H4C6H6NC6H8NC6H6NC6H3CHCHC2H2C2HCNCNH2CHCHCH2CHC3HCH5CH2C3H2C2HCSNH8C2HCNC2HNH5CH2CHSC2H2CHCH5SC2H10NCHFeS2FeS2HFeSCSFeS2FeS2Fe2S3FeS2FeSFeH2CHSC3SH2FeS2FeS2FeSFeS3C6H3C7H4C6H4C6H4C6H4C6H4C6H7CH2C2H2C2HCHNH3CH2CSHC2NHSH3CHNC6H8NC6H8CS2H3CHNH4CFeCH4CHFeNC2HCHCHCHCHS2HFeCS2CFeNC3H2SCHFeC2FeH2C3H3C3HCSCHCNCSCHFeC2H2CHSH3C2HCHCS2FeS2FeS2FeSFeS3FeSFeS2FeSFeHS2HCSFeS3FeCHCHSH2C3H3C2H2C6H4C6H2SH2CHC2HCHC6H4CHC4NSH2C6H3NC4H6NCH3CH3SHCHC2HSHN2CSNC6H8SHCHFeHC3SHFeC2HC2H2C2H4C3HC6SHCSHC3H2C2HCH4CSH2CSCFeHCH2CHCHCHFeCHFeCSCSH2CHC2HCHFeCHC3H4NC3HNHCH3C2HCNH5CHS2CH2SHNHCFeSCFeS2FeS3CSC6H4C4H5C7H4C4HCH3SH2C2SH2NH2SHCSFeHCHCFeCFeHFeC5S2CSHSCSCHFeHCHCH4CH2CH2FeH2CHC4HC2NHSHSHFeCHC2HSN2HCFeC2H2CH2CH2CHC2HSCHCSC2HCHCH3CFeCSHCHCHCHCSCHSHSC2HFeH3CH2CHC2SC3HC2NFeHSHC2HCH4NHNH4FeS2FeS2FeSFeS3FeS2FeS2FeSFeS3FeHCFeS2FeHNS2FeHSHC2FeSHCSC2H5SHFeS2CHCFeSH2SH2CNHC3H2NCH2CN2HNHC3HCHFeC4H5SC5H5C7H4C6H4C6H3CHCH2CHCHC2H4C6H6CHCHCSH2CHCFeHC3HC2NHCHC2H2C2SHC3H4CHC6H2CHSC2H2CHC2H2C2H2CHCHC2HSC4HFeC2H2CH2C4HNCHSC3H3SCH2C2HFeC2H2CH2NCH2SC2SHCFeHFeSFeHSCFeSHFeS2FeSFeS3HC4SFeCHSCFeSHFeSFeSHSC5H3CH3C3HCHCH2CHC6H4SH4C6H4C6H4CHC3SCH3NC2SCSHCHNCH2NC5H5SCNH3CNH4CH3SCHCH5FeS2FeS2FeSFeS3H2CHSCFeS2FeS2FeSFeS3CSHFeSHFeSCSFeSFeS2C4H4CSC5H2C6H4FeHCH3C6H4C6H4C6H2CHC6HSH2NC6H8NC6H4CH5C2HCNC6H5NHSHCSC3H3SH2CHFeCHCH3CNSHFeHCH2SCH2CHC2HC2HCHCNFeHCH4CH2CHSC3HFeS2FeSFeSHFeS2FeS2FeSFeS3FeSFeS2FeSFeS2FeS3HCSCHCHC6H4C6H4CHSC3HCH2C6H4C6H2NH2SHCSH2CHC2HC3H3C2H2C2HC2FeHCHCHCH3FeNH4C2HCH4CHCH2CHFeCHCNSHNC4HCSC2SH2C2HC2H4CHCNCHC2NH2C2SHC2FeH3C2H2C4H3SH2NH2C2H4NCFeS2FeS2FeSFeCS3FeSHFeS2FeSFeS3CFeS2FeS2FeSFeS3FeSHFeSCFeSFeHSCHC8H4C6NH3C6H4C6H5C9H4C6H4C3HC2H2CHC6S2H4NC6H8CSH2CH2C3H3CH2NHSCHC2HCHNC3H4CHC2H5CH2CHCHCH5SHNC6H5CHCHNH2C2HCNHCH2CH3CHCH6NHCSCHC2H3C3H3CHCHCSC2HCH2NHCHFeHSFeS2HFeS4FeS2FeS2FeSFeS3HFeS2FeS2FeSFeS3FeS2FeS2CFeS3HC6H4CH2C3H4C6H4C6H4C6H4C6H4C6H4C6H5CH4CHC2H4NC2HC3SC5NC6H10NSH2CHCNC2H2C4HCH2CNH3CNCHC2HCH2C4NH4CHCH2CFeHCHCH3NC2H3CHC3HCFeH9CFeSCH2CHSC2HCFeS2CNCH2C2SH2CNHFeSH4CH3C3FeS2FeS2FeSFeS3FeS2FeS2FeSFeS3HFeCSC3HSHSC2FeCHCFeSFeSCSCHCHCH2CSHC2S2H3C3HC2SC6H4C6H4C6H4C2SC3H4C4HCH2C5HCH2CSHC6H4CNFeC5H2SH2NH2CHNH3C2HCSC2NCHCH2NHCHFeC3HNC6H8CHCHCHSCH2CHCFeH4CHCH2CSCH2NHCHCS2HSHNH2C2NH3FeHFeCHCSCHCHFeH2CH2CFeS2HNHSFeSH2FeS2HCH2FeS4FeSHSH2C6H3C4HCH2FeC6H4C4FeSHCHFeHSH3CH3C2NC6H5CSH2SC2HFeC3H7C2SCHC3FeC2H2C5HCSH2CH2SHFeC2H2NC2HCNCSCFe2H2CHC2SC2HCSCH6SCNCH2CHCH2SHC2HCHSC2H3C2HNC2H2C2HCHS2FeS2HSCFeHFeS3HCSFeS2FeS2FeSFeS3FeS2FeS2FeSFeS3C5HSHCSCHC2H4C3S2CSHC7H4C6H4C6H6C2HC3HC4SC6NH2C3H3FeH2NH2CH2CH2C2H2NC6H10NCHC2HS2CHCHCHSH3C3FeH2FeCH6CHFeCHC2HC2HCH3CHFeNHCHFeHCHC3H4CHCSHC2H2CHC3NCH2CFeS2FeSHFeSHS2HFeS2FeSHFe2S3FeS2FeS2FeSFeS3HC2HC3H2CH2NC6H4C2H2C4H3NHCSC4HC6H4C6H4CH2CHCHCNH2C2NCH2CNCH4FeCHCH2C2HC2H2CHCHCNH2CH4NC4HC2H3SH3NCHC2SCH2CH3CSH6SHFeS2FeS2FeSFeS3FeS2FeS2FeSFeS3FeS2FeS2FeSH2SHFeS2FeS2FeSFeS3CHC6H2SC7H5C2H6C6H4C6H5NCH2C7H4C6H4C6H2C8H6CHCHCH4C3HCHNC2H2CNC2FeC3HNC2H2C3NC6H5C2NH3CH3CH2CH5CHSH2C2H3NCH2CH2CHCHCNC2H6CHCH2FeSCSFeSFeS2CNFeSFeHFeS2FeHFeS3HFeS2FeS2FeSFeS3FeSNHFeS2H2C6H4C6H3C6H5SC8H2SC7H4C4H2C3H3C2FeH2C2H2SH2C2HC4H6S2C2H7C4H3CNC6H8NC6H8CHCH3CNCNCH2C2SC2SH3CSH2C2H2C2H2CHCNHCFeCHCHCHCHCNC2H4C2SH
_chemical_formula_sum              "Fe256 S512 C1536 N128 H1536"
_cell_length_a       82.1549
_cell_length_b       82.1108
_cell_length_c       82.0348
_cell_angle_alpha    75.1982
_cell_angle_beta     74.9431
_cell_angle_gamma    75.2427

_space_group_name_H-M_alt    "P 1"
_space_group_IT_number       1

loop_
  _space_group_symop_operation_xyz
  'x, y, z'

loop_
  _atom_site_type_symbol
  _atom_site_label
  _atom_site_symmetry_multiplicity
  _atom_site_fract_x
  _atom_site_fract_y
  _atom_site_fract_z
  _atom_site_occupancy
  Fe  Fe1       1.0  0.17261  0.13814  0.09588  1.0000
  S   S1        1.0  0.17072  0.16396  0.07813  1.0000
  S   S2        1.0  0.19778  0.12249  0.10170  1.0000
  Fe  Fe2       1.0  0.13427  0.14074  0.10477  1.0000
  S   S3        1.0  0.12899  0.16668  0.08764  1.0000
  S   S4        1.0  0.11375  0.12708  0.12168  1.0000
  Fe  Fe3       1.0  0.15141  0.15549  0.06858  1.0000
  S   S5        1.0  0.15253  0.15922  0.03991  1.0000
  Fe  Fe4       1.0  0.14865  0.17228  0.09905  1.0000
  S   S6        1.0  0.14436  0.19620  0.10961  1.0000
  S   S7        1.0  0.15509  0.12897  0.08497  1.0000
  S   S8        1.0  0.15216  0.14710  0.11744  1.0000
  C   C1        1.0  0.08032  0.18343  0.21990  1.0000
  N   N1        1.0  0.25905  0.20439  0.27896  1.0000
  S   S9        1.0  0.11284  0.12110  0.00930  1.0000
  H   H1        1.0  0.11121  0.12359  0.04383  1.0000
  H   H2        1.0  0.10034  0.09884  0.12158  1.0000
  H   H3        1.0  0.09696  0.06813  0.23175  1.0000
  Fe  Fe5       1.0  0.12526  0.06310  0.16773  1.0000
  S   S10       1.0  0.11462  0.05502  0.19586  1.0000
  S   S11       1.0  0.10823  0.07011  0.14881  1.0000
  Fe  Fe6       1.0  0.16150  0.05659  0.17252  1.0000
  S   S12       1.0  0.15423  0.04772  0.20118  1.0000
  S   S13       1.0  0.18902  0.05596  0.15915  1.0000
  Fe  Fe7       1.0  0.13750  0.03326  0.19491  1.0000
  Fe  Fe8       1.0  0.13213  0.07033  0.19939  1.0000
  S   S14       1.0  0.12225  0.08976  0.21660  1.0000
  S   S15       1.0  0.14684  0.04029  0.16636  1.0000
  S   S16       1.0  0.14071  0.08034  0.17117  1.0000
  H   H4        1.0  0.03729  0.09152  0.22358  1.0000
  H   H5        1.0  0.12675  0.13814  0.05635  1.0000
  Fe  Fe9       1.0  0.16860  0.18980  0.19769  1.0000
  S   S17       1.0  0.18653  0.17442  0.21527  1.0000
  S   S18       1.0  0.17735  0.20121  0.16960  1.0000
  Fe  Fe10      1.0  0.13649  0.18498  0.22482  1.0000
  S   S19       1.0  0.15147  0.16901  0.24490  1.0000
  S   S20       1.0  0.10796  0.19311  0.22486  1.0000
  Fe  Fe11      1.0  0.16897  0.18859  0.23569  1.0000
  S   S21       1.0  0.17688  0.19730  0.25707  1.0000
  Fe  Fe12      1.0  0.16808  0.15635  0.22322  1.0000
  S   S22       1.0  0.17781  0.12836  0.22201  1.0000
  S   S23       1.0  0.15232  0.20551  0.21718  1.0000
  S   S24       1.0  0.15175  0.17077  0.20418  1.0000
  Fe  Fe13      1.0  0.03231  0.12515  0.19488  1.0000
  S   S25       1.0  0.01970  0.13089  0.22100  1.0000
  S   S26       1.0  0.03431  0.10002  0.18799  1.0000
  Fe  Fe14      1.0  0.03812  0.16143  0.17976  1.0000
  S   S27       1.0  0.02568  0.17052  0.20442  1.0000
  S   S28       1.0  0.05083  0.17807  0.15634  1.0000
  Fe  Fe15      1.0  0.04088  0.14553  0.21663  1.0000
  S   S29       1.0  0.05973  0.14048  0.23408  1.0000
  C   C2        1.0  0.18872  0.20961  0.27959  1.0000
  S   S30       1.0  0.05441  0.13754  0.19171  1.0000
  S   S31       1.0  0.01733  0.14825  0.18028  1.0000
  C   C3        1.0  0.07361  0.15493  0.23047  1.0000
  C   C4        1.0  0.28132  0.20781  0.29113  1.0000
  C   C5        1.0  0.00530  0.16981  0.14045  1.0000
  C   C6        1.0  0.09539  0.17794  0.22653  1.0000
  C   C7        1.0  0.09983  0.16075  0.23469  1.0000
  C   C8        1.0  0.08880  0.14937  0.23692  1.0000
  H   H6        1.0  0.13691  0.17991  0.30210  1.0000
  C   C9        1.0  0.10515  0.16864  0.00036  1.0000
  H   H7        1.0  0.11138  0.15637  0.23990  1.0000
  H   H8        1.0  0.09189  0.13628  0.24392  1.0000
  H   H9        1.0  0.10846  0.17814  0.03723  1.0000
  C   C10       1.0  0.10121  0.16968  0.01776  1.0000
  H   H10       1.0  0.10356  0.19911  0.13945  1.0000
  C   C11       1.0  0.19007  0.20914  0.26218  1.0000
  C   C12       1.0  0.20172  0.21804  0.24964  1.0000
  C   C13       1.0  0.10947  0.19688  0.26459  1.0000
  C   C14       1.0  0.07537  0.06408  0.22389  1.0000
  C   C15       1.0  0.11077  0.17797  0.02362  1.0000
  N   N2        1.0  0.99607  0.18676  0.16236  1.0000
  H   H11       1.0  0.09747  0.08330  0.11123  1.0000
  C   C16       1.0  0.08778  0.07948  0.15894  1.0000
  C   C17       1.0  0.08594  0.08812  0.17217  1.0000
  C   C18       1.0  0.06949  0.09504  0.18073  1.0000
  C   C19       1.0  0.05490  0.09291  0.17634  1.0000
  C   C20       1.0  0.05677  0.08419  0.16318  1.0000
  C   C21       1.0  0.07322  0.07774  0.15427  1.0000
  H   H12       1.0  0.09721  0.08941  0.17582  1.0000
  H   H13       1.0  0.06812  0.10148  0.19108  1.0000
  H   H14       1.0  0.04550  0.08241  0.15988  1.0000
  H   H15       1.0  0.07465  0.07089  0.14416  1.0000
  C   C22       1.0  0.13786  0.10007  0.21845  1.0000
  C   C23       1.0  0.15535  0.09444  0.21188  1.0000
  C   C24       1.0  0.16756  0.10292  0.21345  1.0000
  C   C25       1.0  0.16230  0.11754  0.22084  1.0000
  C   C26       1.0  0.14479  0.12333  0.22717  1.0000
  C   C27       1.0  0.13266  0.11433  0.22639  1.0000
  H   H16       1.0  0.15950  0.08330  0.20596  1.0000
  H   H17       1.0  0.18111  0.09807  0.20898  1.0000
  H   H18       1.0  0.14065  0.13443  0.23315  1.0000
  H   H19       1.0  0.11921  0.11851  0.23184  1.0000
  C   C28       1.0  0.13270  0.08905  0.10736  1.0000
  H   H20       1.0  0.10350  0.21962  0.24540  1.0000
  Fe  Fe16      1.0  0.00585  0.15508  0.20612  1.0000
  H   H21       1.0  0.12578  0.01535  0.17494  1.0000
  C   C29       1.0  0.09615  0.14145  0.13084  1.0000
  C   C30       1.0  0.08140  0.13548  0.14072  1.0000
  C   C31       1.0  0.06724  0.14688  0.14808  1.0000
  C   C32       1.0  0.06782  0.16424  0.14566  1.0000
  C   C33       1.0  0.08245  0.17027  0.13553  1.0000
  C   C34       1.0  0.09673  0.15882  0.12838  1.0000
  H   H22       1.0  0.08088  0.12206  0.14266  1.0000
  H   H23       1.0  0.05581  0.14219  0.15550  1.0000
  H   H24       1.0  0.08288  0.18370  0.13349  1.0000
  H   H25       1.0  0.10817  0.16346  0.12104  1.0000
  C   C35       1.0  0.19532  0.10329  0.11652  1.0000
  C   C36       1.0  0.20959  0.09267  0.12271  1.0000
  C   C37       1.0  0.20765  0.07782  0.13541  1.0000
  C   C38       1.0  0.19143  0.07359  0.14202  1.0000
  C   C39       1.0  0.17723  0.08393  0.13543  1.0000
  C   C40       1.0  0.17913  0.09888  0.12278  1.0000
  H   H26       1.0  0.22212  0.09604  0.11782  1.0000
  H   H27       1.0  0.21868  0.06978  0.14038  1.0000
  H   H28       1.0  0.16481  0.08041  0.14002  1.0000
  H   H29       1.0  0.16809  0.10700  0.11795  1.0000
  C   C41       1.0  0.15528  0.19553  0.12576  1.0000
  C   C42       1.0  0.16306  0.20930  0.12420  1.0000
  C   C43       1.0  0.17003  0.21052  0.13760  1.0000
  C   C44       1.0  0.16873  0.19838  0.15309  1.0000
  C   C45       1.0  0.16091  0.18450  0.15481  1.0000
  C   C46       1.0  0.15439  0.18294  0.14105  1.0000
  H   H30       1.0  0.16362  0.21916  0.11255  1.0000
  H   H31       1.0  0.17612  0.22121  0.13609  1.0000
  H   H32       1.0  0.15996  0.17498  0.16664  1.0000
  H   H33       1.0  0.14803  0.17249  0.14251  1.0000
  C   C47       1.0  0.14333  0.14623  0.03211  1.0000
  C   C48       1.0  0.14786  0.14578  0.01446  1.0000
  C   C49       1.0  0.13911  0.13751  0.00736  1.0000
  C   C50       1.0  0.12569  0.12971  0.01788  1.0000
  C   C51       1.0  0.12162  0.12957  0.03565  1.0000
  C   C52       1.0  0.13042  0.13776  0.04277  1.0000
  H   H34       1.0  0.15791  0.15221  0.00617  1.0000
  H   H35       1.0  0.09996  0.19076  0.26281  1.0000
  H   H36       1.0  0.05074  0.04782  0.22239  1.0000
  H   H37       1.0  0.13844  0.18893  0.98600  1.0000
  H   H38       1.0  0.08181  0.09673  0.23842  1.0000
  H   H39       1.0  0.18179  0.10745  0.15402  1.0000
  N   N3        1.0  0.11114  0.12974  0.18773  1.0000
  C   C53       1.0  0.12204  0.13796  0.19115  1.0000
  C   C54       1.0  0.11468  0.12453  0.17238  1.0000
  C   C55       1.0  0.13742  0.14036  0.17946  1.0000
  C   C56       1.0  0.12988  0.12683  0.16033  1.0000
  C   C57       1.0  0.14135  0.13468  0.16398  1.0000
  C   C58       1.0  0.09525  0.12726  0.20033  1.0000
  H   H40       1.0  0.11901  0.14240  0.20319  1.0000
  H   H41       1.0  0.10584  0.11842  0.16939  1.0000
  H   H42       1.0  0.14628  0.14638  0.18250  1.0000
  H   H43       1.0  0.13274  0.12240  0.14831  1.0000
  H   H44       1.0  0.15324  0.13638  0.15479  1.0000
  H   H45       1.0  0.08563  0.13950  0.19969  1.0000
  H   H46       1.0  0.08982  0.11708  0.19818  1.0000
  H   H47       1.0  0.09771  0.12301  0.21362  1.0000
  N   N4        1.0  0.19189  0.12537  0.16141  1.0000
  C   C59       1.0  0.19334  0.13066  0.17540  1.0000
  C   C60       1.0  0.19368  0.13600  0.14547  1.0000
  C   C61       1.0  0.19614  0.14716  0.17377  1.0000
  C   C62       1.0  0.19653  0.15258  0.14335  1.0000
  C   C63       1.0  0.19783  0.15814  0.15761  1.0000
  C   C64       1.0  0.18926  0.10791  0.16333  1.0000
  H   H48       1.0  0.19297  0.13169  0.13426  1.0000
  H   H49       1.0  0.19705  0.15136  0.18498  1.0000
  H   H50       1.0  0.19772  0.16106  0.13073  1.0000
  H   H51       1.0  0.20003  0.17098  0.15616  1.0000
  H   H52       1.0  0.20190  0.09895  0.16102  1.0000
  H   H53       1.0  0.18196  0.10319  0.17643  1.0000
  N   N5        1.0  0.10529  0.19147  0.16597  1.0000
  C   C65       1.0  0.11223  0.19357  0.17858  1.0000
  C   C66       1.0  0.10846  0.20119  0.14967  1.0000
  C   C67       1.0  0.12227  0.20597  0.17516  1.0000
  C   C68       1.0  0.12942  0.99412  0.19623  1.0000
  C   C69       1.0  0.12767  0.18389  0.99474  1.0000
  C   C70       1.0  0.09465  0.17853  0.16969  1.0000
  H   H54       1.0  0.11011  0.18565  0.19139  1.0000
  H   H55       1.0  0.12084  0.99794  0.15686  1.0000
  H   H56       1.0  0.16629  0.99783  0.13435  1.0000
  C   C71       1.0  0.19866  0.21877  0.28438  1.0000
  H   H57       1.0  0.11897  0.17549  0.28333  1.0000
  C   C72       1.0  0.14413  0.18627  0.28970  1.0000
  H   H58       1.0  0.17656  0.01525  0.14871  1.0000
  C   C73       1.0  0.16812  0.99298  0.14748  1.0000
  C   C74       1.0  0.05035  0.08625  0.22546  1.0000
  H   H59       1.0  0.12786  0.20749  0.18519  1.0000
  H   H60       1.0  0.11184  0.10185  0.07463  1.0000
  C   C75       1.0  0.05841  0.09582  0.23167  1.0000
  C   C76       1.0  0.14974  0.08684  0.09811  1.0000
  H   H61       1.0  0.13025  0.08670  0.12132  1.0000
  C   C77       1.0  0.10154  0.09574  0.10884  1.0000
  N   N6        1.0  0.05892  0.07066  0.22151  1.0000
  C   C78       1.0  0.13931  0.09576  0.07164  1.0000
  N   N7        1.0  0.11931  0.09443  0.09895  1.0000
  H   H62       1.0  0.08211  0.05167  0.22083  1.0000
  H   H63       1.0  0.09263  0.10625  0.10209  1.0000
  C   C79       1.0  0.12243  0.09767  0.08132  1.0000
  H   H64       1.0  0.16619  0.08891  0.07279  1.0000
  C   C80       1.0  0.06963  0.17191  0.22158  1.0000
  H   H65       1.0  0.16030  0.08280  0.10486  1.0000
  C   C81       1.0  0.26799  0.19971  0.29192  1.0000
  H   H66       1.0  0.19242  0.12211  0.18795  1.0000
  H   H67       1.0  0.14173  0.09867  0.05764  1.0000
  C   C82       1.0  0.12596  0.00182  0.17989  1.0000
  H   H68       1.0  0.09820  0.16145  0.99609  1.0000
  C   C83       1.0  0.12025  0.18833  0.27615  1.0000
  C   C84       1.0  0.18096  0.00745  0.18133  1.0000
  C   C85       1.0  0.11835  0.21379  0.14583  1.0000
  H   H69       1.0  0.14253  0.13746  0.99372  1.0000
  C   C86       1.0  0.15303  0.09022  0.08013  1.0000
  H   H70       1.0  0.26470  0.18980  0.30308  1.0000
  H   H71       1.0  0.07675  0.19673  0.21362  1.0000
  H   H72       1.0  0.25521  0.22160  0.25527  1.0000
  H   H73       1.0  0.19733  0.21889  0.29782  1.0000
  H   H74       1.0  0.03723  0.06735  0.21357  1.0000
  C   C87       1.0  0.12528  0.21617  0.15868  1.0000
  H   H75       1.0  0.10138  0.16809  0.16251  1.0000
  H   H76       1.0  0.05165  0.10822  0.23469  1.0000
  C   C88       1.0  0.07531  0.08933  0.23385  1.0000
  C   C89       1.0  0.24489  0.19591  0.28041  1.0000
  C   C90       1.0  0.05076  0.06093  0.21434  1.0000
  H   H77       1.0  0.05790  0.05991  0.20099  1.0000
  H   H78       1.0  0.09137  0.16335  0.02676  1.0000
  C   C91       1.0  0.21028  0.22770  0.27184  1.0000
  C   C92       1.0  0.08382  0.07330  0.23008  1.0000
  H   H79       1.0  0.24906  0.18171  0.28367  1.0000
  C   C93       1.0  0.12408  0.18514  0.01206  1.0000
  S   S32       1.0  0.13567  0.00582  0.20808  1.0000
  N   N8        1.0  0.11815  0.17582  0.98908  1.0000
  H   H80       1.0  0.01994  0.18635  0.14409  1.0000
  H   H81       1.0  0.08215  0.18453  0.16569  1.0000
  H   H82       1.0  0.05793  0.17635  0.21662  1.0000
  H   H83       1.0  0.17992  0.20279  0.28954  1.0000
  H   H84       1.0  0.13213  0.19081  0.01672  1.0000
  H   H85       1.0  0.23387  0.20020  0.29060  1.0000
  H   H86       1.0  0.20304  0.21794  0.23620  1.0000
  H   H87       1.0  0.15401  0.17639  0.28347  1.0000
  C   C94       1.0  0.17377  0.00281  0.15574  1.0000
  C   C95       1.0  0.11147  0.21311  0.25478  1.0000
  H   H88       1.0  0.15106  0.19483  0.29263  1.0000
  C   C96       1.0  0.12299  0.99195  0.16971  1.0000
  N   N9        1.0  0.17537  0.99701  0.17257  1.0000
  C   C97       1.0  0.21171  0.22716  0.25444  1.0000
  C   C98       1.0  0.13458  0.21179  0.26846  1.0000
  H   H89       1.0  0.24019  0.19920  0.26819  1.0000
  N   N10       1.0  0.13252  0.19587  0.27805  1.0000
  H   H90       1.0  0.09156  0.17282  0.18368  1.0000
  H   H91       1.0  0.12120  0.22117  0.13276  1.0000
  H   H92       1.0  0.14461  0.21761  0.26958  1.0000
  H   H93       1.0  0.13344  0.22551  0.15571  1.0000
  H   H94       1.0  0.29531  0.22763  0.27659  1.0000
  C   C99       1.0  0.12412  0.22063  0.25667  1.0000
  H   H95       1.0  0.01351  0.19748  0.16980  1.0000
  H   H96       1.0  0.18371  0.01975  0.17274  1.0000
  C   C100      1.0  0.28530  0.22094  0.27709  1.0000
  H   H97       1.0  0.19285  0.00027  0.18597  1.0000
  S   S33       1.0  0.29394  0.23319  0.31176  1.0000
  C   C101      1.0  0.00799  0.18169  0.14855  1.0000
  C   C102      1.0  0.26280  0.21733  0.26518  1.0000
  H   H98       1.0  0.01513  0.16527  0.12999  1.0000
  H   H99       1.0  0.28828  0.20423  0.30151  1.0000
  C   C103      1.0  0.27598  0.22578  0.26402  1.0000
  H   H100      1.0  0.17070  0.01069  0.19256  1.0000
  C   C104      1.0  0.99944  0.19846  0.17137  1.0000
  H   H101      1.0  0.12608  0.23306  0.24879  1.0000
  H   H102      1.0  0.22058  0.23394  0.24451  1.0000
  H   H103      1.0  0.99415  0.19505  0.18548  1.0000
  H   H104      1.0  0.99343  0.21191  0.16631  1.0000
  H   H105      1.0  0.27860  0.23634  0.25332  1.0000
  S   S34       1.0  0.24459  0.23372  0.31977  1.0000
  C   C105      1.0  0.40871  0.23353  0.35975  1.0000
  C   C106      1.0  0.27649  0.23199  0.36032  1.0000
  H   H106      1.0  0.28414  0.22068  0.35477  1.0000
  H   H107      1.0  0.28669  0.22956  0.38949  1.0000
  H   H108      1.0  0.39457  0.23450  0.36197  1.0000
  H   H109      1.0  0.41479  0.22000  0.36448  1.0000
  H   H110      1.0  0.26767  0.22762  0.37260  1.0000
  H   H111      1.0  0.23419  0.23377  0.41703  1.0000
  H   H112      1.0  0.32637  0.22763  0.32170  1.0000
  H   H113      1.0  0.25223  0.23589  0.63726  1.0000
  H   H114      1.0  0.21825  0.23630  0.39446  1.0000
  H   H115      1.0  0.41346  0.23705  0.34556  1.0000
  N   N11       1.0  0.11897  0.19715  0.77714  1.0000
  C   C107      1.0  0.12253  0.17380  0.97112  1.0000
  H   H116      1.0  0.13022  0.19665  0.75061  1.0000
  Fe  Fe17      1.0  0.01632  0.11026  0.87935  1.0000
  S   S35       1.0  0.01008  0.11898  0.85317  1.0000
  S   S36       1.0  0.02048  0.08234  0.89104  1.0000
  Fe  Fe18      1.0  0.01869  0.14567  0.88189  1.0000
  S   S37       1.0  0.01185  0.15769  0.85609  1.0000
  S   S38       1.0  0.02727  0.16192  0.89508  1.0000
  H   H117      1.0  0.11074  0.17651  0.96583  1.0000
  Fe  Fe19      1.0  0.03036  0.13463  0.84760  1.0000
  S   S39       1.0  0.05296  0.13532  0.82526  1.0000
  C   C108      1.0  0.08047  0.10034  0.85166  1.0000
  S   S40       1.0  0.03826  0.12372  0.87290  1.0000
  Fe  Fe20      1.0  0.11333  0.03472  0.89175  1.0000
  S   S41       1.0  0.13898  0.01713  0.88643  1.0000
  S   S42       1.0  0.10061  0.04400  0.91633  1.0000
  Fe  Fe21      1.0  0.10767  0.03965  0.85593  1.0000
  S   S43       1.0  0.13292  0.02277  0.84685  1.0000
  S   S44       1.0  0.08789  0.05400  0.84039  1.0000
  Fe  Fe22      1.0  0.12642  0.00510  0.87243  1.0000
  Fe  Fe23      1.0  0.14325  0.03622  0.86148  1.0000
  S   S45       1.0  0.16821  0.04527  0.85146  1.0000
  S   S46       1.0  0.10027  0.02089  0.88026  1.0000
  S   S47       1.0  0.11863  0.05475  0.86801  1.0000
  Fe  Fe24      1.0  0.09144  0.12429  0.95613  1.0000
  S   S48       1.0  0.11260  0.12694  0.93273  1.0000
  S   S49       1.0  0.06653  0.11881  0.95422  1.0000
  Fe  Fe25      1.0  0.11960  0.14499  0.94480  1.0000
  S   S50       1.0  0.12894  0.16896  0.92984  1.0000
  Fe  Fe26      1.0  0.12879  0.10650  0.94891  1.0000
  H   H118      1.0  0.18038  0.19457  0.83444  1.0000
  H   H119      1.0  0.10843  0.99117  0.85213  1.0000
  C   C109      1.0  0.11712  0.20608  0.78973  1.0000
  H   H120      1.0  0.01825  0.19406  0.86927  1.0000
  S   S51       1.0  0.09669  0.14461  0.96689  1.0000
  C   C110      1.0  0.11200  0.08764  0.80489  1.0000
  C   C111      1.0  0.10373  0.20480  0.80426  1.0000
  C   C112      1.0  0.10878  0.09173  0.83373  1.0000
  S   S52       1.0  0.14569  0.08619  0.93454  1.0000
  H   H121      1.0  0.08183  0.19319  0.81714  1.0000
  H   H122      1.0  0.01181  0.20061  0.88958  1.0000
  Fe  Fe27      1.0  0.13043  0.16570  0.83128  1.0000
  S   S53       1.0  0.14714  0.18356  0.83076  1.0000
  S   S54       1.0  0.10272  0.17135  0.84435  1.0000
  Fe  Fe28      1.0  0.15957  0.14166  0.81355  1.0000
  S   S55       1.0  0.17926  0.15718  0.81147  1.0000
  S   S56       1.0  0.16662  0.11827  0.80197  1.0000
  Fe  Fe29      1.0  0.16571  0.15942  0.83859  1.0000
  S   S57       1.0  0.17964  0.15871  0.85893  1.0000
  Fe  Fe30      1.0  0.15911  0.18004  0.80372  1.0000
  S   S58       1.0  0.16233  0.20394  0.78308  1.0000
  S   S59       1.0  0.14802  0.14168  0.84144  1.0000
  S   S60       1.0  0.14043  0.16434  0.80348  1.0000
  C   C113      1.0  0.21496  0.21768  0.75670  1.0000
  C   C114      1.0  0.21398  0.20201  0.76849  1.0000
  C   C115      1.0  0.19797  0.19732  0.77629  1.0000
  C   C116      1.0  0.18283  0.20831  0.77231  1.0000
  C   C117      1.0  0.18440  0.22024  0.80829  1.0000
  C   C118      1.0  0.21815  0.22428  0.79528  1.0000
  H   H123      1.0  0.22563  0.19363  0.77185  1.0000
  H   H124      1.0  0.19735  0.18536  0.78554  1.0000
  H   H125      1.0  0.12620  0.21401  0.78874  1.0000
  C   C119      1.0  0.19381  0.19252  0.82680  1.0000
  C   C120      1.0  0.14297  0.16557  0.91028  1.0000
  C   C121      1.0  0.15938  0.16939  0.90639  1.0000
  C   C122      1.0  0.17065  0.16700  0.89072  1.0000
  C   C123      1.0  0.16535  0.16138  0.87859  1.0000
  C   C124      1.0  0.14887  0.15767  0.88238  1.0000
  C   C125      1.0  0.13780  0.15948  0.89835  1.0000
  H   H126      1.0  0.16343  0.17408  0.91558  1.0000
  H   H127      1.0  0.18338  0.16983  0.88789  1.0000
  H   H128      1.0  0.14464  0.15343  0.87306  1.0000
  H   H129      1.0  0.12504  0.15673  0.90124  1.0000
  C   C126      1.0  0.11343  0.05511  0.92175  1.0000
  C   C127      1.0  0.13046  0.05499  0.91286  1.0000
  C   C128      1.0  0.14049  0.06410  0.91721  1.0000
  C   C129      1.0  0.13339  0.07379  0.93009  1.0000
  C   C130      1.0  0.11629  0.07403  0.93882  1.0000
  C   C131      1.0  0.10642  0.06451  0.93484  1.0000
  H   H130      1.0  0.13599  0.04774  0.90273  1.0000
  H   H131      1.0  0.15370  0.06368  0.91049  1.0000
  H   H132      1.0  0.11064  0.08145  0.94874  1.0000
  H   H133      1.0  0.09325  0.06463  0.94180  1.0000
  C   C132      1.0  0.16660  0.06559  0.83771  1.0000
  C   C133      1.0  0.15459  0.07992  0.84269  1.0000
  C   C134      1.0  0.15464  0.09634  0.83199  1.0000
  C   C135      1.0  0.16640  0.09826  0.81615  1.0000
  C   C136      1.0  0.17809  0.08387  0.81115  1.0000
  C   C137      1.0  0.17842  0.06766  0.82204  1.0000
  H   H134      1.0  0.14567  0.07839  0.85500  1.0000
  H   H135      1.0  0.14546  0.10741  0.83582  1.0000
  H   H136      1.0  0.18716  0.08530  0.79891  1.0000
  H   H137      1.0  0.18782  0.05667  0.81823  1.0000
  C   C138      1.0  0.03827  0.14998  0.91144  1.0000
  C   C139      1.0  0.05041  0.15667  0.91562  1.0000
  C   C140      1.0  0.05952  0.14705  0.92847  1.0000
  C   C141      1.0  0.05608  0.13096  0.93751  1.0000
  C   C142      1.0  0.04388  0.12435  0.93335  1.0000
  C   C143      1.0  0.03518  0.13370  0.92017  1.0000
  H   H138      1.0  0.05291  0.16923  0.90882  1.0000
  H   H139      1.0  0.06892  0.15222  0.93165  1.0000
  H   H140      1.0  0.04117  0.11192  0.94037  1.0000
  H   H141      1.0  0.02585  0.12844  0.91700  1.0000
  C   C144      1.0  0.03881  0.07342  0.87724  1.0000
  C   C145      1.0  0.05376  0.06520  0.88344  1.0000
  C   C146      1.0  0.06888  0.05942  0.87208  1.0000
  C   C147      1.0  0.06898  0.06136  0.85459  1.0000
  C   C148      1.0  0.05403  0.06964  0.84838  1.0000
  C   C149      1.0  0.03900  0.07585  0.85966  1.0000
  H   H142      1.0  0.05381  0.06381  0.89691  1.0000
  H   H143      1.0  0.08051  0.05382  0.87687  1.0000
  H   H144      1.0  0.05408  0.07133  0.83485  1.0000
  H   H145      1.0  0.02756  0.08241  0.85474  1.0000
  C   C150      1.0  0.06710  0.14526  0.83016  1.0000
  C   C151      1.0  0.08460  0.14265  0.82220  1.0000
  C   C152      1.0  0.09586  0.15021  0.82680  1.0000
  C   C153      1.0  0.08948  0.16069  0.83904  1.0000
  C   C154      1.0  0.07201  0.16338  0.84681  1.0000
  C   C155      1.0  0.06092  0.15551  0.84256  1.0000
  H   H146      1.0  0.08946  0.13463  0.81267  1.0000
  H   H147      1.0  0.10938  0.14808  0.82077  1.0000
  H   H148      1.0  0.06698  0.17159  0.85617  1.0000
  H   H149      1.0  0.04751  0.15761  0.84877  1.0000
  H   H150      1.0  0.07002  0.03088  0.91331  1.0000
  H   H151      1.0  0.19565  0.18190  0.82001  1.0000
  H   H152      1.0  0.00415  0.21478  0.87124  1.0000
  C   C156      1.0  0.21424  0.20987  0.80780  1.0000
  H   H153      1.0  0.22469  0.19990  0.81197  1.0000
  H   H154      1.0  0.09727  0.01187  0.93817  1.0000
  C   C157      1.0  0.19986  0.22837  0.75232  1.0000
  C   C158      1.0  0.09417  0.09237  0.80663  1.0000
  H   H155      1.0  0.08560  0.17662  0.79452  1.0000
  H   H156      1.0  0.12008  0.08406  0.79309  1.0000
  C   C159      1.0  0.10792  0.18657  0.77880  1.0000
  C   C160      1.0  0.08160  0.99492  0.91372  1.0000
  H   H157      1.0  0.10977  0.17898  0.76917  1.0000
  C   C161      1.0  0.08395  0.09663  0.82207  1.0000
  H   H158      1.0  0.08823  0.09246  0.79625  1.0000
  N   N12       1.0  0.08237  0.00576  0.92357  1.0000
  H   H159      1.0  0.08153  0.11324  0.85267  1.0000
  H   H160      1.0  0.08439  0.09051  0.86280  1.0000
  H   H161      1.0  0.14466  0.18744  0.76545  1.0000
  C   C162      1.0  0.11940  0.08738  0.81847  1.0000
  H   H162      1.0  0.06911  0.02686  0.93602  1.0000
  H   H163      1.0  0.12949  0.16044  0.97027  1.0000
  C   C163      1.0  0.09645  0.00311  0.93064  1.0000
  S   S61       1.0  0.13785  0.12483  0.95912  1.0000
  H   H164      1.0  0.20239  0.18841  0.83622  1.0000
  C   C164      1.0  0.09426  0.18516  0.79308  1.0000
  C   C165      1.0  0.13360  0.19792  0.76242  1.0000
  N   N13       1.0  0.09128  0.09603  0.83545  1.0000
  H   H165      1.0  0.11461  0.09140  0.84427  1.0000
  S   S62       1.0  0.23497  0.22423  0.74897  1.0000
  H   H166      1.0  0.06671  0.10055  0.85242  1.0000
  H   H167      1.0  0.13790  0.21035  0.75948  1.0000
  H   H168      1.0  0.07008  0.10007  0.82340  1.0000
  C   C166      1.0  0.09214  0.19443  0.80581  1.0000
  H   H169      1.0  0.13326  0.08365  0.81724  1.0000
  N   N14       1.0  0.17407  0.10423  0.89019  1.0000
  C   C167      1.0  0.17479  0.11171  0.87314  1.0000
  C   C168      1.0  0.17716  0.08669  0.89530  1.0000
  C   C169      1.0  0.17902  0.10160  0.86066  1.0000
  C   C170      1.0  0.18133  0.07619  0.88317  1.0000
  C   C171      1.0  0.18235  0.08372  0.86575  1.0000
  C   C172      1.0  0.16913  0.11512  0.90305  1.0000
  H   H170      1.0  0.17217  0.12559  0.86911  1.0000
  H   H171      1.0  0.17630  0.08072  0.90884  1.0000
  H   H172      1.0  0.17968  0.10757  0.84712  1.0000
  H   H173      1.0  0.18362  0.06228  0.88725  1.0000
  H   H174      1.0  0.18563  0.07568  0.85624  1.0000
  H   H175      1.0  0.17323  0.10806  0.91531  1.0000
  H   H176      1.0  0.17520  0.12658  0.89828  1.0000
  H   H177      1.0  0.15492  0.11945  0.90611  1.0000
  N   N15       1.0  0.08875  0.11081  0.90182  1.0000
  C   C173      1.0  0.08002  0.12616  0.89409  1.0000
  C   C174      1.0  0.10613  0.10817  0.90048  1.0000
  C   C175      1.0  0.08867  0.13943  0.88492  1.0000
  C   C176      1.0  0.11524  0.12109  0.89118  1.0000
  C   C177      1.0  0.10639  0.13685  0.88342  1.0000
  C   C178      1.0  0.07944  0.09735  0.91232  1.0000
  H   H178      1.0  0.06625  0.12834  0.89517  1.0000
  H   H179      1.0  0.11299  0.09611  0.90681  1.0000
  H   H180      1.0  0.08163  0.15174  0.87923  1.0000
  H   H181      1.0  0.12897  0.11902  0.89038  1.0000
  H   H182      1.0  0.11316  0.14715  0.87639  1.0000
  H   H183      1.0  0.08615  0.08461  0.90916  1.0000
  H   H184      1.0  0.07862  0.09673  0.92623  1.0000
  H   H185      1.0  0.06611  0.09987  0.91024  1.0000
  C   C179      1.0  0.06858  0.02096  0.92542  1.0000
  S   S63       1.0  0.99720  0.13107  0.89115  1.0000
  S   S64       1.0  0.10729  0.10267  0.97185  1.0000
  H   H186      1.0  0.05574  0.01760  0.92823  1.0000
  H   H187      1.0  0.12163  0.98771  0.93293  1.0000
  H   H188      1.0  0.14340  0.98729  0.82045  1.0000
  C   C180      1.0  0.18386  0.22370  0.76011  1.0000
  H   H189      1.0  0.99881  0.07252  0.87310  1.0000
  N   N16       1.0  0.19752  0.20811  0.81428  1.0000
  H   H190      1.0  0.13082  0.18273  0.96259  1.0000
  H   H191      1.0  0.17122  0.21840  0.81270  1.0000
  H   H192      1.0  0.07073  0.99735  0.90762  1.0000
  H   H193      1.0  0.10256  0.21148  0.81448  1.0000
  C   C181      1.0  0.00733  0.20109  0.87774  1.0000
  Fe  Fe31      1.0  0.11457  0.12314  0.98069  1.0000
  C   C182      1.0  0.11029  0.98943  0.92776  1.0000
  H   H194      1.0  0.23143  0.22535  0.78959  1.0000
  H   H195      1.0  0.25695  0.23273  0.66677  1.0000
  H   H196      1.0  0.17223  0.23224  0.75689  1.0000
  H   H197      1.0  0.99427  0.08546  0.85274  1.0000
  C   C183      1.0  0.18784  0.23486  0.79585  1.0000
  H   H198      1.0  0.99425  0.18211  0.90791  1.0000
  Fe  Fe32      1.0  0.99217  0.14090  0.86432  1.0000
  N   N17       1.0  0.99241  0.19298  0.88169  1.0000
  C   C184      1.0  0.26662  0.23660  0.65555  1.0000
  C   C185      1.0  0.20484  0.23686  0.78933  1.0000
  H   H199      1.0  0.33310  0.33851  0.29181  1.0000
  C   C186      1.0  0.33332  0.26757  0.30054  1.0000
  H   H200      1.0  0.41873  0.30829  0.29427  1.0000
  C   C187      1.0  0.25723  0.37124  0.27770  1.0000
  H   H201      1.0  0.29929  0.33996  0.29284  1.0000
  C   C188      1.0  0.43416  0.33370  0.31027  1.0000
  H   H202      1.0  0.28003  0.32784  0.26459  1.0000
  C   C189      1.0  0.32405  0.24048  0.31395  1.0000
  H   H203      1.0  0.30861  0.34707  0.27050  1.0000
  S   S65       1.0  0.25740  0.26064  0.28461  1.0000
  S   S66       1.0  0.24636  0.30931  0.28719  1.0000
  H   H204      1.0  0.39607  0.33053  0.30455  1.0000
  Fe  Fe33      1.0  0.24424  0.28177  0.29924  1.0000
  C   C190      1.0  0.27391  0.34024  0.26797  1.0000
  S   S67       1.0  0.31218  0.37252  0.29071  1.0000
  S   S68       1.0  0.34871  0.28070  0.29521  1.0000
  C   C191      1.0  0.33620  0.34440  0.30070  1.0000
  Fe  Fe34      1.0  0.36477  0.27867  0.31447  1.0000
  N   N18       1.0  0.28177  0.34791  0.27593  1.0000
  C   C192      1.0  0.44553  0.30748  0.29189  1.0000
  C   C193      1.0  0.42795  0.31409  0.29700  1.0000
  C   C194      1.0  0.31837  0.27353  0.29374  1.0000
  H   H205      1.0  0.31625  0.28624  0.28568  1.0000
  H   H206      1.0  0.47116  0.30870  0.29290  1.0000
  S   S69       1.0  0.26605  0.40066  0.30282  1.0000
  C   C195      1.0  0.22249  0.34957  0.31007  1.0000
  H   H207      1.0  0.25099  0.34137  0.25917  1.0000
  Fe  Fe35      1.0  0.23358  0.24905  0.29645  1.0000
  C   C196      1.0  0.27376  0.36334  0.28052  1.0000
  C   C197      1.0  0.24133  0.32395  0.30104  1.0000
  Fe  Fe36      1.0  0.26702  0.24705  0.30875  1.0000
  H   H208      1.0  0.29460  0.26794  0.29205  1.0000
  H   H209      1.0  0.23598  0.36908  0.26810  1.0000
  C   C198      1.0  0.24902  0.36339  0.26985  1.0000
  C   C199      1.0  0.25746  0.34789  0.26477  1.0000
  C   C200      1.0  0.29895  0.33981  0.27941  1.0000
  H   H210      1.0  0.25063  0.38311  0.28205  1.0000
  H   H211      1.0  0.28001  0.36943  0.28675  1.0000
  H   H212      1.0  0.21570  0.33391  0.29639  1.0000
  C   C201      1.0  0.30614  0.26315  0.29727  1.0000
  C   C202      1.0  0.25411  0.32643  0.30816  1.0000
  C   C203      1.0  0.45752  0.31416  0.29617  1.0000
  H   H213      1.0  0.44975  0.29672  0.28534  1.0000
  C   C204      1.0  0.32840  0.36140  0.30199  1.0000
  S   S70       1.0  0.21982  0.27152  0.30956  1.0000
  C   C205      1.0  0.45184  0.32737  0.30540  1.0000
  H   H214      1.0  0.21027  0.35858  0.31059  1.0000
  C   C206      1.0  0.22548  0.33549  0.30218  1.0000
  N   N19       1.0  0.42249  0.32713  0.30597  1.0000
  C   C207      1.0  0.30910  0.24647  0.30713  1.0000
  S   S71       1.0  0.22387  0.23892  0.27720  1.0000
  C   C208      1.0  0.34735  0.33468  0.31159  1.0000
  H   H215      1.0  0.32660  0.38212  0.31441  1.0000
  Fe  Fe37      1.0  0.29058  0.38433  0.30980  1.0000
  C   C209      1.0  0.40405  0.33309  0.31233  1.0000
  C   C210      1.0  0.33600  0.25109  0.31091  1.0000
  H   H216      1.0  0.26653  0.31777  0.30697  1.0000
  H   H217      1.0  0.30278  0.32618  0.27793  1.0000
  C   C211      1.0  0.23547  0.35255  0.31645  1.0000
  H   H218      1.0  0.46103  0.33210  0.30948  1.0000
  S   S72       1.0  0.38392  0.29575  0.30928  1.0000
  H   H219      1.0  0.30745  0.47802  0.30661  1.0000
  H   H220      1.0  0.40086  0.34717  0.31184  1.0000
  H   H221      1.0  0.35264  0.32133  0.31107  1.0000
  C   C212      1.0  0.25122  0.34076  0.31578  1.0000
  C   C213      1.0  0.33240  0.36891  0.31358  1.0000
  H   H222      1.0  0.34754  0.24635  0.31611  1.0000
  C   C214      1.0  0.31511  0.48536  0.30972  1.0000
  H   H223      1.0  0.30227  0.25536  0.48620  1.0000
  C   C215      1.0  0.22812  0.24374  0.39187  1.0000
  S   S73       1.0  0.36328  0.32208  0.62441  1.0000
  S   S74       1.0  0.25580  0.26904  0.32225  1.0000
  Fe  Fe38      1.0  0.29915  0.29150  0.59271  1.0000
  S   S75       1.0  0.27474  0.29698  0.61194  1.0000
  S   S76       1.0  0.32110  0.27710  0.60575  1.0000
  Fe  Fe39      1.0  0.28155  0.30734  0.56243  1.0000
  S   S77       1.0  0.25587  0.31479  0.57950  1.0000
  S   S78       1.0  0.28346  0.31396  0.53350  1.0000
  Fe  Fe40      1.0  0.27040  0.32280  0.59477  1.0000
  S   S79       1.0  0.25830  0.34392  0.60964  1.0000
  Fe  Fe41      1.0  0.26242  0.28844  0.59530  1.0000
  S   S80       1.0  0.26248  0.24779  0.41732  1.0000
  S   S81       1.0  0.29573  0.31808  0.57623  1.0000
  S   S82       1.0  0.28722  0.28025  0.57741  1.0000
  Fe  Fe42      1.0  0.28535  0.29077  0.43404  1.0000
  S   S83       1.0  0.31108  0.29817  0.42515  1.0000
  Fe  Fe43      1.0  0.24785  0.30532  0.43365  1.0000
  S   S84       1.0  0.23957  0.28090  0.44908  1.0000
  S   S85       1.0  0.23102  0.32784  0.42019  1.0000
  Fe  Fe44      1.0  0.25843  0.28026  0.46521  1.0000
  S   S86       1.0  0.25535  0.27269  0.49444  1.0000
  Fe  Fe45      1.0  0.26234  0.26833  0.43129  1.0000
  H   H224      1.0  0.33249  0.39377  0.62635  1.0000
  S   S87       1.0  0.26458  0.30589  0.45107  1.0000
  S   S88       1.0  0.26941  0.29277  0.41509  1.0000
  H   H225      1.0  0.43792  0.24474  0.35256  1.0000
  C   C216      1.0  0.30891  0.31992  0.64661  1.0000
  S   S89       1.0  0.28041  0.26497  0.44896  1.0000
  Fe  Fe46      1.0  0.27718  0.38352  0.34782  1.0000
  S   S90       1.0  0.28327  0.37403  0.37406  1.0000
  S   S91       1.0  0.25145  0.39954  0.34407  1.0000
  S   S92       1.0  0.46486  0.31038  0.34799  1.0000
  Fe  Fe47      1.0  0.25346  0.38281  0.32547  1.0000
  C   C217      1.0  0.24967  0.25209  0.40181  1.0000
  H   H226      1.0  0.33247  0.24254  0.40764  1.0000
  C   C218      1.0  0.23618  0.45914  0.36009  1.0000
  H   H227      1.0  0.29071  0.32073  0.34683  1.0000
  S   S93       1.0  0.29256  0.40053  0.32714  1.0000
  H   H228      1.0  0.30845  0.32603  0.47862  1.0000
  H   H229      1.0  0.25210  0.36375  0.63551  1.0000
  C   C219      1.0  0.42920  0.29187  0.33635  1.0000
  C   C220      1.0  0.30970  0.33318  0.34950  1.0000
  C   C221      1.0  0.28495  0.46999  0.34677  1.0000
  H   H230      1.0  0.27071  0.41246  0.36771  1.0000
  H   H231      1.0  0.31280  0.28830  0.51363  1.0000
  H   H232      1.0  0.27981  0.31276  0.37854  1.0000
  C   C222      1.0  0.28192  0.44431  0.33911  1.0000
  C   C223      1.0  0.28893  0.45209  0.34830  1.0000
  H   H233      1.0  0.23879  0.43332  0.35718  1.0000
  H   H234      1.0  0.29716  0.44416  0.35692  1.0000
  C   C224      1.0  0.24440  0.34214  0.40802  1.0000
  C   C225      1.0  0.25825  0.34351  0.41418  1.0000
  C   C226      1.0  0.26984  0.35382  0.40394  1.0000
  C   C227      1.0  0.26792  0.36234  0.38727  1.0000
  C   C228      1.0  0.25400  0.36109  0.38112  1.0000
  C   C229      1.0  0.24203  0.35129  0.39163  1.0000
  H   H235      1.0  0.25992  0.33683  0.42695  1.0000
  H   H236      1.0  0.28045  0.35492  0.40884  1.0000
  H   H237      1.0  0.25246  0.36754  0.36823  1.0000
  H   H238      1.0  0.23120  0.35055  0.38687  1.0000
  C   C230      1.0  0.32461  0.28411  0.41220  1.0000
  C   C231      1.0  0.32300  0.26694  0.41560  1.0000
  C   C232      1.0  0.33361  0.25586  0.40490  1.0000
  C   C233      1.0  0.34539  0.26213  0.39045  1.0000
  C   C234      1.0  0.34691  0.27932  0.38701  1.0000
  C   C235      1.0  0.33677  0.29021  0.39806  1.0000
  H   H239      1.0  0.35586  0.28433  0.37584  1.0000
  H   H240      1.0  0.33810  0.30345  0.39538  1.0000
  S   S94       1.0  0.30788  0.37225  0.63826  1.0000
  H   H241      1.0  0.26338  0.27035  0.38319  1.0000
  H   H242      1.0  0.20681  0.27280  0.62352  1.0000
  C   C236      1.0  0.23225  0.25408  0.37556  1.0000
  H   H243      1.0  0.23245  0.33435  0.35549  1.0000
  C   C237      1.0  0.30433  0.24680  0.38093  1.0000
  C   C238      1.0  0.30791  0.27020  0.50156  1.0000
  H   H244      1.0  0.30675  0.26039  0.51326  1.0000
  C   C239      1.0  0.30891  0.25030  0.64561  1.0000
  H   H245      1.0  0.30974  0.31849  0.50074  1.0000
  C   C240      1.0  0.27472  0.30258  0.52343  1.0000
  C   C241      1.0  0.27185  0.30991  0.50674  1.0000
  C   C242      1.0  0.26608  0.30081  0.49773  1.0000
  C   C243      1.0  0.26315  0.28423  0.50529  1.0000
  C   C244      1.0  0.26585  0.27692  0.52209  1.0000
  C   C245      1.0  0.27159  0.28607  0.53116  1.0000
  H   H246      1.0  0.27413  0.32271  0.50071  1.0000
  H   H247      1.0  0.26366  0.30679  0.48505  1.0000
  H   H248      1.0  0.24795  0.27219  0.36006  1.0000
  H   H249      1.0  0.27386  0.28024  0.54398  1.0000
  C   C246      1.0  0.29436  0.36401  0.63035  1.0000
  H   H250      1.0  0.32180  0.46593  0.33134  1.0000
  C   C247      1.0  0.26577  0.36089  0.63050  1.0000
  C   C248      1.0  0.27248  0.35142  0.61742  1.0000
  C   C249      1.0  0.29027  0.34795  0.61100  1.0000
  C   C250      1.0  0.30118  0.35446  0.61729  1.0000
  N   N20       1.0  0.31181  0.29879  0.48718  1.0000
  S   S95       1.0  0.42843  0.26705  0.31959  1.0000
  H   H251      1.0  0.29560  0.34062  0.60093  1.0000
  H   H252      1.0  0.31486  0.35206  0.61201  1.0000
  C   C251      1.0  0.35139  0.30953  0.61958  1.0000
  C   C252      1.0  0.34266  0.31637  0.60598  1.0000
  C   C253      1.0  0.33298  0.30666  0.60192  1.0000
  C   C254      1.0  0.33236  0.28989  0.61117  1.0000
  C   C255      1.0  0.34102  0.28309  0.62484  1.0000
  C   C256      1.0  0.35034  0.29296  0.62918  1.0000
  H   H253      1.0  0.34338  0.32920  0.59853  1.0000
  H   H254      1.0  0.32646  0.31198  0.59129  1.0000
  H   H255      1.0  0.34063  0.27012  0.63205  1.0000
  N   N21       1.0  0.22002  0.30144  0.38701  1.0000
  C   C257      1.0  0.21240  0.29453  0.37812  1.0000
  C   C258      1.0  0.22709  0.31559  0.37910  1.0000
  C   C259      1.0  0.29773  0.32421  0.38476  1.0000
  C   C260      1.0  0.22037  0.29400  0.40521  1.0000
  H   H256      1.0  0.20668  0.28336  0.38434  1.0000
  H   H257      1.0  0.23285  0.32118  0.38628  1.0000
  H   H258      1.0  0.21142  0.30277  0.41345  1.0000
  H   H259      1.0  0.21677  0.28117  0.40935  1.0000
  H   H260      1.0  0.23354  0.29218  0.40748  1.0000
  H   H261      1.0  0.37513  0.35148  0.62574  1.0000
  N   N22       1.0  0.31074  0.33319  0.37848  1.0000
  C   C261      1.0  0.31776  0.33894  0.39025  1.0000
  H   H262      1.0  0.29280  0.32087  0.39853  1.0000
  H   H263      1.0  0.32674  0.34515  0.35620  1.0000
  H   H264      1.0  0.33201  0.33693  0.38629  1.0000
  C   C262      1.0  0.27090  0.45434  0.32828  1.0000
  H   H265      1.0  0.31455  0.33171  0.40370  1.0000
  H   H266      1.0  0.25881  0.48017  0.31795  1.0000
  H   H267      1.0  0.39530  0.26705  0.40066  1.0000
  S   S96       1.0  0.26042  0.44464  0.31819  1.0000
  H   H268      1.0  0.25697  0.47061  0.38488  1.0000
  C   C263      1.0  0.24128  0.46971  0.36788  1.0000
  H   H269      1.0  0.34077  0.35564  0.61909  1.0000
  C   C264      1.0  0.24222  0.44134  0.36390  1.0000
  C   C265      1.0  0.34008  0.48080  0.34337  1.0000
  H   H270      1.0  0.47890  0.28051  0.33133  1.0000
  S   S97       1.0  0.23147  0.37130  0.32483  1.0000
  H   H271      1.0  0.42990  0.31153  0.34905  1.0000
  N   N23       1.0  0.25290  0.43425  0.37531  1.0000
  N   N24       1.0  0.35354  0.37234  0.62445  1.0000
  C   C266      1.0  0.20570  0.27532  0.64933  1.0000
  S   S98       1.0  0.38172  0.25566  0.32762  1.0000
  N   N25       1.0  0.22768  0.28252  0.55600  1.0000
  C   C267      1.0  0.22466  0.28309  0.54019  1.0000
  C   C268      1.0  0.23148  0.29645  0.55935  1.0000
  C   C269      1.0  0.22519  0.29800  0.52733  1.0000
  C   C270      1.0  0.23234  0.31150  0.54671  1.0000
  C   C271      1.0  0.22916  0.31224  0.53061  1.0000
  C   C272      1.0  0.22773  0.26671  0.56928  1.0000
  H   H272      1.0  0.22226  0.27187  0.53723  1.0000
  H   H273      1.0  0.23411  0.29584  0.57182  1.0000
  H   H274      1.0  0.22333  0.29820  0.51463  1.0000
  H   H275      1.0  0.23590  0.32235  0.54922  1.0000
  H   H276      1.0  0.23026  0.32365  0.52052  1.0000
  H   H277      1.0  0.22214  0.25724  0.56609  1.0000
  H   H278      1.0  0.24115  0.26070  0.57081  1.0000
  H   H279      1.0  0.22007  0.26965  0.58191  1.0000
  S   S99       1.0  0.24177  0.27289  0.60534  1.0000
  H   H280      1.0  0.27403  0.24582  0.61179  1.0000
  C   C273      1.0  0.34392  0.35935  0.32411  1.0000
  H   H281      1.0  0.35864  0.36129  0.60229  1.0000
  Fe  Fe48      1.0  0.26684  0.41558  0.32210  1.0000
  H   H282      1.0  0.34683  0.36516  0.33319  1.0000
  C   C274      1.0  0.40483  0.26206  0.39025  1.0000
  C   C275      1.0  0.36795  0.36304  0.63041  1.0000
  C   C276      1.0  0.21401  0.27400  0.63233  1.0000
  S   S100      1.0  0.29309  0.47889  0.35961  1.0000
  H   H283      1.0  0.30034  0.25225  0.61596  1.0000
  Fe  Fe49      1.0  0.39927  0.27376  0.32513  1.0000
  C   C277      1.0  0.43875  0.27850  0.32805  1.0000
  C   C278      1.0  0.25976  0.41566  0.37840  1.0000
  H   H284      1.0  0.44520  0.26434  0.36678  1.0000
  C   C279      1.0  0.22547  0.32194  0.63812  1.0000
  C   C280      1.0  0.31130  0.28603  0.50168  1.0000
  H   H285      1.0  0.32903  0.31518  0.48421  1.0000
  H   H286      1.0  0.31070  0.30585  0.46046  1.0000
  C   C281      1.0  0.37349  0.36815  0.64272  1.0000
  C   C282      1.0  0.34763  0.36626  0.61211  1.0000
  H   H287      1.0  0.35060  0.46960  0.34092  1.0000
  H   H288      1.0  0.31501  0.31869  0.63348  1.0000
  H   H289      1.0  0.22477  0.33057  0.62532  1.0000
  H   H290      1.0  0.22824  0.46471  0.35054  1.0000
  C   C283      1.0  0.29033  0.31956  0.37350  1.0000
  C   C284      1.0  0.31667  0.33776  0.36112  1.0000
  C   C285      1.0  0.25810  0.44455  0.38289  1.0000
  H   H291      1.0  0.20688  0.29542  0.35352  1.0000
  C   C286      1.0  0.25345  0.26303  0.38568  1.0000
  C   C287      1.0  0.21973  0.31569  0.35244  1.0000
  C   C288      1.0  0.21240  0.30136  0.36065  1.0000
  C   C289      1.0  0.32323  0.47860  0.32372  1.0000
  C   C290      1.0  0.30541  0.26737  0.48640  1.0000
  C   C291      1.0  0.27438  0.48016  0.33552  1.0000
  S   S101      1.0  0.34948  0.28722  0.33877  1.0000
  H   H292      1.0  0.29167  0.25554  0.33697  1.0000
  C   C292      1.0  0.22699  0.32300  0.36173  1.0000
  S   S102      1.0  0.38628  0.28173  0.35021  1.0000
  H   H293      1.0  0.23721  0.48359  0.36456  1.0000
  C   C293      1.0  0.34925  0.39200  0.64318  1.0000
  C   C294      1.0  0.24071  0.27597  0.63825  1.0000
  C   C295      1.0  0.45538  0.29712  0.34099  1.0000
  H   H294      1.0  0.21974  0.32113  0.33892  1.0000
  H   H295      1.0  0.41548  0.29552  0.33738  1.0000
  C   C296      1.0  0.30994  0.29592  0.47211  1.0000
  C   C297      1.0  0.29641  0.32407  0.35575  1.0000
  H   H296      1.0  0.38869  0.24711  0.38641  1.0000
  C   C298      1.0  0.35106  0.34210  0.32343  1.0000
  H   H297      1.0  0.30507  0.27805  0.45960  1.0000
  H   H298      1.0  0.26717  0.43907  0.39134  1.0000
  H   H299      1.0  0.46611  0.32819  0.64400  1.0000
  H   H300      1.0  0.26355  0.26412  0.52807  1.0000
  C   C299      1.0  0.43744  0.30103  0.34287  1.0000
  S   S103      1.0  0.35763  0.24872  0.37626  1.0000
  H   H301      1.0  0.31347  0.26988  0.34007  1.0000
  H   H302      1.0  0.31376  0.26209  0.42660  1.0000
  C   C300      1.0  0.42075  0.26700  0.38471  1.0000
  S   S104      1.0  0.36342  0.32954  0.33836  1.0000
  C   C301      1.0  0.31199  0.25813  0.36701  1.0000
  Fe  Fe50      1.0  0.36764  0.26560  0.35156  1.0000
  H   H303      1.0  0.33858  0.37661  0.60533  1.0000
  C   C302      1.0  0.31499  0.31542  0.48767  1.0000
  H   H304      1.0  0.28473  0.43051  0.34077  1.0000
  H   H305      1.0  0.24974  0.40841  0.37922  1.0000
  C   C303      1.0  0.24491  0.26385  0.37249  1.0000
  H   H306      1.0  0.27882  0.31690  0.63635  1.0000
  C   C304      1.0  0.46504  0.28358  0.33289  1.0000
  H   H307      1.0  0.26438  0.41094  0.39068  1.0000
  C   C305      1.0  0.23702  0.24245  0.40475  1.0000
  H   H308      1.0  0.25428  0.27581  0.63425  1.0000
  Fe  Fe51      1.0  0.36972  0.30243  0.33468  1.0000
  C   C306      1.0  0.30671  0.28019  0.47152  1.0000
  H   H309      1.0  0.26128  0.34287  0.32077  1.0000
  Fe  Fe52      1.0  0.23273  0.25703  0.33178  1.0000
  C   C307      1.0  0.26735  0.47232  0.32631  1.0000
  S   S105      1.0  0.22018  0.25542  0.36006  1.0000
  C   C308      1.0  0.23151  0.27449  0.62670  1.0000
  S   S106      1.0  0.27796  0.36556  0.33114  1.0000
  H   H310      1.0  0.42375  0.27591  0.39072  1.0000
  H   H311      1.0  0.32153  0.26435  0.36855  1.0000
  C   C309      1.0  0.30743  0.26128  0.35108  1.0000
  H   H312      1.0  0.31234  0.35284  0.39000  1.0000
  C   C310      1.0  0.29526  0.25297  0.34933  1.0000
  C   C311      1.0  0.34418  0.38663  0.63072  1.0000
  H   H313      1.0  0.31439  0.33698  0.33573  1.0000
  C   C312      1.0  0.27668  0.36689  0.63713  1.0000
  H   H314      1.0  0.35701  0.28758  0.63970  1.0000
  Fe  Fe53      1.0  0.37316  0.31206  0.64901  1.0000
  C   C313      1.0  0.45671  0.27428  0.32645  1.0000
  H   H315      1.0  0.26826  0.24015  0.35125  1.0000
  C   C314      1.0  0.25232  0.46241  0.37935  1.0000
  C   C315      1.0  0.29102  0.24764  0.62715  1.0000
  C   C316      1.0  0.43282  0.26049  0.37129  1.0000
  H   H316      1.0  0.33020  0.47657  0.35479  1.0000
  H   H317      1.0  0.40019  0.32638  0.32590  1.0000
  H   H318      1.0  0.21671  0.31290  0.64036  1.0000
  H   H319      1.0  0.22721  0.35467  0.63502  1.0000
  N   N26       1.0  0.41283  0.24499  0.36851  1.0000
  C   C317      1.0  0.42862  0.24941  0.36329  1.0000
  C   C318      1.0  0.27623  0.24391  0.62469  1.0000
  C   C319      1.0  0.26400  0.23830  0.63900  1.0000
  H   H320      1.0  0.46423  0.26394  0.32003  1.0000
  N   N27       1.0  0.29362  0.24568  0.64341  1.0000
  H   H321      1.0  0.29648  0.29847  0.63651  1.0000
  C   C320      1.0  0.40113  0.25081  0.38208  1.0000
  H   H322      1.0  0.42986  0.34348  0.31805  1.0000
  H   H323      1.0  0.32041  0.24620  0.63579  1.0000
  H   H324      1.0  0.23889  0.31453  0.63750  1.0000
  C   C321      1.0  0.28633  0.30650  0.64471  1.0000
  C   C322      1.0  0.29250  0.23842  0.37860  1.0000
  H   H325      1.0  0.30758  0.24441  0.39345  1.0000
  C   C323      1.0  0.22260  0.34844  0.64821  1.0000
  N   N28       1.0  0.28810  0.24159  0.36293  1.0000
  H   H326      1.0  0.43622  0.32437  0.64728  1.0000
  H   H327      1.0  0.30675  0.26447  0.64414  1.0000
  H   H328      1.0  0.27129  0.37395  0.64738  1.0000
  H   H329      1.0  0.32788  0.33273  0.64879  1.0000
  H   H330      1.0  0.38480  0.36066  0.64757  1.0000
  C   C324      1.0  0.36404  0.38271  0.64915  1.0000
  H   H331      1.0  0.34157  0.40311  0.64837  1.0000
  S   S107      1.0  0.21485  0.27175  0.72763  1.0000
  S   S108      1.0  0.27269  0.45042  0.66471  1.0000
  C   C325      1.0  0.23253  0.27678  0.65537  1.0000
  H   H332      1.0  0.32794  0.33705  0.72441  1.0000
  H   H333      1.0  0.41230  0.34840  0.70114  1.0000
  S   S109      1.0  0.38698  0.30187  0.69286  1.0000
  H   H334      1.0  0.33047  0.32939  0.70490  1.0000
  N   N29       1.0  0.30895  0.32357  0.72442  1.0000
  H   H335      1.0  0.45288  0.33806  0.69520  1.0000
  C   C326      1.0  0.28916  0.48624  0.67906  1.0000
  Fe  Fe54      1.0  0.27680  0.42137  0.67043  1.0000
  S   S110      1.0  0.30279  0.40397  0.66970  1.0000
  C   C327      1.0  0.42793  0.32984  0.67288  1.0000
  Fe  Fe55      1.0  0.25826  0.39110  0.68293  1.0000
  S   S111      1.0  0.28257  0.37144  0.68428  1.0000
  S   S112      1.0  0.23301  0.38262  0.69027  1.0000
  Fe  Fe56      1.0  0.29019  0.39004  0.69522  1.0000
  S   S113      1.0  0.30398  0.38295  0.71699  1.0000
  S   S114      1.0  0.43092  0.28297  0.66444  1.0000
  S   S115      1.0  0.26473  0.40820  0.69665  1.0000
  C   C328      1.0  0.48352  0.25628  0.71594  1.0000
  S   S116      1.0  0.22975  0.30923  0.73767  1.0000
  C   C329      1.0  0.23366  0.36223  0.70380  1.0000
  C   C330      1.0  0.24478  0.34761  0.69849  1.0000
  C   C331      1.0  0.24350  0.33115  0.70864  1.0000
  C   C332      1.0  0.23142  0.32943  0.72429  1.0000
  C   C333      1.0  0.22078  0.34410  0.72974  1.0000
  C   C334      1.0  0.22165  0.36041  0.71938  1.0000
  H   H336      1.0  0.25385  0.34898  0.68626  1.0000
  H   H337      1.0  0.25189  0.31984  0.70451  1.0000
  H   H338      1.0  0.21152  0.34283  0.74186  1.0000
  H   H339      1.0  0.21293  0.37166  0.72342  1.0000
  C   C335      1.0  0.48844  0.25178  0.69976  1.0000
  C   C336      1.0  0.30799  0.45888  0.68676  1.0000
  C   C337      1.0  0.29897  0.45076  0.67985  1.0000
  C   C338      1.0  0.28496  0.46034  0.67256  1.0000
  H   H340      1.0  0.26944  0.48561  0.66633  1.0000
  H   H341      1.0  0.41093  0.32614  0.70499  1.0000
  H   H342      1.0  0.31869  0.45134  0.69253  1.0000
  H   H343      1.0  0.30274  0.43707  0.68032  1.0000
  H   H344      1.0  0.20685  0.32626  0.69525  1.0000
  C   C339      1.0  0.29287  0.32412  0.67983  1.0000
  C   C340      1.0  0.35920  0.35986  0.69428  1.0000
  C   C341      1.0  0.34586  0.36062  0.68629  1.0000
  C   C342      1.0  0.32895  0.36787  0.69324  1.0000
  C   C343      1.0  0.32525  0.37411  0.70840  1.0000
  C   C344      1.0  0.33853  0.37324  0.71655  1.0000
  C   C345      1.0  0.35558  0.36632  0.70934  1.0000
  H   H345      1.0  0.34859  0.35600  0.67448  1.0000
  H   H346      1.0  0.31877  0.36850  0.68686  1.0000
  H   H347      1.0  0.33568  0.37808  0.72829  1.0000
  H   H348      1.0  0.36588  0.36570  0.71557  1.0000
  C   C346      1.0  0.27527  0.31851  0.73370  1.0000
  C   C347      1.0  0.44232  0.29255  0.70596  1.0000
  C   C348      1.0  0.43351  0.28888  0.69521  1.0000
  C   C349      1.0  0.44197  0.28646  0.67860  1.0000
  H   H349      1.0  0.27418  0.31146  0.67700  1.0000
  C   C350      1.0  0.21497  0.27660  0.66089  1.0000
  H   H350      1.0  0.43564  0.29442  0.71879  1.0000
  H   H351      1.0  0.42023  0.28771  0.69988  1.0000
  H   H352      1.0  0.31548  0.26884  0.72483  1.0000
  S   S117      1.0  0.20446  0.27835  0.68205  1.0000
  H   H353      1.0  0.47436  0.33519  0.66812  1.0000
  H   H354      1.0  0.48807  0.27613  0.73898  1.0000
  C   C351      1.0  0.31621  0.32790  0.65524  1.0000
  C   C352      1.0  0.31655  0.27877  0.67584  1.0000
  S   S118      1.0  0.25611  0.26472  0.72806  1.0000
  H   H355      1.0  0.46991  0.26010  0.72134  1.0000
  H   H356      1.0  0.19211  0.27514  0.65360  1.0000
  N   N30       1.0  0.29405  0.31408  0.65443  1.0000
  H   H357      1.0  0.27932  0.47663  0.72292  1.0000
  H   H358      1.0  0.27766  0.29804  0.65340  1.0000
  S   S119      1.0  0.39579  0.32088  0.65190  1.0000
  H   H359      1.0  0.26793  0.34609  0.72637  1.0000
  C   C353      1.0  0.26720  0.44327  0.71526  1.0000
  S   S120      1.0  0.24394  0.24972  0.70058  1.0000
  Fe  Fe57      1.0  0.23679  0.24904  0.72914  1.0000
  H   H360      1.0  0.30285  0.46736  0.73648  1.0000
  C   C354      1.0  0.27854  0.33509  0.72751  1.0000
  H   H361      1.0  0.31713  0.28115  0.66213  1.0000
  C   C355      1.0  0.21113  0.33265  0.68202  1.0000
  Fe  Fe58      1.0  0.22328  0.27353  0.69905  1.0000
  C   C356      1.0  0.45957  0.29407  0.70010  1.0000
  Fe  Fe59      1.0  0.36517  0.29474  0.68637  1.0000
  H   H362      1.0  0.33599  0.31467  0.72388  1.0000
  Fe  Fe60      1.0  0.26107  0.26760  0.69935  1.0000
  C   C357      1.0  0.29559  0.33739  0.72284  1.0000
  C   C358      1.0  0.30267  0.27254  0.68759  1.0000
  C   C359      1.0  0.31563  0.27200  0.71117  1.0000
  C   C360      1.0  0.45945  0.28727  0.67300  1.0000
  C   C361      1.0  0.21280  0.34977  0.67833  1.0000
  S   S121      1.0  0.24089  0.29151  0.69532  1.0000
  S   S122      1.0  0.34544  0.28283  0.70730  1.0000
  C   C362      1.0  0.44903  0.33555  0.68453  1.0000
  S   S123      1.0  0.28601  0.26904  0.67995  1.0000
  H   H363      1.0  0.29805  0.35031  0.71807  1.0000
  S   S124      1.0  0.46985  0.29960  0.71366  1.0000
  C   C363      1.0  0.41995  0.33504  0.70228  1.0000
  S   S125      1.0  0.26764  0.40606  0.65661  1.0000
  C   C364      1.0  0.46125  0.33392  0.66925  1.0000
  H   H364      1.0  0.23981  0.27761  0.66428  1.0000
  Fe  Fe61      1.0  0.37910  0.32746  0.67643  1.0000
  H   H365      1.0  0.25711  0.47056  0.71124  1.0000
  C   C365      1.0  0.28017  0.43000  0.72096  1.0000
  H   H366      1.0  0.20779  0.24771  0.77908  1.0000
  C   C366      1.0  0.29266  0.43379  0.72736  1.0000
  H   H367      1.0  0.31348  0.33659  0.67857  1.0000
  H   H368      1.0  0.31184  0.24423  0.65856  1.0000
  H   H369      1.0  0.28342  0.23918  0.67044  1.0000
  H   H370      1.0  0.48149  0.29240  0.67898  1.0000
  C   C367      1.0  0.30583  0.30726  0.73026  1.0000
  H   H371      1.0  0.22048  0.37090  0.65850  1.0000
  H   H372      1.0  0.30301  0.42344  0.73120  1.0000
  C   C368      1.0  0.30296  0.47659  0.68664  1.0000
  H   H373      1.0  0.25783  0.44067  0.70956  1.0000
  H   H374      1.0  0.28087  0.41689  0.72003  1.0000
  Fe  Fe62      1.0  0.29251  0.38719  0.65867  1.0000
  H   H375      1.0  0.42625  0.33175  0.71350  1.0000
  H   H376      1.0  0.31641  0.29629  0.73141  1.0000
  C   C369      1.0  0.30808  0.33008  0.67193  1.0000
  H   H377      1.0  0.17748  0.24417  0.79073  1.0000
  C   C370      1.0  0.26674  0.46009  0.71627  1.0000
  C   C371      1.0  0.32927  0.27865  0.69947  1.0000
  C   C372      1.0  0.32668  0.32631  0.71917  1.0000
  C   C373      1.0  0.28026  0.47814  0.67197  1.0000
  H   H378      1.0  0.20964  0.35687  0.68861  1.0000
  C   C374      1.0  0.28596  0.31613  0.67081  1.0000
  C   C375      1.0  0.28897  0.30447  0.73493  1.0000
  N   N31       1.0  0.43268  0.33328  0.68625  1.0000
  H   H379      1.0  0.28654  0.29150  0.73951  1.0000
  S   S126      1.0  0.35577  0.32119  0.67223  1.0000
  H   H380      1.0  0.26214  0.31650  0.73758  1.0000
  S   S127      1.0  0.38028  0.35049  0.68561  1.0000
  H   H381      1.0  0.29187  0.26390  0.71436  1.0000
  Fe  Fe63      1.0  0.23469  0.28748  0.72403  1.0000
  C   C376      1.0  0.46818  0.29129  0.68363  1.0000
  H   H382      1.0  0.28636  0.32579  0.69276  1.0000
  C   C377      1.0  0.30223  0.26918  0.70525  1.0000
  C   C378      1.0  0.32971  0.28210  0.68178  1.0000
  H   H383      1.0  0.34027  0.28711  0.67266  1.0000
  S   S128      1.0  0.38126  0.28486  0.66282  1.0000
  N   N32       1.0  0.29210  0.45032  0.72833  1.0000
  N   N33       1.0  0.22068  0.33172  0.65190  1.0000
  H   H384      1.0  0.46610  0.28531  0.66019  1.0000
  C   C379      1.0  0.49019  0.26188  0.74120  1.0000
  Fe  Fe64      1.0  0.40244  0.29457  0.66804  1.0000
  C   C380      1.0  0.21519  0.32376  0.66857  1.0000
  C   C381      1.0  0.30591  0.45401  0.73423  1.0000
  H   H385      1.0  0.41500  0.32799  0.67432  1.0000
  H   H386      1.0  0.47797  0.25788  0.74863  1.0000
  C   C382      1.0  0.21874  0.35770  0.66136  1.0000
  H   H387      1.0  0.21393  0.31045  0.67154  1.0000
  H   H388      1.0  0.31796  0.45279  0.72418  1.0000
  C   C383      1.0  0.43984  0.32797  0.65749  1.0000
  H   H389      1.0  0.20044  0.24039  0.74317  1.0000
  H   H390      1.0  0.47874  0.25202  0.69283  1.0000
  C   C384      1.0  0.28159  0.24037  0.65753  1.0000
  H   H391      1.0  0.30816  0.44501  0.74645  1.0000
  C   C385      1.0  0.45661  0.33001  0.65570  1.0000
  C   C386      1.0  0.27934  0.46341  0.72292  1.0000
  H   H392      1.0  0.36794  0.38647  0.65910  1.0000
  S   S129      1.0  0.31293  0.48574  0.69777  1.0000
  C   C387      1.0  0.32615  0.51119  0.30454  1.0000
  H   H393      1.0  0.34340  0.65711  0.25481  1.0000
  C   C388      1.0  0.21187  0.71456  0.27307  1.0000
  S   S130      1.0  0.24705  0.69696  0.30194  1.0000
  C   C389      1.0  0.19497  0.73115  0.25169  1.0000
  C   C390      1.0  0.30166  0.61754  0.28641  1.0000
  H   H394      1.0  0.21211  0.66506  0.28533  1.0000
  C   C391      1.0  0.21296  0.69211  0.23925  1.0000
  H   H395      1.0  0.22425  0.70912  0.27650  1.0000
  C   C392      1.0  0.31623  0.65961  0.26545  1.0000
  H   H396      1.0  0.18519  0.67747  0.27478  1.0000
  H   H397      1.0  0.33845  0.68306  0.29444  1.0000
  H   H398      1.0  0.31795  0.69091  0.27651  1.0000
  C   C393      1.0  0.30337  0.65856  0.28044  1.0000
  Fe  Fe65      1.0  0.22371  0.68506  0.31213  1.0000
  C   C394      1.0  0.32543  0.64952  0.29762  1.0000
  S   S131      1.0  0.19794  0.69606  0.30442  1.0000
  H   H399      1.0  0.32777  0.61893  0.27309  1.0000
  C   C395      1.0  0.30799  0.65342  0.29657  1.0000
  H   H400      1.0  0.17058  0.69951  0.25450  1.0000
  C   C396      1.0  0.21090  0.72465  0.25659  1.0000
  H   H401      1.0  0.31277  0.66347  0.25295  1.0000
  C   C397      1.0  0.31654  0.50181  0.30012  1.0000
  H   H402      1.0  0.16923  0.71520  0.28911  1.0000
  C   C398      1.0  0.22822  0.67526  0.26151  1.0000
  S   S132      1.0  0.23815  0.65829  0.30947  1.0000
  C   C399      1.0  0.19689  0.71086  0.28474  1.0000
  H   H403      1.0  0.29822  0.65212  0.30820  1.0000
  S   S133      1.0  0.28180  0.66356  0.27840  1.0000
  H   H404      1.0  0.21318  0.70018  0.22648  1.0000
  S   S134      1.0  0.36013  0.64731  0.28303  1.0000
  C   C400      1.0  0.33823  0.65100  0.28255  1.0000
  C   C401      1.0  0.33356  0.65600  0.26651  1.0000
  H   H405      1.0  0.16754  0.73325  0.25995  1.0000
  Fe  Fe66      1.0  0.36908  0.63762  0.30810  1.0000
  H   H406      1.0  0.35174  0.57253  0.30407  1.0000
  H   H407      1.0  0.24008  0.67018  0.26624  1.0000
  H   H408      1.0  0.29620  0.62382  0.27512  1.0000
  C   C402      1.0  0.19732  0.67943  0.26616  1.0000
  H   H409      1.0  0.18232  0.70889  0.23427  1.0000
  H   H410      1.0  0.28529  0.69935  0.31570  1.0000
  C   C403      1.0  0.18087  0.71797  0.28008  1.0000
  H   H411      1.0  0.27716  0.61505  0.30321  1.0000
  C   C404      1.0  0.29095  0.61269  0.30235  1.0000
  C   C405      1.0  0.31505  0.60264  0.31575  1.0000
  S   S135      1.0  0.38306  0.65353  0.31600  1.0000
  C   C406      1.0  0.18155  0.69655  0.24374  1.0000
  C   C407      1.0  0.32800  0.68476  0.30550  1.0000
  C   C408      1.0  0.22846  0.68517  0.24489  1.0000
  H   H412      1.0  0.24052  0.68778  0.23658  1.0000
  C   C409      1.0  0.30773  0.69730  0.28605  1.0000
  C   C410      1.0  0.21256  0.67229  0.27220  1.0000
  N   N34       1.0  0.19764  0.68936  0.24994  1.0000
  Fe  Fe67      1.0  0.26165  0.66989  0.30150  1.0000
  H   H413      1.0  0.17881  0.68731  0.23751  1.0000
  S   S136      1.0  0.38880  0.61325  0.31277  1.0000
  H   H414      1.0  0.32891  0.64553  0.31006  1.0000
  C   C411      1.0  0.31935  0.61486  0.28528  1.0000
  C   C412      1.0  0.32610  0.60749  0.30004  1.0000
  H   H415      1.0  0.29547  0.69398  0.28583  1.0000
  C   C413      1.0  0.17989  0.72821  0.26361  1.0000
  H   H416      1.0  0.22261  0.72692  0.24742  1.0000
  H   H417      1.0  0.46439  0.60259  0.31368  1.0000
  H   H418      1.0  0.32719  0.52410  0.29733  1.0000
  H   H419      1.0  0.30661  0.71144  0.28194  1.0000
  N   N35       1.0  0.31145  0.69152  0.30339  1.0000
  H   H420      1.0  0.46270  0.63493  0.31441  1.0000
  N   N36       1.0  0.29773  0.60519  0.31670  1.0000
  H   H421      1.0  0.43289  0.67474  0.31578  1.0000
  H   H422      1.0  0.33980  0.60575  0.29934  1.0000
  H   H423      1.0  0.31003  0.50736  0.28943  1.0000
  H   H424      1.0  0.41390  0.69026  0.31064  1.0000
  Fe  Fe68      1.0  0.31557  0.65108  0.55033  1.0000
  S   S137      1.0  0.29931  0.66191  0.57326  1.0000
  S   S138      1.0  0.31085  0.66028  0.52337  1.0000
  Fe  Fe69      1.0  0.34299  0.62918  0.57005  1.0000
  S   S139      1.0  0.32934  0.63808  0.59452  1.0000
  S   S140      1.0  0.36855  0.61098  0.56653  1.0000
  Fe  Fe70      1.0  0.30573  0.63485  0.58786  1.0000
  S   S141      1.0  0.28748  0.62226  0.60978  1.0000
  Fe  Fe71      1.0  0.32429  0.66406  0.57789  1.0000
  S   S142      1.0  0.32864  0.68605  0.58637  1.0000
  S   S143      1.0  0.31978  0.62364  0.56455  1.0000
  S   S144      1.0  0.34013  0.65569  0.55374  1.0000
  Fe  Fe72      1.0  0.26916  0.63036  0.46712  1.0000
  S   S145      1.0  0.28552  0.64823  0.44901  1.0000
  S   S146      1.0  0.26540  0.62571  0.49615  1.0000
  Fe  Fe73      1.0  0.26273  0.61817  0.43750  1.0000
  S   S147      1.0  0.27889  0.63483  0.41725  1.0000
  S   S148      1.0  0.24881  0.60368  0.42757  1.0000
  Fe  Fe74      1.0  0.29701  0.62641  0.43536  1.0000
  S   S149      1.0  0.32557  0.61867  0.42769  1.0000
  Fe  Fe75      1.0  0.26569  0.65495  0.43281  1.0000
  S   S150      1.0  0.25613  0.68257  0.42136  1.0000
  S   S151      1.0  0.28210  0.60784  0.45438  1.0000
  S   S152      1.0  0.24807  0.63898  0.45208  1.0000
  Fe  Fe76      1.0  0.26953  0.54394  0.34858  1.0000
  H   H425      1.0  0.25812  0.72032  0.61805  1.0000
  C   C414      1.0  0.29150  0.55619  0.62581  1.0000
  Fe  Fe77      1.0  0.29103  0.53416  0.37571  1.0000
  S   S153      1.0  0.31163  0.51651  0.36089  1.0000
  S   S154      1.0  0.29638  0.53871  0.39953  1.0000
  Fe  Fe78      1.0  0.30815  0.53743  0.33778  1.0000
  H   H426      1.0  0.25076  0.56770  0.64614  1.0000
  N   N37       1.0  0.25723  0.69558  0.61466  1.0000
  S   S155      1.0  0.28937  0.55577  0.35289  1.0000
  S   S156      1.0  0.26929  0.52374  0.37300  1.0000
  Fe  Fe79      1.0  0.40814  0.60644  0.64276  1.0000
  H   H427      1.0  0.27794  0.61231  0.33755  1.0000
  S   S157      1.0  0.25641  0.70861  0.34181  1.0000
  H   H428      1.0  0.46390  0.60526  0.38328  1.0000
  C   C415      1.0  0.44790  0.59715  0.35250  1.0000
  C   C416      1.0  0.43773  0.63537  0.33131  1.0000
  Fe  Fe80      1.0  0.24175  0.65536  0.33633  1.0000
  S   S158      1.0  0.24174  0.63263  0.35830  1.0000
  H   H429      1.0  0.27128  0.49399  0.33424  1.0000
  C   C417      1.0  0.39120  0.67965  0.36353  1.0000
  S   S159      1.0  0.22513  0.68092  0.33996  1.0000
  C   C418      1.0  0.24388  0.67505  0.63730  1.0000
  C   C419      1.0  0.28610  0.60051  0.33322  1.0000
  H   H430      1.0  0.26741  0.65665  0.60362  1.0000
  H   H431      1.0  0.41175  0.63267  0.57524  1.0000
  H   H432      1.0  0.31247  0.61656  0.46343  1.0000
  H   H433      1.0  0.33062  0.65720  0.63319  1.0000
  H   H434      1.0  0.39797  0.68518  0.38495  1.0000
  S   S160      1.0  0.45895  0.65744  0.36550  1.0000
  H   H435      1.0  0.25432  0.72590  0.36849  1.0000
  Fe  Fe81      1.0  0.37218  0.60911  0.33929  1.0000
  S   S161      1.0  0.35153  0.63231  0.33386  1.0000
  S   S162      1.0  0.36480  0.58431  0.35465  1.0000
  C   C420      1.0  0.44805  0.60108  0.36808  1.0000
  H   H436      1.0  0.47273  0.57982  0.32057  1.0000
  C   C421      1.0  0.31458  0.60706  0.50558  1.0000
  Fe  Fe82      1.0  0.36721  0.64607  0.34225  1.0000
  S   S163      1.0  0.35411  0.66588  0.35828  1.0000
  H   H437      1.0  0.27766  0.59662  0.59238  1.0000
  H   H438      1.0  0.22503  0.63641  0.42802  1.0000
  S   S164      1.0  0.38626  0.62235  0.35033  1.0000
  H   H439      1.0  0.30185  0.59784  0.49084  1.0000
  H   H440      1.0  0.33872  0.57858  0.38706  1.0000
  C   C422      1.0  0.32984  0.64375  0.63797  1.0000
  N   N38       1.0  0.46286  0.59412  0.34056  1.0000
  H   H441      1.0  0.29322  0.59280  0.34338  1.0000
  C   C423      1.0  0.45129  0.64788  0.35280  1.0000
  C   C424      1.0  0.46150  0.64395  0.33724  1.0000
  C   C425      1.0  0.41824  0.68694  0.36219  1.0000
  H   H442      1.0  0.32097  0.67739  0.34925  1.0000
  H   H443      1.0  0.26874  0.61695  0.39309  1.0000
  N   N39       1.0  0.32556  0.62873  0.47469  1.0000
  C   C426      1.0  0.39682  0.67791  0.34632  1.0000
  H   H444      1.0  0.47444  0.64621  0.33314  1.0000
  H   H445      1.0  0.32131  0.64486  0.45073  1.0000
  C   C427      1.0  0.31320  0.58080  0.38320  1.0000
  N   N40       1.0  0.22002  0.64439  0.40262  1.0000
  N   N41       1.0  0.29503  0.60890  0.38210  1.0000
  H   H446      1.0  0.21566  0.68522  0.37938  1.0000
  N   N42       1.0  0.41286  0.68038  0.33737  1.0000
  H   H447      1.0  0.38173  0.61281  0.62136  1.0000
  C   C428      1.0  0.31833  0.68138  0.33636  1.0000
  C   C429      1.0  0.22091  0.62682  0.40093  1.0000
  C   C430      1.0  0.22226  0.66375  0.41914  1.0000
  H   H448      1.0  0.36229  0.61918  0.60061  1.0000
  C   C431      1.0  0.39200  0.56244  0.64423  1.0000
  H   H449      1.0  0.39739  0.63257  0.55304  1.0000
  Fe  Fe83      1.0  0.40114  0.62869  0.32335  1.0000
  C   C432      1.0  0.45476  0.63770  0.32655  1.0000
  C   C433      1.0  0.33820  0.55356  0.34576  1.0000
  C   C434      1.0  0.34639  0.56138  0.35375  1.0000
  C   C435      1.0  0.35577  0.57392  0.34400  1.0000
  H   H450      1.0  0.25840  0.58957  0.62068  1.0000
  H   H451      1.0  0.27760  0.59256  0.33183  1.0000
  H   H452      1.0  0.33067  0.54420  0.35352  1.0000
  H   H453      1.0  0.34538  0.55774  0.36755  1.0000
  H   H454      1.0  0.21339  0.62665  0.39152  1.0000
  S   S165      1.0  0.24706  0.56184  0.33873  1.0000
  C   C436      1.0  0.24421  0.58155  0.34466  1.0000
  C   C437      1.0  0.24849  0.58198  0.35995  1.0000
  C   C438      1.0  0.24726  0.59776  0.36422  1.0000
  C   C439      1.0  0.24200  0.61316  0.35310  1.0000
  C   C440      1.0  0.23763  0.61279  0.33784  1.0000
  H   H455      1.0  0.29708  0.72393  0.62609  1.0000
  H   H456      1.0  0.25260  0.57009  0.36854  1.0000
  H   H457      1.0  0.25061  0.59799  0.37605  1.0000
  H   H458      1.0  0.40890  0.63810  0.60410  1.0000
  H   H459      1.0  0.29577  0.54518  0.63538  1.0000
  C   C441      1.0  0.26431  0.68327  0.60491  1.0000
  C   C442      1.0  0.26180  0.58524  0.42033  1.0000
  C   C443      1.0  0.25608  0.57765  0.40994  1.0000
  C   C444      1.0  0.26658  0.56328  0.40353  1.0000
  C   C445      1.0  0.28264  0.55621  0.40790  1.0000
  C   C446      1.0  0.28819  0.56358  0.41860  1.0000
  C   C447      1.0  0.27793  0.57825  0.42455  1.0000
  H   H460      1.0  0.24353  0.58290  0.40679  1.0000
  H   H461      1.0  0.26217  0.55750  0.39546  1.0000
  H   H462      1.0  0.30060  0.55813  0.42202  1.0000
  H   H463      1.0  0.28243  0.58398  0.43258  1.0000
  C   C448      1.0  0.33372  0.63309  0.40957  1.0000
  C   C449      1.0  0.32302  0.64813  0.40276  1.0000
  C   C450      1.0  0.32950  0.65883  0.38739  1.0000
  C   C451      1.0  0.34660  0.65433  0.37881  1.0000
  C   C452      1.0  0.35739  0.63966  0.38603  1.0000
  C   C453      1.0  0.35098  0.62907  0.40142  1.0000
  H   H464      1.0  0.30972  0.65144  0.40920  1.0000
  H   H465      1.0  0.32112  0.67026  0.38193  1.0000
  H   H466      1.0  0.37071  0.63640  0.37974  1.0000
  H   H467      1.0  0.35929  0.61749  0.40673  1.0000
  C   C454      1.0  0.25761  0.68891  0.39895  1.0000
  C   C455      1.0  0.25936  0.67712  0.38859  1.0000
  C   C456      1.0  0.25875  0.68304  0.37101  1.0000
  C   C457      1.0  0.25692  0.70067  0.36374  1.0000
  C   C458      1.0  0.25570  0.71229  0.37403  1.0000
  C   C459      1.0  0.25578  0.70646  0.39160  1.0000
  H   H468      1.0  0.26047  0.66358  0.39424  1.0000
  H   H469      1.0  0.25963  0.67398  0.36314  1.0000
  H   H470      1.0  0.23331  0.62463  0.32935  1.0000
  C   C460      1.0  0.28886  0.69970  0.63372  1.0000
  H   H471      1.0  0.24925  0.64928  0.63282  1.0000
  C   C461      1.0  0.31018  0.60634  0.49050  1.0000
  H   H472      1.0  0.30969  0.59911  0.51773  1.0000
  H   H473      1.0  0.33547  0.65110  0.46017  1.0000
  C   C462      1.0  0.31596  0.61721  0.47506  1.0000
  H   H474      1.0  0.32253  0.60526  0.59901  1.0000
  C   C463      1.0  0.38115  0.60601  0.58216  1.0000
  H   H475      1.0  0.22457  0.66593  0.43078  1.0000
  C   C464      1.0  0.40874  0.59288  0.59012  1.0000
  C   C465      1.0  0.39788  0.59644  0.57850  1.0000
  H   H476      1.0  0.30500  0.66675  0.61211  1.0000
  H   H477      1.0  0.42172  0.58557  0.58708  1.0000
  H   H478      1.0  0.40254  0.59185  0.56653  1.0000
  H   H479      1.0  0.37857  0.67738  0.37064  1.0000
  C   C466      1.0  0.29639  0.65188  0.51696  1.0000
  C   C467      1.0  0.29375  0.65785  0.50009  1.0000
  C   C468      1.0  0.28372  0.65031  0.49386  1.0000
  C   C469      1.0  0.27631  0.63668  0.50441  1.0000
  C   C470      1.0  0.27833  0.63116  0.52158  1.0000
  C   C471      1.0  0.28843  0.63870  0.52785  1.0000
  H   H480      1.0  0.29966  0.66821  0.49171  1.0000
  H   H481      1.0  0.28166  0.65516  0.48093  1.0000
  H   H482      1.0  0.27246  0.62074  0.52986  1.0000
  H   H483      1.0  0.29034  0.63410  0.54093  1.0000
  H   H484      1.0  0.33418  0.60932  0.38811  1.0000
  H   H485      1.0  0.25435  0.71562  0.39956  1.0000
  C   C472      1.0  0.42340  0.68519  0.34497  1.0000
  H   H486      1.0  0.43610  0.60395  0.37728  1.0000
  C   C473      1.0  0.30273  0.55996  0.60993  1.0000
  H   H487      1.0  0.28324  0.67457  0.63777  1.0000
  C   C474      1.0  0.40204  0.68410  0.37151  1.0000
  S   S166      1.0  0.28827  0.52711  0.33147  1.0000
  H   H488      1.0  0.37157  0.55435  0.63839  1.0000
  H   H489      1.0  0.49100  0.59899  0.36174  1.0000
  C   C475      1.0  0.29903  0.71130  0.62329  1.0000
  H   H490      1.0  0.30642  0.57782  0.58557  1.0000
  C   C476      1.0  0.29132  0.68343  0.62996  1.0000
  Fe  Fe84      1.0  0.24964  0.69056  0.32955  1.0000
  H   H491      1.0  0.25152  0.72018  0.59869  1.0000
  C   C477      1.0  0.26025  0.71312  0.60763  1.0000
  C   C478      1.0  0.32391  0.60439  0.38618  1.0000
  C   C479      1.0  0.31468  0.63919  0.64851  1.0000
  H   H492      1.0  0.27342  0.61810  0.37017  1.0000
  C   C480      1.0  0.33164  0.63980  0.45824  1.0000
  C   C481      1.0  0.27816  0.62006  0.38088  1.0000
  N   N43       1.0  0.38749  0.64865  0.57162  1.0000
  H   H493      1.0  0.35954  0.67121  0.60023  1.0000
  C   C482      1.0  0.37309  0.65946  0.57843  1.0000
  H   H494      1.0  0.23452  0.62071  0.39639  1.0000
  C   C483      1.0  0.37105  0.66271  0.59486  1.0000
  C   C484      1.0  0.21725  0.67462  0.39027  1.0000
  H   H495      1.0  0.42702  0.68990  0.36838  1.0000
  H   H496      1.0  0.36304  0.66566  0.57120  1.0000
  C   C485      1.0  0.42755  0.63903  0.34700  1.0000
  C   C486      1.0  0.32144  0.57539  0.63610  1.0000
  S   S167      1.0  0.41721  0.59459  0.61943  1.0000
  H   H497      1.0  0.39594  0.65547  0.54451  1.0000
  C   C487      1.0  0.25139  0.66231  0.62764  1.0000
  C   C488      1.0  0.33000  0.62948  0.48941  1.0000
  C   C489      1.0  0.32464  0.61863  0.50505  1.0000
  H   H498      1.0  0.33730  0.63883  0.48929  1.0000
  H   H499      1.0  0.32761  0.61978  0.51681  1.0000
  H   H500      1.0  0.34272  0.63227  0.45042  1.0000
  H   H501      1.0  0.21603  0.65563  0.37710  1.0000
  C   C490      1.0  0.30046  0.60429  0.62006  1.0000
  H   H502      1.0  0.30610  0.62856  0.38522  1.0000
  C   C491      1.0  0.37519  0.61183  0.59772  1.0000
  C   C492      1.0  0.40035  0.64130  0.58057  1.0000
  C   C493      1.0  0.38962  0.64562  0.55426  1.0000
  C   C494      1.0  0.35761  0.57806  0.32605  1.0000
  C   C495      1.0  0.32802  0.58449  0.61990  1.0000
  C   C496      1.0  0.22259  0.64713  0.41745  1.0000
  H   H503      1.0  0.21585  0.61883  0.41349  1.0000
  H   H504      1.0  0.23523  0.59663  0.32189  1.0000
  C   C497      1.0  0.39879  0.64434  0.59698  1.0000
  H   H505      1.0  0.31549  0.55199  0.60734  1.0000
  S   S168      1.0  0.27189  0.70685  0.64992  1.0000
  C   C498      1.0  0.30800  0.61519  0.38447  1.0000
  C   C499      1.0  0.21759  0.65784  0.38904  1.0000
  H   H506      1.0  0.42644  0.64801  0.36987  1.0000
  H   H507      1.0  0.31930  0.71587  0.60105  1.0000
  C   C500      1.0  0.21948  0.67756  0.40549  1.0000
  H   H508      1.0  0.21972  0.69043  0.40650  1.0000
  C   C501      1.0  0.43437  0.64515  0.35777  1.0000
  C   C502      1.0  0.29385  0.59521  0.63630  1.0000
  H   H509      1.0  0.34113  0.51161  0.32223  1.0000
  H   H510      1.0  0.41445  0.63717  0.35086  1.0000
  C   C503      1.0  0.27062  0.58089  0.61757  1.0000
  C   C504      1.0  0.30353  0.67907  0.61537  1.0000
  H   H511      1.0  0.35599  0.63438  0.62619  1.0000
  H   H512      1.0  0.27384  0.71286  0.60063  1.0000
  C   C505      1.0  0.31746  0.59877  0.61181  1.0000
  H   H513      1.0  0.37702  0.64602  0.55142  1.0000
  C   C506      1.0  0.29765  0.57444  0.59773  1.0000
  H   H514      1.0  0.34122  0.58042  0.61349  1.0000
  C   C507      1.0  0.40296  0.59887  0.60552  1.0000
  C   C508      1.0  0.38397  0.65503  0.60421  1.0000
  H   H515      1.0  0.27860  0.63391  0.37844  1.0000
  S   S169      1.0  0.40733  0.63417  0.64102  1.0000
  C   C509      1.0  0.38612  0.60819  0.60945  1.0000
  C   C510      1.0  0.31364  0.69080  0.60493  1.0000
  C   C511      1.0  0.23858  0.59696  0.33370  1.0000
  C   C512      1.0  0.29745  0.59193  0.38151  1.0000
  H   H516      1.0  0.28706  0.58682  0.38012  1.0000
  Fe  Fe85      1.0  0.28981  0.50770  0.35616  1.0000
  C   C513      1.0  0.31155  0.70677  0.60910  1.0000
  C   C514      1.0  0.32646  0.58709  0.38561  1.0000
  H   H517      1.0  0.31496  0.56727  0.38302  1.0000
  H   H518      1.0  0.39603  0.56926  0.63115  1.0000
  C   C515      1.0  0.34413  0.63089  0.63410  1.0000
  H   H519      1.0  0.27234  0.68640  0.59222  1.0000
  H   H520      1.0  0.29117  0.69029  0.34513  1.0000
  C   C516      1.0  0.34007  0.55758  0.32785  1.0000
  C   C517      1.0  0.46250  0.59096  0.32387  1.0000
  C   C518      1.0  0.46361  0.60186  0.37141  1.0000
  C   C519      1.0  0.26462  0.56322  0.64661  1.0000
  H   H521      1.0  0.38246  0.65737  0.61702  1.0000
  N   N44       1.0  0.27565  0.56658  0.62942  1.0000
  C   C520      1.0  0.30158  0.68856  0.33406  1.0000
  H   H522      1.0  0.43623  0.68691  0.33802  1.0000
  S   S170      1.0  0.33481  0.55776  0.64626  1.0000
  C   C521      1.0  0.28147  0.58495  0.60151  1.0000
  C   C522      1.0  0.26161  0.66644  0.61129  1.0000
  C   C523      1.0  0.47819  0.59482  0.34376  1.0000
  H   H523      1.0  0.28064  0.59934  0.64265  1.0000
  H   H524      1.0  0.43566  0.59715  0.34976  1.0000
  H   H525      1.0  0.38835  0.67429  0.34029  1.0000
  S   S171      1.0  0.26649  0.66474  0.32808  1.0000
  C   C524      1.0  0.24696  0.69172  0.63060  1.0000
  H   H526      1.0  0.32046  0.59681  0.32714  1.0000
  H   H527      1.0  0.24135  0.70147  0.63837  1.0000
  C   C525      1.0  0.30428  0.58060  0.64421  1.0000
  C   C526      1.0  0.47880  0.59853  0.35927  1.0000
  H   H528      1.0  0.35404  0.60350  0.63756  1.0000
  Fe  Fe86      1.0  0.48781  0.65045  0.36331  1.0000
  C   C527      1.0  0.41861  0.67822  0.31942  1.0000
  C   C528      1.0  0.34308  0.61365  0.64061  1.0000
  H   H529      1.0  0.44992  0.58819  0.32388  1.0000
  H   H530      1.0  0.36508  0.58754  0.31842  1.0000
  C   C529      1.0  0.33165  0.67949  0.32202  1.0000
  H   H531      1.0  0.34473  0.67395  0.32371  1.0000
  H   H532      1.0  0.34541  0.49039  0.34671  1.0000
  N   N45       1.0  0.33223  0.48806  0.32825  1.0000
  C   C530      1.0  0.37830  0.55402  0.64828  1.0000
  H   H533      1.0  0.23575  0.67199  0.64993  1.0000
  H   H534      1.0  0.41377  0.66749  0.31752  1.0000
  S   S172      1.0  0.42975  0.62751  0.31755  1.0000
  C   C531      1.0  0.35008  0.56958  0.31795  1.0000
  C   C532      1.0  0.33396  0.50408  0.31873  1.0000
  S   S173      1.0  0.32951  0.54797  0.31794  1.0000
  H   H535      1.0  0.49007  0.59267  0.33425  1.0000
  C   C533      1.0  0.29835  0.69366  0.31738  1.0000
  Fe  Fe87      1.0  0.31940  0.54679  0.67138  1.0000
  H   H536      1.0  0.34952  0.54939  0.74703  1.0000
  Fe  Fe88      1.0  0.28379  0.54945  0.69302  1.0000
  S   S174      1.0  0.25610  0.56168  0.69295  1.0000
  Fe  Fe89      1.0  0.31433  0.54256  0.70954  1.0000
  H   H537      1.0  0.26967  0.61788  0.72735  1.0000
  S   S175      1.0  0.30435  0.56410  0.68957  1.0000
  C   C534      1.0  0.16449  0.72146  0.73401  1.0000
  Fe  Fe90      1.0  0.26196  0.68715  0.67222  1.0000
  S   S176      1.0  0.23388  0.68700  0.67998  1.0000
  H   H538      1.0  0.21105  0.68836  0.78147  1.0000
  Fe  Fe91      1.0  0.27001  0.65849  0.70189  1.0000
  S   S177      1.0  0.24236  0.65610  0.71280  1.0000
  S   S178      1.0  0.29268  0.63976  0.71077  1.0000
  Fe  Fe92      1.0  0.24190  0.65833  0.68512  1.0000
  S   S179      1.0  0.22927  0.64219  0.67595  1.0000
  Fe  Fe93      1.0  0.23668  0.68519  0.70695  1.0000
  S   S180      1.0  0.21564  0.70544  0.71862  1.0000
  S   S181      1.0  0.26971  0.65870  0.67465  1.0000
  S   S182      1.0  0.26455  0.68725  0.69870  1.0000
  H   H539      1.0  0.29723  0.60529  0.73440  1.0000
  C   C535      1.0  0.20821  0.69862  0.77070  1.0000
  C   C536      1.0  0.39084  0.66551  0.69977  1.0000
  C   C537      1.0  0.16770  0.70039  0.76014  1.0000
  C   C538      1.0  0.37730  0.53408  0.69487  1.0000
  S   S183      1.0  0.36003  0.65461  0.65615  1.0000
  Fe  Fe94      1.0  0.30838  0.51467  0.69450  1.0000
  C   C539      1.0  0.17113  0.70480  0.74217  1.0000
  H   H540      1.0  0.28506  0.49984  0.67903  1.0000
  S   S184      1.0  0.42284  0.59737  0.66398  1.0000
  C   C540      1.0  0.40832  0.66625  0.69471  1.0000
  Fe  Fe95      1.0  0.38264  0.63334  0.66032  1.0000
  S   S185      1.0  0.39505  0.62706  0.68311  1.0000
  H   H541      1.0  0.29891  0.57332  0.65645  1.0000
  Fe  Fe96      1.0  0.42014  0.62532  0.66373  1.0000
  S   S186      1.0  0.44278  0.63804  0.65938  1.0000
  Fe  Fe97      1.0  0.39660  0.59975  0.68137  1.0000
  S   S187      1.0  0.39152  0.57931  0.70502  1.0000
  H   H542      1.0  0.28858  0.56390  0.73208  1.0000
  S   S188      1.0  0.38219  0.60627  0.66009  1.0000
  C   C541      1.0  0.47140  0.64244  0.69868  1.0000
  C   C542      1.0  0.45641  0.63553  0.70448  1.0000
  C   C543      1.0  0.44738  0.63405  0.69264  1.0000
  C   C544      1.0  0.45329  0.63962  0.67495  1.0000
  C   C545      1.0  0.46799  0.64690  0.66925  1.0000
  H   H543      1.0  0.20821  0.72444  0.81617  1.0000
  H   H544      1.0  0.45194  0.63108  0.71815  1.0000
  H   H545      1.0  0.43600  0.62851  0.69717  1.0000
  C   C546      1.0  0.24871  0.58696  0.72820  1.0000
  H   H546      1.0  0.30411  0.58237  0.73936  1.0000
  H   H547      1.0  0.22733  0.73089  0.81728  1.0000
  H   H548      1.0  0.36164  0.65428  0.69550  1.0000
  C   C547      1.0  0.47705  0.64824  0.68103  1.0000
  C   C548      1.0  0.21068  0.70893  0.73982  1.0000
  C   C549      1.0  0.38800  0.67333  0.67054  1.0000
  H   H549      1.0  0.35666  0.67278  0.70542  1.0000
  C   C550      1.0  0.19752  0.71433  0.77376  1.0000
  H   H550      1.0  0.32553  0.67428  0.66166  1.0000
  C   C551      1.0  0.21477  0.69588  0.75374  1.0000
  H   H551      1.0  0.29827  0.60391  0.66962  1.0000
  H   H552      1.0  0.15525  0.70940  0.78370  1.0000
  C   C552      1.0  0.27816  0.57502  0.73088  1.0000
  H   H553      1.0  0.22245  0.68353  0.75146  1.0000
  C   C553      1.0  0.31152  0.64393  0.69582  1.0000
  C   C554      1.0  0.32701  0.63188  0.69611  1.0000
  C   C555      1.0  0.34197  0.63507  0.68391  1.0000
  C   C556      1.0  0.34146  0.65035  0.67146  1.0000
  C   C557      1.0  0.32600  0.66241  0.67123  1.0000
  C   C558      1.0  0.31105  0.65917  0.68333  1.0000
  H   H554      1.0  0.32746  0.62007  0.70575  1.0000
  H   H555      1.0  0.35389  0.62572  0.68425  1.0000
  H   H556      1.0  0.29526  0.62279  0.67832  1.0000
  H   H557      1.0  0.29921  0.66862  0.68307  1.0000
  S   S189      1.0  0.18839  0.71706  0.79509  1.0000
  H   H558      1.0  0.46938  0.60163  0.68776  1.0000
  H   H559      1.0  0.30615  0.59362  0.71717  1.0000
  H   H560      1.0  0.26028  0.56006  0.73009  1.0000
  H   H561      1.0  0.38130  0.53846  0.70472  1.0000
  C   C559      1.0  0.34170  0.55875  0.72267  1.0000
  C   C560      1.0  0.35248  0.55668  0.73400  1.0000
  C   C561      1.0  0.36745  0.56345  0.72845  1.0000
  C   C562      1.0  0.37158  0.57279  0.71164  1.0000
  C   C563      1.0  0.36048  0.57547  0.70034  1.0000
  C   C564      1.0  0.34561  0.56827  0.70581  1.0000
  H   H562      1.0  0.38533  0.66172  0.71336  1.0000
  H   H563      1.0  0.37597  0.56130  0.73722  1.0000
  H   H564      1.0  0.36361  0.58257  0.68731  1.0000
  H   H565      1.0  0.33729  0.56997  0.69698  1.0000
  C   C565      1.0  0.24999  0.58416  0.68690  1.0000
  C   C566      1.0  0.26029  0.59531  0.68714  1.0000
  C   C567      1.0  0.25401  0.61323  0.68396  1.0000
  C   C568      1.0  0.23776  0.61996  0.67982  1.0000
  C   C569      1.0  0.22788  0.60880  0.67890  1.0000
  C   C570      1.0  0.23385  0.59098  0.68268  1.0000
  H   H566      1.0  0.27267  0.59015  0.69060  1.0000
  H   H567      1.0  0.26155  0.62183  0.68493  1.0000
  H   H568      1.0  0.21532  0.61393  0.67573  1.0000
  H   H569      1.0  0.22581  0.58246  0.68251  1.0000
  C   C571      1.0  0.49088  0.60090  0.69870  1.0000
  H   H570      1.0  0.36284  0.53839  0.66806  1.0000
  C   C572      1.0  0.40057  0.56193  0.65702  1.0000
  C   C573      1.0  0.26763  0.60511  0.72825  1.0000
  C   C574      1.0  0.29776  0.61800  0.66620  1.0000
  S   S190      1.0  0.32372  0.54890  0.72999  1.0000
  C   C575      1.0  0.15751  0.71254  0.76972  1.0000
  H   H571      1.0  0.35515  0.67558  0.68345  1.0000
  H   H572      1.0  0.48358  0.59866  0.71186  1.0000
  H   H573      1.0  0.17342  0.68777  0.76661  1.0000
  N   N46       1.0  0.38086  0.66930  0.68774  1.0000
  C   C576      1.0  0.36271  0.66793  0.69333  1.0000
  C   C577      1.0  0.15091  0.72902  0.76113  1.0000
  S   S191      1.0  0.29223  0.52915  0.71503  1.0000
  C   C578      1.0  0.20060  0.72485  0.74291  1.0000
  S   S192      1.0  0.33133  0.52637  0.69107  1.0000
  H   H574      1.0  0.26760  0.57003  0.65522  1.0000
  C   C579      1.0  0.08775  0.73559  0.82185  1.0000
  H   H575      1.0  0.10388  0.73495  0.83891  1.0000
  N   N47       1.0  0.28071  0.59105  0.73013  1.0000
  C   C580      1.0  0.25143  0.60329  0.72733  1.0000
  H   H576      1.0  0.24120  0.61451  0.72546  1.0000
  H   H577      1.0  0.41123  0.67690  0.65140  1.0000
  N   N48       1.0  0.15450  0.73331  0.74351  1.0000
  C   C581      1.0  0.32773  0.60955  0.65118  1.0000
  C   C582      1.0  0.41559  0.67070  0.67724  1.0000
  C   C583      1.0  0.19400  0.72753  0.75979  1.0000
  C   C584      1.0  0.21408  0.73564  0.81488  1.0000
  C   C585      1.0  0.26215  0.57273  0.72995  1.0000
  H   H578      1.0  0.16782  0.72490  0.72005  1.0000
  H   H579      1.0  0.40205  0.55257  0.68365  1.0000
  H   H580      1.0  0.42918  0.67111  0.67310  1.0000
  H   H581      1.0  0.23640  0.58541  0.72688  1.0000
  H   H582      1.0  0.32711  0.59612  0.65634  1.0000
  S   S193      1.0  0.29801  0.53388  0.67292  1.0000
  C   C586      1.0  0.29786  0.59321  0.73028  1.0000
  N   N49       1.0  0.38190  0.54454  0.67761  1.0000
  H   H583      1.0  0.48532  0.60861  0.65758  1.0000
  H   H584      1.0  0.09846  0.73217  0.81155  1.0000
  H   H585      1.0  0.28686  0.62401  0.65953  1.0000
  C   C587      1.0  0.37342  0.54503  0.66512  1.0000
  N   N50       1.0  0.31377  0.62228  0.65495  1.0000
  H   H586      1.0  0.41629  0.66313  0.70421  1.0000
  H   H587      1.0  0.38361  0.52039  0.69496  1.0000
  H   H588      1.0  0.36313  0.53506  0.69892  1.0000
  H   H589      1.0  0.17960  0.69567  0.73459  1.0000
  C   C588      1.0  0.39533  0.55286  0.67376  1.0000
  H   H590      1.0  0.22418  0.72502  0.78516  1.0000
  H   H591      1.0  0.41126  0.56847  0.65392  1.0000
  H   H592      1.0  0.26659  0.54925  0.65247  1.0000
  S   S194      1.0  0.48310  0.64314  0.71368  1.0000
  C   C589      1.0  0.40546  0.67406  0.66504  1.0000
  H   H593      1.0  0.38026  0.67584  0.66095  1.0000
  C   C590      1.0  0.48276  0.60266  0.68514  1.0000
  H   H594      1.0  0.47252  0.65143  0.65559  1.0000
  H   H595      1.0  0.30376  0.64928  0.65175  1.0000
  H   H596      1.0  0.48836  0.65388  0.67642  1.0000
  H   H597      1.0  0.19741  0.73498  0.73217  1.0000
  H   H598      1.0  0.09276  0.73588  0.86907  1.0000
  Fe  Fe98      1.0  0.12348  0.81903  0.05908  1.0000
  S   S195      1.0  0.09838  0.82416  0.07743  1.0000
  S   S196      1.0  0.12277  0.82765  0.03087  1.0000
  Fe  Fe99      1.0  0.14329  0.80510  0.08739  1.0000
  S   S197      1.0  0.12004  0.80863  0.10847  1.0000
  S   S198      1.0  0.16812  0.79560  0.09641  1.0000
  Fe  Fe100     1.0  0.10761  0.79837  0.09310  1.0000
  S   S199      1.0  0.08751  0.78264  0.10691  1.0000
  Fe  Fe101     1.0  0.11229  0.83410  0.09167  1.0000
  S   S200      1.0  0.09772  0.85556  0.10543  1.0000
  S   S201      1.0  0.13174  0.79208  0.07341  1.0000
  S   S202      1.0  0.13681  0.83170  0.07171  1.0000
  H   H599      1.0  0.08455  0.81743  0.04007  1.0000
  H   H600      1.0  0.16301  0.80988  0.26292  1.0000
  C   C591      1.0  0.17403  0.81628  0.23579  1.0000
  H   H601      1.0  0.05629  0.85531  0.18379  1.0000
  S   S203      1.0  0.02696  0.85380  0.21293  1.0000
  C   C592      1.0  0.03758  0.87044  0.20079  1.0000
  Fe  Fe102     1.0  0.12846  0.90277  0.15319  1.0000
  S   S204      1.0  0.10863  0.92694  0.14932  1.0000
  S   S205      1.0  0.14428  0.88978  0.13149  1.0000
  Fe  Fe103     1.0  0.12018  0.89926  0.19188  1.0000
  S   S206      1.0  0.09947  0.92322  0.19155  1.0000
  S   S207      1.0  0.12529  0.87929  0.21540  1.0000
  Fe  Fe104     1.0  0.09172  0.91354  0.17204  1.0000
  S   S208      1.0  0.06419  0.91494  0.17157  1.0000
  Fe  Fe105     1.0  0.11826  0.93472  0.16895  1.0000
  S   S209      1.0  0.12226  0.96218  0.16134  1.0000
  S   S210      1.0  0.11070  0.88871  0.17432  1.0000
  S   S211      1.0  0.13977  0.91144  0.17087  1.0000
  C   C593      1.0  0.06747  0.85094  0.22303  1.0000
  S   S212      1.0  0.17735  0.76594  0.19153  1.0000
  H   H602      1.0  0.15916  0.83074  0.00922  1.0000
  Fe  Fe106     1.0  0.13311  0.77305  0.22207  1.0000
  S   S213      1.0  0.15574  0.78102  0.22622  1.0000
  H   H603      1.0  0.18673  0.81864  0.20914  1.0000
  Fe  Fe107     1.0  0.16075  0.79065  0.19764  1.0000
  S   S214      1.0  0.16919  0.81537  0.18392  1.0000
  C   C594      1.0  0.10917  0.81004  0.99573  1.0000
  S   S215      1.0  0.13692  0.78507  0.19402  1.0000
  Fe  Fe108     1.0  0.02053  0.82874  0.16515  1.0000
  S   S216      1.0  0.02567  0.83746  0.13667  1.0000
  Fe  Fe109     1.0  0.03325  0.79974  0.19250  1.0000
  S   S217      1.0  0.05318  0.77533  0.19511  1.0000
  S   S218      1.0  0.04216  0.82416  0.17870  1.0000
  C   C595      1.0  0.09125  0.77794  0.22584  1.0000
  C   C596      1.0  0.09653  0.76814  0.21303  1.0000
  C   C597      1.0  0.08467  0.76701  0.20394  1.0000
  C   C598      1.0  0.06770  0.77625  0.20711  1.0000
  H   H604      1.0  0.10969  0.76120  0.21029  1.0000
  H   H605      1.0  0.16695  0.82951  0.23414  1.0000
  H   H606      1.0  0.04660  0.84974  0.07124  1.0000
  H   H607      1.0  0.17219  0.97716  0.19500  1.0000
  C   C599      1.0  0.05936  0.80623  0.07878  1.0000
  S   S219      1.0  0.10544  0.77906  0.99171  1.0000
  C   C600      1.0  0.01134  0.76121  0.20225  1.0000
  C   C601      1.0  0.05525  0.89719  0.18366  1.0000
  C   C602      1.0  0.04082  0.89983  0.19687  1.0000
  C   C603      1.0  0.03227  0.88639  0.20566  1.0000
  C   C604      1.0  0.06101  0.88105  0.17903  1.0000
  H   H608      1.0  0.03620  0.91233  0.20033  1.0000
  H   H609      1.0  0.02128  0.88848  0.21611  1.0000
  C   C605      1.0  0.15744  0.83279  0.19345  1.0000
  C   C606      1.0  0.14545  0.83044  0.20904  1.0000
  C   C607      1.0  0.13630  0.84465  0.21644  1.0000
  C   C608      1.0  0.13865  0.86125  0.20786  1.0000
  C   C609      1.0  0.15070  0.86349  0.19235  1.0000
  C   C610      1.0  0.16032  0.84927  0.18535  1.0000
  H   H610      1.0  0.14312  0.81775  0.21536  1.0000
  H   H611      1.0  0.12688  0.84288  0.22839  1.0000
  H   H612      1.0  0.15269  0.87623  0.18575  1.0000
  H   H613      1.0  0.16984  0.85110  0.17354  1.0000
  Fe  Fe110     1.0  0.02204  0.83601  0.19882  1.0000
  H   H614      1.0  0.13153  0.97059  0.21539  1.0000
  C   C611      1.0  0.12584  0.96671  0.19252  1.0000
  H   H615      1.0  0.15001  0.85519  0.98627  1.0000
  H   H616      1.0  0.20609  0.77283  0.20998  1.0000
  H   H617      1.0  0.12602  0.95312  0.19734  1.0000
  C   C612      1.0  0.11096  0.86474  0.11258  1.0000
  C   C613      1.0  0.10363  0.87432  0.12549  1.0000
  C   C614      1.0  0.11378  0.88228  0.13104  1.0000
  C   C615      1.0  0.13139  0.88049  0.12392  1.0000
  C   C616      1.0  0.13877  0.87090  0.11099  1.0000
  C   C617      1.0  0.12859  0.86288  0.10542  1.0000
  H   H618      1.0  0.09013  0.87546  0.13133  1.0000
  H   H619      1.0  0.10791  0.88997  0.14071  1.0000
  H   H620      1.0  0.15230  0.86983  0.10517  1.0000
  H   H621      1.0  0.13430  0.85562  0.09533  1.0000
  C   C618      1.0  0.07044  0.79692  0.11693  1.0000
  C   C619      1.0  0.07271  0.81330  0.11654  1.0000
  C   C620      1.0  0.05890  0.82573  0.12238  1.0000
  C   C621      1.0  0.04269  0.82172  0.12919  1.0000
  C   C622      1.0  0.04042  0.80502  0.13061  1.0000
  C   C623      1.0  0.05432  0.79260  0.12433  1.0000
  H   H622      1.0  0.08512  0.81659  0.11179  1.0000
  H   H623      1.0  0.06098  0.83837  0.12171  1.0000
  H   H624      1.0  0.02787  0.80183  0.13620  1.0000
  H   H625      1.0  0.05248  0.77987  0.12488  1.0000
  C   C624      1.0  0.16388  0.78162  0.11638  1.0000
  C   C625      1.0  0.17124  0.78198  0.12984  1.0000
  C   C626      1.0  0.12324  0.97432  0.17582  1.0000
  C   C627      1.0  0.15515  0.76097  0.14906  1.0000
  C   C628      1.0  0.14817  0.76030  0.13546  1.0000
  C   C629      1.0  0.15224  0.77088  0.11923  1.0000
  H   H626      1.0  0.18020  0.79032  0.12769  1.0000
  H   H627      1.0  0.04488  0.86451  0.12666  1.0000
  C   C630      1.0  0.06571  0.83519  0.05394  1.0000
  H   H628      1.0  0.14650  0.77059  0.10886  1.0000
  C   C631      1.0  0.11748  0.81394  0.02063  1.0000
  C   C632      1.0  0.11296  0.82067  0.00456  1.0000
  C   C633      1.0  0.16440  0.97702  0.15643  1.0000
  C   C634      1.0  0.10964  0.79260  0.00300  1.0000
  C   C635      1.0  0.11402  0.78585  0.01918  1.0000
  C   C636      1.0  0.11798  0.79650  0.02798  1.0000
  H   H629      1.0  0.13937  0.75180  0.13751  1.0000
  S   S220      1.0  0.00104  0.84312  0.18387  1.0000
  H   H630      1.0  0.11457  0.77232  0.02479  1.0000
  H   H631      1.0  0.12164  0.79116  0.04031  1.0000
  N   N51       1.0  0.15924  0.83296  0.13124  1.0000
  C   C637      1.0  0.16989  0.83222  0.11545  1.0000
  C   C638      1.0  0.16096  0.84331  0.14111  1.0000
  C   C639      1.0  0.18281  0.84188  0.10923  1.0000
  C   C640      1.0  0.17364  0.85326  0.13522  1.0000
  C   C641      1.0  0.18459  0.85254  0.11917  1.0000
  C   C642      1.0  0.14528  0.82337  0.13738  1.0000
  H   H632      1.0  0.16829  0.82437  0.10743  1.0000
  H   H633      1.0  0.15225  0.84425  0.15345  1.0000
  H   H634      1.0  0.19110  0.84133  0.09664  1.0000
  H   H635      1.0  0.17445  0.86202  0.14275  1.0000
  H   H636      1.0  0.19418  0.86053  0.11434  1.0000
  H   H637      1.0  0.14643  0.81412  0.12912  1.0000
  H   H638      1.0  0.14563  0.81586  0.15069  1.0000
  H   H639      1.0  0.13273  0.83251  0.13713  1.0000
  N   N52       1.0  0.05302  0.89940  0.13538  1.0000
  C   C643      1.0  0.03961  0.90201  0.14902  1.0000
  C   C644      1.0  0.05505  0.88601  0.12745  1.0000
  C   C645      1.0  0.02795  0.89092  0.15525  1.0000
  C   C646      1.0  0.04338  0.87496  0.13308  1.0000
  C   C647      1.0  0.02986  0.87732  0.14717  1.0000
  C   C648      1.0  0.06589  0.91029  0.13000  1.0000
  H   H640      1.0  0.03812  0.91245  0.15549  1.0000
  H   H641      1.0  0.06581  0.88369  0.11678  1.0000
  H   H642      1.0  0.01771  0.89267  0.16647  1.0000
  H   H643      1.0  0.16028  0.80103  0.00707  1.0000
  C   C649      1.0  0.19214  0.78254  0.23939  1.0000
  H   H644      1.0  0.07226  0.91099  0.11619  1.0000
  H   H645      1.0  0.05996  0.92362  0.13193  1.0000
  H   H646      1.0  0.07590  0.90502  0.13791  1.0000
  H   H647      1.0  0.08732  0.75178  0.16548  1.0000
  H   H648      1.0  0.19923  0.76935  0.24097  1.0000
  C   C650      1.0  0.05196  0.86773  0.18741  1.0000
  C   C651      1.0  0.08233  0.76371  0.15670  1.0000
  H   H649      1.0  0.11248  0.83089  0.19971  1.0000
  C   C652      1.0  0.15102  0.84207  0.98513  1.0000
  N   N53       1.0  0.08927  0.77813  0.15763  1.0000
  C   C653      1.0  0.10604  0.77544  0.15897  1.0000
  C   C654      1.0  0.07930  0.79434  0.15612  1.0000
  C   C655      1.0  0.11321  0.78919  0.15893  1.0000
  C   C656      1.0  0.08610  0.80841  0.15583  1.0000
  C   C657      1.0  0.10315  0.80577  0.15730  1.0000
  C   C658      1.0  0.07674  0.87825  0.21901  1.0000
  H   H650      1.0  0.11399  0.76260  0.16015  1.0000
  H   H651      1.0  0.06600  0.79648  0.15505  1.0000
  H   H652      1.0  0.12651  0.78688  0.16005  1.0000
  H   H653      1.0  0.07820  0.82127  0.15429  1.0000
  H   H654      1.0  0.10854  0.81658  0.15712  1.0000
  N   N54       1.0  0.07153  0.80453  0.06401  1.0000
  H   H655      1.0  0.08450  0.78600  0.04842  1.0000
  S   S221      1.0  0.01461  0.81111  0.21392  1.0000
  H   H656      1.0  0.08599  0.76163  0.14324  1.0000
  C   C659      1.0  0.20507  0.78690  0.20845  1.0000
  S   S222      1.0  0.14868  0.74877  0.16965  1.0000
  C   C660      1.0  0.08211  0.78758  0.06196  1.0000
  C   C661      1.0  0.06246  0.78621  0.21980  1.0000
  C   C662      1.0  0.07411  0.78671  0.22943  1.0000
  H   H657      1.0  0.07204  0.87904  0.16862  1.0000
  H   H658      1.0  0.17948  0.77961  0.26626  1.0000
  H   H659      1.0  0.02096  0.86857  0.15183  1.0000
  S   S223      1.0  0.10611  0.78008  0.23682  1.0000
  H   H660      1.0  0.02026  0.77104  0.21960  1.0000
  H   H661      1.0  0.11256  0.83415  0.99880  1.0000
  C   C663      1.0  0.18105  0.78832  0.25379  1.0000
  H   H662      1.0  0.15104  0.78228  0.99498  1.0000
  Fe  Fe111     1.0  0.99533  0.81703  0.19704  1.0000
  C   C664      1.0  0.05011  0.82248  0.08152  1.0000
  H   H663      1.0  0.09462  0.78610  0.06559  1.0000
  C   C665      1.0  0.12900  0.97661  0.20269  1.0000
  H   H664      1.0  0.06807  0.76625  0.16074  1.0000
  H   H665      1.0  0.08509  0.87931  0.22726  1.0000
  H   H666      1.0  0.08875  0.75910  0.19434  1.0000
  C   C666      1.0  0.17185  0.80528  0.25191  1.0000
  N   N55       1.0  0.19371  0.79324  0.22350  1.0000
  S   S224      1.0  0.14753  0.74653  0.21851  1.0000
  H   H667      1.0  0.21810  0.78951  0.20659  1.0000
  Fe  Fe112     1.0  0.17072  0.75555  0.22004  1.0000
  H   H668      1.0  0.07579  0.77702  0.07038  1.0000
  C   C667      1.0  0.16659  0.77192  0.14627  1.0000
  H   H669      1.0  0.19989  0.79318  0.19659  1.0000
  H   H670      1.0  0.05704  0.79500  0.08871  1.0000
  S   S225      1.0  0.01340  0.80317  0.17701  1.0000
  C   C668      1.0  0.99686  0.75891  0.19777  1.0000
  H   H671      1.0  0.06866  0.84641  0.04427  1.0000
  H   H672      1.0  0.17204  0.77250  0.15670  1.0000
  C   C669      1.0  0.08691  0.82676  0.21222  1.0000
  H   H673      1.0  0.06046  0.82670  0.22529  1.0000
  C   C670      1.0  0.07064  0.83403  0.22067  1.0000
  C   C671      1.0  0.05340  0.83705  0.06905  1.0000
  H   H674      1.0  0.08966  0.81361  0.21047  1.0000
  C   C672      1.0  0.09971  0.83648  0.20610  1.0000
  C   C673      1.0  0.07471  0.81873  0.05163  1.0000
  H   H675      1.0  0.05475  0.85645  0.22960  1.0000
  C   C674      1.0  0.00914  0.76898  0.21614  1.0000
  H   H676      1.0  0.04074  0.82379  0.09343  1.0000
  C   C675      1.0  0.09598  0.85343  0.20842  1.0000
  N   N56       1.0  0.08004  0.86046  0.21675  1.0000
  Fe  Fe113     1.0  0.15294  0.75930  0.19052  1.0000
  H   H677      1.0  0.04935  0.79326  0.22243  1.0000
  C   C676      1.0  0.18518  0.81004  0.22166  1.0000
  H   H678      1.0  0.06996  0.79417  0.23944  1.0000
  H   H679      1.0  0.10594  0.86093  0.20362  1.0000
  H   H680      1.0  0.06307  0.88284  0.22497  1.0000
  H   H681      1.0  0.07967  0.88700  0.20631  1.0000
  C   C677      1.0  0.15679  0.81154  0.99670  1.0000
  H   H682      1.0  0.15943  0.96948  0.15041  1.0000
  H   H683      1.0  0.02420  0.75727  0.19489  1.0000
  C   C678      1.0  0.16631  0.97111  0.17347  1.0000
  H   H684      1.0  0.16289  0.95897  0.18068  1.0000
  S   S226      1.0  0.19482  0.74128  0.23003  1.0000
  C   C679      1.0  0.99259  0.77443  0.22530  1.0000
  C   C680      1.0  0.15628  0.82835  0.99795  1.0000
  C   C681      1.0  0.17162  0.98143  0.18147  1.0000
  H   H685      1.0  0.99865  0.75296  0.18689  1.0000
  Fe  Fe114     1.0  0.07978  0.80873  0.93851  1.0000
  S   S227      1.0  0.10067  0.82023  0.91920  1.0000
  S   S228      1.0  0.05411  0.81594  0.93079  1.0000
  Fe  Fe115     1.0  0.11738  0.79457  0.92626  1.0000
  S   S229      1.0  0.13875  0.78549  0.90521  1.0000
  Fe  Fe116     1.0  0.10668  0.82668  0.94160  1.0000
  S   S230      1.0  0.11650  0.84969  0.94194  1.0000
  H   H686      1.0  0.04417  0.74729  0.83059  1.0000
  Fe  Fe117     1.0  0.13258  0.88347  0.85115  1.0000
  S   S231      1.0  0.10630  0.89615  0.86335  1.0000
  S   S232      1.0  0.15336  0.87757  0.86597  1.0000
  Fe  Fe118     1.0  0.12174  0.88315  0.81879  1.0000
  S   S233      1.0  0.09463  0.89659  0.82783  1.0000
  S   S234      1.0  0.12858  0.87256  0.79466  1.0000
  Fe  Fe119     1.0  0.10679  0.91326  0.83724  1.0000
  S   S235      1.0  0.09890  0.94215  0.83448  1.0000
  Fe  Fe120     1.0  0.09686  0.87830  0.85300  1.0000
  S   S236      1.0  0.07884  0.86090  0.86887  1.0000
  S   S237      1.0  0.13379  0.90154  0.82555  1.0000
  S   S238      1.0  0.12319  0.86390  0.84340  1.0000
  Fe  Fe121     1.0  0.16390  0.77865  0.80265  1.0000
  S   S239      1.0  0.17661  0.79878  0.80501  1.0000
  Fe  Fe122     1.0  0.13945  0.76799  0.78752  1.0000
  S   S240      1.0  0.13521  0.78286  0.80811  1.0000
  S   S241      1.0  0.16801  0.76646  0.77996  1.0000
  Fe  Fe123     1.0  0.03158  0.78953  0.85863  1.0000
  S   S242      1.0  0.04520  0.77438  0.87989  1.0000
  Fe  Fe124     1.0  0.03205  0.79023  0.82161  1.0000
  S   S243      1.0  0.01013  0.81256  0.86006  1.0000
  S   S244      1.0  0.04416  0.77724  0.79915  1.0000
  Fe  Fe125     1.0  0.02451  0.82340  0.83403  1.0000
  S   S245      1.0  0.02922  0.85028  0.82693  1.0000
  S   S246      1.0  0.04704  0.80131  0.83369  1.0000
  S   S247      1.0  0.01841  0.77629  0.84661  1.0000
  H   H687      1.0  0.09225  0.86330  0.81077  1.0000
  C   C682      1.0  0.09502  0.77540  0.79431  1.0000
  S   S248      1.0  0.13072  0.97611  0.87691  1.0000
  C   C683      1.0  0.06614  0.77702  0.79074  1.0000
  H   H688      1.0  0.00304  0.80333  0.92460  1.0000
  C   C684      1.0  0.07506  0.86418  0.93606  1.0000
  H   H689      1.0  0.05916  0.84666  0.93724  1.0000
  C   C685      1.0  0.06412  0.85846  0.85799  1.0000
  C   C686      1.0  0.05819  0.84303  0.86231  1.0000
  C   C687      1.0  0.04721  0.84052  0.85300  1.0000
  C   C688      1.0  0.04181  0.85361  0.83966  1.0000
  C   C689      1.0  0.04731  0.86923  0.83575  1.0000
  C   C690      1.0  0.05858  0.87159  0.84479  1.0000
  H   H690      1.0  0.06235  0.83285  0.87259  1.0000
  H   H691      1.0  0.04302  0.82843  0.85609  1.0000
  H   H692      1.0  0.04309  0.87942  0.82550  1.0000
  H   H693      1.0  0.06283  0.88364  0.84161  1.0000
  C   C691      1.0  0.14257  0.85238  0.79698  1.0000
  C   C692      1.0  0.14223  0.84045  0.78761  1.0000
  C   C693      1.0  0.15247  0.82385  0.79022  1.0000
  C   C694      1.0  0.16360  0.81941  0.80169  1.0000
  C   C695      1.0  0.16433  0.83151  0.81067  1.0000
  C   C696      1.0  0.15362  0.84788  0.80854  1.0000
  H   H694      1.0  0.13386  0.84400  0.77849  1.0000
  H   H695      1.0  0.15205  0.81463  0.78306  1.0000
  H   H696      1.0  0.17311  0.82821  0.81935  1.0000
  H   H697      1.0  0.15421  0.85717  0.81553  1.0000
  C   C697      1.0  0.12001  0.96705  0.86648  1.0000
  H   H698      1.0  0.09966  0.76503  0.88232  1.0000
  S   S249      1.0  0.01058  0.81345  0.81962  1.0000
  C   C698      1.0  0.10599  0.95157  0.84777  1.0000
  C   C699      1.0  0.11520  0.94139  0.86021  1.0000
  C   C700      1.0  0.12217  0.94911  0.86953  1.0000
  H   H699      1.0  0.09190  0.80762  0.86069  1.0000
  C   C701      1.0  0.11022  0.97730  0.85454  1.0000
  H   H700      1.0  0.11731  0.92756  0.86237  1.0000
  H   H701      1.0  0.12965  0.94111  0.87882  1.0000
  C   C702      1.0  0.12700  0.85746  0.92094  1.0000
  C   C703      1.0  0.12062  0.85678  0.90698  1.0000
  C   C704      1.0  0.12895  0.86271  0.89015  1.0000
  C   C705      1.0  0.14377  0.86934  0.88716  1.0000
  C   C706      1.0  0.15025  0.87004  0.90109  1.0000
  C   C707      1.0  0.14174  0.86425  0.91803  1.0000
  H   H702      1.0  0.10894  0.85217  0.90910  1.0000
  H   H703      1.0  0.12385  0.86216  0.87949  1.0000
  H   H704      1.0  0.16165  0.87528  0.89878  1.0000
  H   H705      1.0  0.14668  0.86488  0.92880  1.0000
  C   C708      1.0  0.05317  0.80519  0.91520  1.0000
  C   C709      1.0  0.04107  0.81242  0.90472  1.0000
  C   C710      1.0  0.03934  0.80347  0.89301  1.0000
  C   C711      1.0  0.04933  0.78703  0.89211  1.0000
  C   C712      1.0  0.06164  0.77993  0.90237  1.0000
  C   C713      1.0  0.06372  0.78910  0.91373  1.0000
  H   H706      1.0  0.03296  0.82492  0.90572  1.0000
  H   H707      1.0  0.02982  0.80906  0.88518  1.0000
  N   N57       1.0  0.09054  0.83950  0.80620  1.0000
  H   H708      1.0  0.10919  0.84583  0.81643  1.0000
  H   H709      1.0  0.16796  0.94530  0.85484  1.0000
  S   S250      1.0  0.08397  0.81790  0.96041  1.0000
  H   H710      1.0  0.06422  0.77614  0.76532  1.0000
  C   C714      1.0  0.14751  0.82188  0.97014  1.0000
  S   S251      1.0  0.12508  0.80191  0.94714  1.0000
  H   H711      1.0  0.15854  0.77489  0.87438  1.0000
  H   H712      1.0  0.14399  0.81958  0.95920  1.0000
  C   C715      1.0  0.09519  0.98106  0.91063  1.0000
  H   H713      1.0  0.14886  0.91632  0.85545  1.0000
  C   C716      1.0  0.14161  0.76613  0.86389  1.0000
  C   C717      1.0  0.07727  0.77686  0.80117  1.0000
  H   H714      1.0  0.14243  0.84939  0.96106  1.0000
  C   C718      1.0  0.14216  0.96189  0.81872  1.0000
  C   C719      1.0  0.00344  0.77334  0.90317  1.0000
  C   C720      1.0  0.07089  0.73891  0.81956  1.0000
  H   H715      1.0  0.08172  0.75800  0.86451  1.0000
  H   H716      1.0  0.05814  0.84606  0.90197  1.0000
  H   H717      1.0  0.12049  0.96801  0.91488  1.0000
  C   C721      1.0  0.14784  0.75088  0.73501  1.0000
  C   C722      1.0  0.06071  0.74575  0.84786  1.0000
  H   H718      1.0  0.16025  0.82196  0.85203  1.0000
  H   H719      1.0  0.11951  0.83022  0.88383  1.0000
  C   C723      1.0  0.15033  0.82230  0.86414  1.0000
  C   C724      1.0  0.10372  0.81105  0.86097  1.0000
  H   H720      1.0  0.06483  0.85397  0.80835  1.0000
  C   C725      1.0  0.06899  0.83388  0.79455  1.0000
  C   C726      1.0  0.10393  0.81977  0.87341  1.0000
  Fe  Fe126     1.0  0.16909  0.74154  0.79928  1.0000
  H   H721      1.0  0.15528  0.81239  0.87475  1.0000
  C   C727      1.0  0.14565  0.77284  0.87608  1.0000
  H   H722      1.0  0.09225  0.82338  0.88267  1.0000
  C   C728      1.0  0.12509  0.76316  0.86614  1.0000
  H   H723      1.0  0.05009  0.75013  0.85779  1.0000
  C   C729      1.0  0.11645  0.77423  0.89263  1.0000
  H   H724      1.0  0.03920  0.85380  0.91701  1.0000
  H   H725      1.0  0.08469  0.89596  0.90162  1.0000
  H   H726      1.0  0.14177  0.79030  0.97652  1.0000
  Fe  Fe127     1.0  0.13899  0.75699  0.82555  1.0000
  N   N58       1.0  0.07727  0.74211  0.85016  1.0000
  H   H727      1.0  0.07232  0.77724  0.81465  1.0000
  H   H728      1.0  0.07304  0.78339  0.92181  1.0000
  H   H729      1.0  0.09114  0.88273  0.93072  1.0000
  H   H730      1.0  0.13404  0.96644  0.80927  1.0000
  C   C730      1.0  0.16000  0.91996  0.84533  1.0000
  C   C731      1.0  0.02034  0.77108  0.92461  1.0000
  H   H731      1.0  0.06834  0.73822  0.80743  1.0000
  C   C732      1.0  0.08232  0.87808  0.92604  1.0000
  H   H732      1.0  0.14596  0.80633  0.84134  1.0000
  H   H733      1.0  0.11900  0.79903  0.83994  1.0000
  H   H734      1.0  0.14831  0.83523  0.86715  1.0000
  H   H735      1.0  0.15132  0.75272  0.72073  1.0000
  C   C733      1.0  0.06785  0.87883  0.90369  1.0000
  H   H736      1.0  0.09604  0.97752  0.83567  1.0000
  C   C734      1.0  0.10962  0.97836  0.91768  1.0000
  H   H737      1.0  0.10359  0.77487  0.80252  1.0000
  H   H738      1.0  0.10671  0.77740  0.90370  1.0000
  C   C735      1.0  0.07276  0.77610  0.77341  1.0000
  H   H739      1.0  0.06532  0.88451  0.89089  1.0000
  Fe  Fe128     1.0  0.10220  0.79249  0.96476  1.0000
  C   C736      1.0  0.06440  0.85775  0.92955  1.0000
  H   H740      1.0  0.15141  0.76304  0.85293  1.0000
  C   C737      1.0  0.09034  0.77534  0.76640  1.0000
  N   N59       1.0  0.00770  0.78091  0.91412  1.0000
  S   S252      1.0  0.16759  0.75357  0.82146  1.0000
  H   H741      1.0  0.06936  0.76719  0.90181  1.0000
  N   N60       1.0  0.13418  0.81903  0.86246  1.0000
  C   C738      1.0  0.13412  0.81046  0.85019  1.0000
  C   C739      1.0  0.11937  0.82365  0.87399  1.0000
  C   C740      1.0  0.11889  0.80637  0.84925  1.0000
  C   C741      1.0  0.13311  0.77691  0.89044  1.0000
  H   H742      1.0  0.05578  0.83684  0.79289  1.0000
  C   C742      1.0  0.07411  0.84341  0.80353  1.0000
  S   S253      1.0  0.09613  0.78227  0.94439  1.0000
  C   C743      1.0  0.10151  0.77491  0.77683  1.0000
  C   C744      1.0  0.09523  0.84929  0.81633  1.0000
  S   S254      1.0  0.12348  0.77394  0.76769  1.0000
  H   H743      1.0  0.08801  0.84684  0.82986  1.0000
  H   H744      1.0  0.11533  0.82313  0.80198  1.0000
  C   C745      1.0  0.08098  0.82057  0.78781  1.0000
  C   C746      1.0  0.10233  0.82634  0.79981  1.0000
  H   H745      1.0  0.07721  0.81313  0.78071  1.0000
  C   C747      1.0  0.09782  0.81688  0.79029  1.0000
  C   C748      1.0  0.05727  0.74408  0.83259  1.0000
  H   H746      1.0  0.10732  0.80671  0.78490  1.0000
  H   H747      1.0  0.10606  0.81535  0.98319  1.0000
  H   H748      1.0  0.21583  0.77465  0.75180  1.0000
  H   H749      1.0  0.18586  0.73967  0.76193  1.0000
  C   C749      1.0  0.10323  0.96956  0.84522  1.0000
  H   H750      1.0  0.04496  0.86683  0.89595  1.0000
  C   C750      1.0  0.05018  0.85768  0.90681  1.0000
  N   N61       1.0  0.15622  0.93842  0.83789  1.0000
  C   C751      1.0  0.21007  0.77436  0.77903  1.0000
  H   H751      1.0  0.07814  0.85812  0.94859  1.0000
  C   C752      1.0  0.07875  0.88544  0.90971  1.0000
  C   C753      1.0  0.16117  0.94981  0.84431  1.0000
  N   N62       1.0  0.06080  0.86516  0.91360  1.0000
  H   H752      1.0  0.09528  0.77494  0.75290  1.0000
  H   H753      1.0  0.16266  0.91215  0.83534  1.0000
  C   C754      1.0  0.11249  0.76720  0.88054  1.0000
  C   C755      1.0  0.14669  0.94427  0.82536  1.0000
  S   S255      1.0  0.12003  0.75470  0.85085  1.0000
  H   H754      1.0  0.02707  0.77971  0.92773  1.0000
  C   C756      1.0  0.21566  0.76674  0.76463  1.0000
  C   C757      1.0  0.08061  0.74445  0.86603  1.0000
  Fe  Fe129     1.0  0.99806  0.80040  0.84573  1.0000
  H   H755      1.0  0.14196  0.93539  0.82086  1.0000
  H   H756      1.0  0.22515  0.74279  0.75576  1.0000
  H   H757      1.0  0.17148  0.91633  0.85124  1.0000
  C   C758      1.0  0.99954  0.79727  0.91604  1.0000
  C   C759      1.0  0.15694  0.96752  0.83789  1.0000
  H   H758      1.0  0.15309  0.76021  0.73889  1.0000
  H   H759      1.0  0.20518  0.77003  0.80662  1.0000
  C   C760      1.0  0.14672  0.83884  0.97106  1.0000
  C   C761      1.0  0.20965  0.76396  0.79551  1.0000
  C   C762      1.0  0.22035  0.73891  0.78351  1.0000
  C   C763      1.0  0.22092  0.74891  0.76684  1.0000
  H   H760      1.0  0.01386  0.76367  0.93680  1.0000
  H   H761      1.0  0.13356  0.75402  0.73894  1.0000
  H   H762      1.0  0.20584  0.78822  0.77753  1.0000
  S   S256      1.0  0.14066  0.74230  0.80537  1.0000
  H   H763      1.0  0.16494  0.78569  0.97376  1.0000
  H   H764      1.0  0.09491  0.97288  0.90222  1.0000
  N   N63       1.0  0.21452  0.74646  0.79758  1.0000
  H   H765      1.0  0.16036  0.97653  0.84345  1.0000
  H   H766      1.0  0.07007  0.74154  0.87725  1.0000
  C   C764      1.0  0.14735  0.97356  0.82503  1.0000
  C   C765      1.0  0.09073  0.73731  0.83731  1.0000
  H   H767      1.0  0.03050  0.76205  0.91752  1.0000
  H   H768      1.0  0.20615  0.74276  0.82506  1.0000
  H   H769      1.0  0.01008  0.76048  0.90144  1.0000
  H   H770      1.0  0.14317  0.73851  0.76861  1.0000
  N   N64       1.0  0.15215  0.80851  0.98305  1.0000
  C   C766      1.0  0.15262  0.79083  0.98200  1.0000
  Fe  Fe130     1.0  0.80825  0.13652  0.06823  1.0000
  S   S257      1.0  0.78350  0.14032  0.08761  1.0000
  S   S258      1.0  0.80770  0.14711  0.04010  1.0000
  Fe  Fe131     1.0  0.82833  0.11468  0.09536  1.0000
  S   S259      1.0  0.80492  0.11569  0.11666  1.0000
  S   S260      1.0  0.85282  0.09972  0.10370  1.0000
  Fe  Fe132     1.0  0.79148  0.11213  0.09770  1.0000
  S   S261      1.0  0.77200  0.09610  0.10105  1.0000
  Fe  Fe133     1.0  0.79928  0.14365  0.10465  1.0000
  C   C767      1.0  0.80730  0.13253  0.17650  1.0000
  S   S262      1.0  0.81557  0.10805  0.07753  1.0000
  S   S263      1.0  0.82345  0.14293  0.08413  1.0000
  S   S264      1.0  0.76795  0.10800  0.01083  1.0000
  Fe  Fe134     1.0  0.79814  0.01577  0.20230  1.0000
  S   S265      1.0  0.77159  0.02764  0.21468  1.0000
  H   H771      1.0  0.76187  0.98975  0.17320  1.0000
  Fe  Fe135     1.0  0.80840  0.05063  0.18722  1.0000
  S   S266      1.0  0.78254  0.06553  0.19778  1.0000
  S   S267      1.0  0.82993  0.06355  0.17100  1.0000
  Fe  Fe136     1.0  0.78449  0.04518  0.22172  1.0000
  S   S268      1.0  0.77738  0.05061  0.24846  1.0000
  Fe  Fe137     1.0  0.77230  0.04670  0.18965  1.0000
  S   S269      1.0  0.75062  0.05326  0.17587  1.0000
  S   S270      1.0  0.81118  0.03147  0.21174  1.0000
  S   S271      1.0  0.79795  0.03367  0.17677  1.0000
  C   C768      1.0  0.99013  0.16344  0.14635  1.0000
  Fe  Fe138     1.0  0.88387  0.14443  0.15685  1.0000
  S   S272      1.0  0.85928  0.14945  0.17597  1.0000
  S   S273      1.0  0.88363  0.14984  0.12868  1.0000
  Fe  Fe139     1.0  0.90622  0.13512  0.18338  1.0000
  S   S274      1.0  0.88353  0.13905  0.20524  1.0000
  S   S275      1.0  0.93443  0.12573  0.18461  1.0000
  Fe  Fe140     1.0  0.87070  0.12563  0.19295  1.0000
  S   S276      1.0  0.85204  0.10914  0.20967  1.0000
  Fe  Fe141     1.0  0.87348  0.16257  0.18689  1.0000
  S   S277      1.0  0.86107  0.18731  0.19594  1.0000
  S   S278      1.0  0.89431  0.11921  0.17273  1.0000
  S   S279      1.0  0.89728  0.15992  0.16601  1.0000
  Fe  Fe142     1.0  0.75221  0.15419  0.21579  1.0000
  S   S280      1.0  0.74325  0.14264  0.24361  1.0000
  H   H772      1.0  0.91273  0.09381  0.12833  1.0000
  Fe  Fe143     1.0  0.76787  0.17964  0.22457  1.0000
  S   S281      1.0  0.76066  0.16977  0.25307  1.0000
  C   C769      1.0  0.70707  0.19913  0.26964  1.0000
  Fe  Fe144     1.0  0.76935  0.14370  0.24617  1.0000
  S   S282      1.0  0.78557  0.12100  0.26036  1.0000
  Fe  Fe145     1.0  0.73528  0.16980  0.24766  1.0000
  H   H773      1.0  0.79814  0.15379  0.00728  1.0000
  S   S283      1.0  0.77891  0.15350  0.21817  1.0000
  C   C770      1.0  0.91937  0.10146  0.13239  1.0000
  H   H774      1.0  0.84835  0.19023  0.23283  1.0000
  C   C771      1.0  0.83656  0.18754  0.24255  1.0000
  C   C772      1.0  0.81763  0.11471  0.15523  1.0000
  C   C773      1.0  0.83848  0.19194  0.19962  1.0000
  C   C774      1.0  0.82946  0.20827  0.20236  1.0000
  C   C775      1.0  0.82439  0.06270  0.24951  1.0000
  C   C776      1.0  0.80235  0.19881  0.20889  1.0000
  C   C777      1.0  0.81133  0.18263  0.20576  1.0000
  C   C778      1.0  0.82935  0.17918  0.20122  1.0000
  H   H775      1.0  0.83645  0.21819  0.20117  1.0000
  H   H776      1.0  0.67595  0.22980  0.28748  1.0000
  H   H777      1.0  0.80448  0.17265  0.20711  1.0000
  H   H778      1.0  0.83612  0.16642  0.19970  1.0000
  C   C779      1.0  0.96500  0.15383  0.20426  1.0000
  C   C780      1.0  0.97284  0.13856  0.19836  1.0000
  C   C781      1.0  0.96328  0.13013  0.19245  1.0000
  C   C782      1.0  0.94577  0.13683  0.19236  1.0000
  C   C783      1.0  0.93790  0.15216  0.19817  1.0000
  C   C784      1.0  0.94749  0.16060  0.20413  1.0000
  N   N65       1.0  0.83699  0.07204  0.24562  1.0000
  H   H779      1.0  0.96948  0.11826  0.18806  1.0000
  H   H780      1.0  0.92441  0.15745  0.19817  1.0000
  H   H781      1.0  0.94131  0.17240  0.20866  1.0000
  C   C785      1.0  0.83557  0.07673  0.18156  1.0000
  C   C786      1.0  0.82578  0.07997  0.19753  1.0000
  C   C787      1.0  0.83042  0.09065  0.20571  1.0000
  C   C788      1.0  0.84512  0.09774  0.19818  1.0000
  C   C789      1.0  0.85472  0.09475  0.18208  1.0000
  C   C790      1.0  0.84995  0.08423  0.17381  1.0000
  H   H782      1.0  0.81463  0.07427  0.20355  1.0000
  H   H783      1.0  0.82274  0.09323  0.21800  1.0000
  H   H784      1.0  0.86604  0.10020  0.17616  1.0000
  H   H785      1.0  0.85756  0.08165  0.16153  1.0000
  C   C791      1.0  0.77968  0.07043  0.25112  1.0000
  C   C792      1.0  0.77702  0.07309  0.26787  1.0000
  C   C793      1.0  0.77903  0.08857  0.27059  1.0000
  C   C794      1.0  0.78313  0.10173  0.25658  1.0000
  C   C795      1.0  0.78566  0.09920  0.23976  1.0000
  C   C796      1.0  0.78414  0.08346  0.23703  1.0000
  H   H786      1.0  0.77358  0.06307  0.27881  1.0000
  H   H787      1.0  0.77709  0.09045  0.28360  1.0000
  H   H788      1.0  0.78899  0.10931  0.22886  1.0000
  H   H789      1.0  0.78627  0.08151  0.22406  1.0000
  H   H790      1.0  0.71149  0.22307  0.22510  1.0000
  C   C797      1.0  0.68862  0.22322  0.28203  1.0000
  C   C798      1.0  0.71932  0.22186  0.27261  1.0000
  C   C799      1.0  0.85427  0.05443  0.22554  1.0000
  C   C800      1.0  0.86224  0.11321  0.11029  1.0000
  C   C801      1.0  0.86802  0.10781  0.12581  1.0000
  C   C802      1.0  0.87420  0.11913  0.13187  1.0000
  C   C803      1.0  0.87522  0.13562  0.12201  1.0000
  C   C804      1.0  0.86992  0.14080  0.10626  1.0000
  C   C805      1.0  0.86319  0.12972  0.10054  1.0000
  H   H791      1.0  0.86730  0.09503  0.13331  1.0000
  H   H792      1.0  0.87828  0.11504  0.14404  1.0000
  H   H793      1.0  0.87079  0.15351  0.09855  1.0000
  H   H794      1.0  0.85903  0.13388  0.08841  1.0000
  C   C806      1.0  0.76567  0.08520  0.12224  1.0000
  C   C807      1.0  0.77522  0.08330  0.13470  1.0000
  C   C808      1.0  0.77064  0.07346  0.15123  1.0000
  C   C809      1.0  0.75628  0.06584  0.15541  1.0000
  C   C810      1.0  0.74657  0.06797  0.14305  1.0000
  C   C811      1.0  0.75137  0.07749  0.12642  1.0000
  H   H795      1.0  0.78633  0.08907  0.13156  1.0000
  H   H796      1.0  0.77821  0.07183  0.16074  1.0000
  H   H797      1.0  0.73550  0.06202  0.14626  1.0000
  H   H798      1.0  0.74401  0.07884  0.11680  1.0000
  C   C812      1.0  0.93575  0.10461  0.15152  1.0000
  C   C813      1.0  0.77311  0.14259  0.14622  1.0000
  C   C814      1.0  0.76336  0.13786  0.16283  1.0000
  H   H799      1.0  0.82666  0.09779  0.02193  1.0000
  C   C815      1.0  0.93528  0.12176  0.14301  1.0000
  C   C816      1.0  0.92664  0.14666  0.12105  1.0000
  H   H800      1.0  0.77460  0.13520  0.13658  1.0000
  H   H801      1.0  0.75752  0.12674  0.16593  1.0000
  C   C817      1.0  0.76862  0.16194  0.17126  1.0000
  H   H802      1.0  0.82612  0.19887  0.23984  1.0000
  C   C818      1.0  0.77990  0.11853  0.01825  1.0000
  C   C819      1.0  0.78553  0.13339  0.00821  1.0000
  C   C820      1.0  0.79392  0.14223  0.01503  1.0000
  C   C821      1.0  0.79673  0.13622  0.03188  1.0000
  C   C822      1.0  0.79112  0.12134  0.04185  1.0000
  C   C823      1.0  0.78285  0.11247  0.03502  1.0000
  S   S284      1.0  0.74185  0.18138  0.21946  1.0000
  S   S285      1.0  0.70952  0.17923  0.26411  1.0000
  H   H803      1.0  0.79291  0.11674  0.05492  1.0000
  H   H804      1.0  0.77845  0.10103  0.04287  1.0000
  H   H805      1.0  0.78376  0.17811  0.15134  1.0000
  H   H806      1.0  0.68595  0.23526  0.24481  1.0000
  N   N66       1.0  0.74487  0.12149  0.06272  1.0000
  C   C824      1.0  0.75135  0.13232  0.06838  1.0000
  C   C825      1.0  0.74144  0.12578  0.04652  1.0000
  C   C826      1.0  0.75442  0.14802  0.05777  1.0000
  C   C827      1.0  0.74425  0.14141  0.03562  1.0000
  C   C828      1.0  0.75088  0.15253  0.04128  1.0000
  C   C829      1.0  0.74291  0.10462  0.07361  1.0000
  H   H807      1.0  0.75454  0.12866  0.08103  1.0000
  H   H808      1.0  0.73718  0.11683  0.04163  1.0000
  H   H809      1.0  0.76002  0.15638  0.06209  1.0000
  H   H810      1.0  0.74212  0.14443  0.02257  1.0000
  H   H811      1.0  0.75378  0.16437  0.03271  1.0000
  H   H812      1.0  0.75547  0.09543  0.07193  1.0000
  H   H813      1.0  0.73872  0.10544  0.08746  1.0000
  H   H814      1.0  0.73317  0.09946  0.07033  1.0000
  C   C830      1.0  0.78050  0.15710  0.14204  1.0000
  S   S286      1.0  0.79288  0.16319  0.12136  1.0000
  H   H815      1.0  0.94188  0.09947  0.16253  1.0000
  H   H816      1.0  0.80023  0.13453  0.18920  1.0000
  C   C831      1.0  0.80853  0.11713  0.17161  1.0000
  H   H817      1.0  0.84345  0.09520  0.24716  1.0000
  H   H818      1.0  0.80455  0.22429  0.20928  1.0000
  C   C832      1.0  0.77816  0.16681  0.15456  1.0000
  C   C833      1.0  0.76110  0.14752  0.17537  1.0000
  C   C834      1.0  0.74137  0.07701  0.23522  1.0000
  H   H819      1.0  0.91253  0.12406  0.11356  1.0000
  H   H820      1.0  0.92059  0.15028  0.10963  1.0000
  H   H821      1.0  0.74664  0.10338  0.24329  1.0000
  C   C835      1.0  0.83431  0.08654  0.25405  1.0000
  H   H822      1.0  0.73046  0.22734  0.27091  1.0000
  H   H823      1.0  0.75715  0.11052  0.22138  1.0000
  N   N67       1.0  0.92718  0.12853  0.12944  1.0000
  H   H824      1.0  0.81895  0.10263  0.15142  1.0000
  S   S287      1.0  0.74881  0.14141  0.19606  1.0000
  C   C836      1.0  0.69069  0.20762  0.27689  1.0000
  H   H825      1.0  0.81379  0.15752  0.16855  1.0000
  C   C837      1.0  0.72137  0.20633  0.26744  1.0000
  C   C838      1.0  0.82494  0.12801  0.14374  1.0000
  H   H826      1.0  0.83167  0.12618  0.13091  1.0000
  C   C839      1.0  0.97771  0.16930  0.15992  1.0000
  H   H827      1.0  0.82113  0.09448  0.25400  1.0000
  N   N68       1.0  0.82331  0.14325  0.14848  1.0000
  C   C840      1.0  0.84492  0.15872  0.23583  1.0000
  C   C841      1.0  0.84094  0.14350  0.23471  1.0000
  C   C842      1.0  0.82384  0.14162  0.23931  1.0000
  H   H828      1.0  0.85820  0.16027  0.23181  1.0000
  H   H829      1.0  0.85100  0.13333  0.23005  1.0000
  H   H830      1.0  0.82052  0.13002  0.23820  1.0000
  H   H831      1.0  0.83878  0.18631  0.25563  1.0000
  C   C843      1.0  0.81495  0.14549  0.16475  1.0000
  H   H832      1.0  0.78391  0.05367  0.10850  1.0000
  C   C844      1.0  0.73792  0.06347  0.23010  1.0000
  C   C845      1.0  0.73444  0.06612  0.21376  1.0000
  H   H833      1.0  0.74410  0.07482  0.24793  1.0000
  H   H834      1.0  0.79476  0.03156  0.11405  1.0000
  H   H835      1.0  0.73820  0.05097  0.23868  1.0000
  H   H836      1.0  0.73178  0.05570  0.20960  1.0000
  H   H837      1.0  0.71728  0.18844  0.30592  1.0000
  C   C846      1.0  0.84126  0.04516  0.22906  1.0000
  H   H838      1.0  0.98626  0.13310  0.19852  1.0000
  H   H839      1.0  0.97124  0.18546  0.17845  1.0000
  C   C847      1.0  0.92770  0.09442  0.14618  1.0000
  H   H840      1.0  0.98808  0.15384  0.14055  1.0000
  C   C848      1.0  0.82913  0.10786  0.01067  1.0000
  H   H841      1.0  0.92766  0.08121  0.15293  1.0000
  C   C849      1.0  0.81143  0.21171  0.20696  1.0000
  H   H842      1.0  0.83595  0.08172  0.26758  1.0000
  H   H843      1.0  0.73403  0.19990  0.26185  1.0000
  H   H844      1.0  0.80438  0.09733  0.99548  1.0000
  H   H845      1.0  0.83773  0.12215  0.02448  1.0000
  H   H846      1.0  0.84333  0.15739  0.13923  1.0000
  S   S288      1.0  0.77993  0.20292  0.21621  1.0000
  H   H847      1.0  0.78054  0.04262  0.13053  1.0000
  N   N69       1.0  0.80498  0.04950  0.12101  1.0000
  C   C850      1.0  0.81035  0.06395  0.11076  1.0000
  C   C851      1.0  0.81318  0.03997  0.13394  1.0000
  C   C852      1.0  0.82378  0.06955  0.11385  1.0000
  C   C853      1.0  0.82655  0.04531  0.13747  1.0000
  C   C854      1.0  0.83174  0.06032  0.12744  1.0000
  C   C855      1.0  0.79038  0.04405  0.11831  1.0000
  H   H848      1.0  0.80404  0.07145  0.10036  1.0000
  H   H849      1.0  0.80914  0.02832  0.14181  1.0000
  H   H850      1.0  0.82787  0.08109  0.10590  1.0000
  H   H851      1.0  0.83263  0.03811  0.14816  1.0000
  H   H852      1.0  0.84184  0.06487  0.13026  1.0000
  C   C856      1.0  0.83095  0.15713  0.13629  1.0000
  H   H853      1.0  0.77808  0.00245  0.18669  1.0000
  C   C857      1.0  0.68661  0.17938  0.31491  1.0000
  H   H854      1.0  0.80249  0.10705  0.18049  1.0000
  N   N70       1.0  0.83216  0.17176  0.24127  1.0000
  H   H855      1.0  0.82198  0.16974  0.13693  1.0000
  H   H856      1.0  0.91872  0.15498  0.13021  1.0000
  C   C858      1.0  0.81538  0.16989  0.24612  1.0000
  C   C859      1.0  0.81099  0.15482  0.24520  1.0000
  H   H857      1.0  0.67957  0.20213  0.27848  1.0000
  C   C860      1.0  0.73624  0.22850  0.22304  1.0000
  N   N71       1.0  0.74155  0.09266  0.22427  1.0000
  H   H858      1.0  0.84191  0.14616  0.99940  1.0000
  C   C861      1.0  0.73478  0.08209  0.20263  1.0000
  H   H859      1.0  0.80521  0.18026  0.25029  1.0000
  H   H860      1.0  0.79769  0.15343  0.24884  1.0000
  C   C862      1.0  0.74510  0.10681  0.22969  1.0000
  H   H861      1.0  0.93982  0.14937  0.11678  1.0000
  H   H862      1.0  0.83332  0.15551  0.12276  1.0000
  H   H863      1.0  0.86201  0.07520  0.23100  1.0000
  C   C863      1.0  0.91930  0.11862  0.12407  1.0000
  H   H864      1.0  0.86585  0.05160  0.21587  1.0000
  C   C864      1.0  0.73847  0.09530  0.20809  1.0000
  H   H865      1.0  0.73438  0.11816  0.22836  1.0000
  H   H866      1.0  0.84275  0.03498  0.22225  1.0000
  H   H867      1.0  0.94115  0.12972  0.14756  1.0000
  H   H868      1.0  0.73248  0.08412  0.18973  1.0000
  H   H869      1.0  0.73890  0.10768  0.19934  1.0000
  H   H870      1.0  0.81269  0.06584  0.25888  1.0000
  N   N72       1.0  0.82566  0.10742  0.99537  1.0000
  H   H871      1.0  0.76683  0.16952  0.18084  1.0000
  C   C865      1.0  0.98084  0.18118  0.16770  1.0000
  S   S289      1.0  0.97704  0.16509  0.21098  1.0000
  C   C866      1.0  0.85200  0.06779  0.23414  1.0000
  H   H872      1.0  0.81599  0.04215  0.24407  1.0000
  C   C867      1.0  0.83542  0.12159  0.01220  1.0000
  C   C868      1.0  0.82626  0.04922  0.24122  1.0000
  H   H873      1.0  0.96592  0.16435  0.16476  1.0000
  H   H874      1.0  0.78297  0.13839  0.99541  1.0000
  H   H875      1.0  0.75910  0.23658  0.22329  1.0000
  C   C869      1.0  0.70297  0.23037  0.27983  1.0000
  C   C870      1.0  0.81854  0.09326  0.99408  1.0000
  C   C871      1.0  0.83768  0.13515  0.99812  1.0000
  H   H876      1.0  0.72477  0.21294  0.31276  1.0000
  H   H877      1.0  0.67377  0.18327  0.31139  1.0000
  H   H878      1.0  0.74329  0.21814  0.21640  1.0000
  C   C872      1.0  0.70754  0.19656  0.31375  1.0000
  H   H879      1.0  0.69594  0.17500  0.30357  1.0000
  C   C873      1.0  0.71827  0.23144  0.22792  1.0000
  H   H880      1.0  0.82132  0.08166  0.00420  1.0000
  C   C874      1.0  0.78212  0.98904  0.18579  1.0000
  S   S290      1.0  0.80691  0.98721  0.20360  1.0000
  C   C875      1.0  0.67873  0.20420  0.32884  1.0000
  C   C876      1.0  0.68270  0.21798  0.33311  1.0000
  H   H881      1.0  0.70251  0.23206  0.33010  1.0000
  C   C877      1.0  0.69936  0.22112  0.32731  1.0000
  H   H882      1.0  0.66569  0.20197  0.33325  1.0000
  H   H883      1.0  0.67287  0.22629  0.34071  1.0000
  N   N73       1.0  0.69104  0.19383  0.31910  1.0000
  H   H884      1.0  0.68650  0.16840  0.32610  1.0000
  C   C878      1.0  0.71190  0.21032  0.31765  1.0000
  H   H885      1.0  0.67668  0.23676  0.64414  1.0000
  Fe  Fe146     1.0  0.80166  0.10561  0.95146  1.0000
  H   H886      1.0  0.98553  0.09904  0.88462  1.0000
  S   S291      1.0  0.83042  0.10026  0.94426  1.0000
  Fe  Fe147     1.0  0.76842  0.13048  0.94647  1.0000
  S   S292      1.0  0.75248  0.11387  0.96705  1.0000
  S   S293      1.0  0.75436  0.15387  0.93083  1.0000
  H   H887      1.0  0.87155  0.03782  0.88359  1.0000
  Fe  Fe148     1.0  0.76950  0.09231  0.95478  1.0000
  S   S294      1.0  0.75649  0.07518  0.94731  1.0000
  S   S295      1.0  0.78733  0.12871  0.96264  1.0000
  S   S296      1.0  0.78433  0.10909  0.93332  1.0000
  S   S297      1.0  0.96427  0.15052  0.86237  1.0000
  Fe  Fe149     1.0  0.86776  0.13175  0.85709  1.0000
  S   S298      1.0  0.88319  0.10572  0.86590  1.0000
  S   S299      1.0  0.85510  0.15006  0.87490  1.0000
  Fe  Fe150     1.0  0.87045  0.12528  0.82162  1.0000
  S   S300      1.0  0.88636  0.09866  0.82740  1.0000
  S   S301      1.0  0.86361  0.13665  0.79560  1.0000
  Fe  Fe151     1.0  0.86759  0.09644  0.85277  1.0000
  S   S302      1.0  0.85506  0.07414  0.86715  1.0000
  Fe  Fe152     1.0  0.90048  0.11068  0.83987  1.0000
  S   S303      1.0  0.92941  0.10385  0.83679  1.0000
  S   S304      1.0  0.85066  0.12214  0.84607  1.0000
  S   S305      1.0  0.88616  0.13759  0.83194  1.0000
  H   H888      1.0  0.78860  0.14314  0.91237  1.0000
  Fe  Fe153     1.0  0.74373  0.17167  0.81099  1.0000
  S   S306      1.0  0.74397  0.14951  0.79963  1.0000
  S   S307      1.0  0.73261  0.19909  0.79914  1.0000
  Fe  Fe154     1.0  0.76544  0.14869  0.83678  1.0000
  S   S308      1.0  0.76688  0.12487  0.82755  1.0000
  S   S309      1.0  0.78358  0.14395  0.85446  1.0000
  Fe  Fe155     1.0  0.77169  0.14146  0.80137  1.0000
  S   S310      1.0  0.79304  0.13350  0.78004  1.0000
  Fe  Fe156     1.0  0.73905  0.13530  0.82715  1.0000
  S   S311      1.0  0.71854  0.11957  0.83596  1.0000
  S   S312      1.0  0.77214  0.16465  0.81044  1.0000
  S   S313      1.0  0.73690  0.15800  0.83870  1.0000
  Fe  Fe157     1.0  0.79349  0.01731  0.88443  1.0000
  S   S314      1.0  0.81187  0.00378  0.86442  1.0000
  S   S315      1.0  0.80506  0.02011  0.90531  1.0000
  Fe  Fe158     1.0  0.76486  0.02733  0.86431  1.0000
  S   S316      1.0  0.78132  0.01520  0.84233  1.0000
  S   S317      1.0  0.73731  0.03926  0.86315  1.0000
  C   C879      1.0  0.94232  0.10543  0.88885  1.0000
  Fe  Fe159     1.0  0.80180  0.02698  0.84585  1.0000
  S   S318      1.0  0.81953  0.04269  0.82622  1.0000
  S   S319      1.0  0.77188  0.00484  0.88523  1.0000
  S   S320      1.0  0.78440  0.04103  0.86593  1.0000
  H   H889      1.0  0.76823  0.19142  0.77767  1.0000
  C   C880      1.0  0.72414  0.09745  0.84419  1.0000
  C   C881      1.0  0.71189  0.08735  0.84715  1.0000
  C   C882      1.0  0.71600  0.06957  0.85326  1.0000
  C   C883      1.0  0.73239  0.06174  0.85649  1.0000
  C   C884      1.0  0.74454  0.07190  0.85396  1.0000
  C   C885      1.0  0.74043  0.08975  0.84782  1.0000
  H   H890      1.0  0.69921  0.09327  0.84452  1.0000
  H   H891      1.0  0.70650  0.06183  0.85529  1.0000
  H   H892      1.0  0.75715  0.06605  0.85652  1.0000
  H   H893      1.0  0.74987  0.09746  0.84587  1.0000
  C   C886      1.0  0.69303  0.20871  0.76557  1.0000
  H   H894      1.0  0.82869  0.17462  0.86084  1.0000
  H   H895      1.0  0.83763  0.03237  0.90532  1.0000
  C   C887      1.0  0.71668  0.20274  0.78701  1.0000
  C   C888      1.0  0.71007  0.18918  0.78564  1.0000
  C   C889      1.0  0.69830  0.19216  0.77498  1.0000
  H   H896      1.0  0.74157  0.11065  0.93346  1.0000
  H   H897      1.0  0.85787  0.02064  0.91110  1.0000
  H   H898      1.0  0.71408  0.17635  0.79274  1.0000
  H   H899      1.0  0.69342  0.18151  0.77386  1.0000
  C   C890      1.0  0.84399  0.06728  0.85538  1.0000
  C   C891      1.0  0.83341  0.05558  0.86425  1.0000
  C   C892      1.0  0.82602  0.04811  0.85524  1.0000
  C   C893      1.0  0.82867  0.05263  0.83728  1.0000
  C   C894      1.0  0.83872  0.06490  0.82834  1.0000
  C   C895      1.0  0.84642  0.07224  0.83741  1.0000
  H   H900      1.0  0.83141  0.05177  0.87812  1.0000
  H   H901      1.0  0.81889  0.03826  0.86228  1.0000
  H   H902      1.0  0.84087  0.06848  0.81443  1.0000
  H   H903      1.0  0.85459  0.08133  0.83047  1.0000
  C   C896      1.0  0.84435  0.13391  0.79196  1.0000
  C   C897      1.0  0.84258  0.13634  0.77493  1.0000
  C   C898      1.0  0.82700  0.13561  0.77140  1.0000
  C   C899      1.0  0.81287  0.13302  0.78485  1.0000
  C   C900      1.0  0.81454  0.13059  0.80195  1.0000
  C   C901      1.0  0.83037  0.13073  0.80551  1.0000
  H   H904      1.0  0.85332  0.13884  0.76441  1.0000
  H   H905      1.0  0.82582  0.13750  0.75818  1.0000
  H   H906      1.0  0.80370  0.12858  0.81245  1.0000
  H   H907      1.0  0.83155  0.12892  0.81869  1.0000
  C   C902      1.0  0.95475  0.13850  0.85380  1.0000
  C   C903      1.0  0.93675  0.14136  0.85657  1.0000
  C   C904      1.0  0.92881  0.13120  0.85084  1.0000
  C   C905      1.0  0.93887  0.11823  0.84216  1.0000
  C   C906      1.0  0.95687  0.11577  0.83888  1.0000
  C   C907      1.0  0.96478  0.12581  0.84475  1.0000
  H   H908      1.0  0.92890  0.15122  0.86347  1.0000
  H   H909      1.0  0.91493  0.13316  0.85347  1.0000
  H   H910      1.0  0.96469  0.10586  0.83203  1.0000
  H   H911      1.0  0.83098  0.11565  0.88435  1.0000
  C   C908      1.0  0.83756  0.11543  0.92621  1.0000
  C   C909      1.0  0.85480  0.11252  0.91765  1.0000
  C   C910      1.0  0.86032  0.12360  0.90220  1.0000
  C   C911      1.0  0.84865  0.13769  0.89536  1.0000
  C   C912      1.0  0.83152  0.14100  0.90427  1.0000
  C   C913      1.0  0.82596  0.12979  0.91966  1.0000
  H   H912      1.0  0.86380  0.10142  0.92268  1.0000
  H   H913      1.0  0.87363  0.12122  0.89556  1.0000
  H   H914      1.0  0.82243  0.15184  0.89899  1.0000
  H   H915      1.0  0.81264  0.13210  0.92630  1.0000
  C   C914      1.0  0.77026  0.06017  0.93546  1.0000
  C   C915      1.0  0.78739  0.05405  0.93712  1.0000
  C   C916      1.0  0.79799  0.04151  0.92803  1.0000
  C   C917      1.0  0.79161  0.03547  0.91691  1.0000
  C   C918      1.0  0.77460  0.04188  0.91497  1.0000
  C   C919      1.0  0.76387  0.05403  0.92443  1.0000
  H   H916      1.0  0.79229  0.05862  0.94579  1.0000
  H   H917      1.0  0.81108  0.03644  0.92970  1.0000
  H   H918      1.0  0.76956  0.03715  0.90653  1.0000
  H   H919      1.0  0.75059  0.05857  0.92327  1.0000
  C   C920      1.0  0.76266  0.15360  0.90894  1.0000
  C   C921      1.0  0.75172  0.15887  0.89716  1.0000
  C   C922      1.0  0.75807  0.15635  0.88015  1.0000
  C   C923      1.0  0.77535  0.14876  0.87498  1.0000
  C   C924      1.0  0.78641  0.14442  0.88650  1.0000
  C   C925      1.0  0.78004  0.14672  0.90346  1.0000
  H   H920      1.0  0.73828  0.16439  0.90135  1.0000
  H   H921      1.0  0.74957  0.16009  0.87115  1.0000
  H   H922      1.0  0.75856  0.05041  0.82086  1.0000
  H   H923      1.0  0.83246  0.16643  0.80228  1.0000
  H   H924      1.0  0.92988  0.09281  0.87691  1.0000
  C   C926      1.0  0.97362  0.17517  0.90140  1.0000
  H   H925      1.0  0.98837  0.20131  0.85594  1.0000
  H   H926      1.0  0.96996  0.16736  0.91407  1.0000
  H   H927      1.0  0.76713  0.15712  0.76073  1.0000
  H   H928      1.0  0.95711  0.07603  0.86328  1.0000
  C   C927      1.0  0.97332  0.09739  0.88320  1.0000
  H   H929      1.0  0.85005  0.00573  0.85302  1.0000
  C   C928      1.0  0.74326  0.99259  0.86419  1.0000
  C   C929      1.0  0.95750  0.08430  0.87154  1.0000
  H   H930      1.0  0.79990  0.13909  0.88242  1.0000
  H   H931      1.0  0.83905  0.00457  0.88434  1.0000
  H   H932      1.0  0.73741  0.99577  0.87712  1.0000
  H   H933      1.0  0.62017  0.21284  0.78213  1.0000
  N   N74       1.0  0.85529  0.02042  0.88594  1.0000
  C   C930      1.0  0.85528  0.01229  0.85979  1.0000
  C   C931      1.0  0.86736  0.03010  0.87713  1.0000
  H   H934      1.0  0.93042  0.11343  0.89419  1.0000
  C   C932      1.0  0.87369  0.03110  0.85941  1.0000
  C   C933      1.0  0.81568  0.16855  0.84422  1.0000
  C   C934      1.0  0.69923  0.22243  0.76725  1.0000
  S   S321      1.0  0.78848  0.08648  0.97182  1.0000
  C   C935      1.0  0.74525  0.16804  0.74891  1.0000
  C   C936      1.0  0.73405  0.18314  0.74321  1.0000
  C   C937      1.0  0.94199  0.09378  0.87924  1.0000
  C   C938      1.0  0.84914  0.01166  0.87749  1.0000
  C   C939      1.0  0.71104  0.21943  0.77797  1.0000
  N   N75       1.0  0.73484  0.11091  0.90975  1.0000
  C   C940      1.0  0.73402  0.11920  0.89315  1.0000
  C   C941      1.0  0.72940  0.09566  0.91644  1.0000
  C   C942      1.0  0.72755  0.11229  0.88280  1.0000
  C   C943      1.0  0.72305  0.08828  0.90640  1.0000
  C   C944      1.0  0.72206  0.09671  0.88951  1.0000
  C   C945      1.0  0.74170  0.11850  0.92021  1.0000
  H   H935      1.0  0.73832  0.13128  0.88787  1.0000
  H   H936      1.0  0.72994  0.08909  0.92961  1.0000
  H   H937      1.0  0.72675  0.11897  0.86968  1.0000
  H   H938      1.0  0.71892  0.07610  0.91171  1.0000
  H   H939      1.0  0.71701  0.09117  0.88164  1.0000
  H   H940      1.0  0.75524  0.11959  0.91413  1.0000
  H   H941      1.0  0.73395  0.13154  0.92146  1.0000
  H   H942      1.0  0.65611  0.20614  0.78608  1.0000
  H   H943      1.0  0.80429  0.16680  0.85420  1.0000
  H   H944      1.0  0.81425  0.11529  0.86330  1.0000
  N   N76       1.0  0.78292  0.08085  0.80509  1.0000
  S   S322      1.0  0.67884  0.21140  0.75182  1.0000
  H   H945      1.0  0.77350  0.10757  0.79632  1.0000
  H   H946      1.0  0.80321  0.09491  0.79346  1.0000
  C   C946      1.0  0.82374  0.10561  0.88672  1.0000
  H   H947      1.0  0.88264  0.03945  0.85237  1.0000
  C   C947      1.0  0.82936  0.17303  0.84793  1.0000
  N   N77       1.0  0.76023  0.18439  0.75832  1.0000
  C   C948      1.0  0.81431  0.10530  0.87489  1.0000
  C   C949      1.0  0.83162  0.16848  0.81504  1.0000
  H   H948      1.0  0.83171  0.09248  0.91052  1.0000
  H   H949      1.0  0.95458  0.16974  0.89080  1.0000
  C   C950      1.0  0.74930  0.19925  0.75278  1.0000
  C   C951      1.0  0.65110  0.21935  0.78766  1.0000
  C   C952      1.0  0.82412  0.09266  0.90146  1.0000
  C   C953      1.0  0.80071  0.08280  0.80264  1.0000
  H   H950      1.0  0.80996  0.07196  0.79739  1.0000
  C   C954      1.0  0.77034  0.09496  0.80144  1.0000
  H   H951      1.0  0.74315  0.10467  0.80205  1.0000
  H   H952      1.0  0.86438  0.18754  0.80558  1.0000
  C   C955      1.0  0.81493  0.07973  0.90436  1.0000
  N   N78       1.0  0.84491  0.17312  0.81874  1.0000
  H   H953      1.0  0.80345  0.08288  0.81519  1.0000
  H   H954      1.0  0.97863  0.12376  0.84218  1.0000
  H   H955      1.0  0.81523  0.06965  0.91581  1.0000
  C   C956      1.0  0.75319  0.09338  0.80446  1.0000
  N   N79       1.0  0.80536  0.09253  0.87779  1.0000
  C   C957      1.0  0.62855  0.22100  0.77246  1.0000
  H   H956      1.0  0.71605  0.23001  0.77904  1.0000
  C   C958      1.0  0.77393  0.18531  0.76627  1.0000
  C   C959      1.0  0.80558  0.07981  0.89230  1.0000
  H   H957      1.0  0.78927  0.10518  0.85986  1.0000
  C   C960      1.0  0.84789  0.02067  0.90419  1.0000
  H   H958      1.0  0.96387  0.18681  0.86170  1.0000
  H   H959      1.0  0.80640  0.16214  0.82485  1.0000
  C   C961      1.0  0.77883  0.06500  0.81193  1.0000
  C   C962      1.0  0.74896  0.07723  0.81121  1.0000
  C   C963      1.0  0.97021  0.18615  0.87201  1.0000
  C   C964      1.0  0.81683  0.16607  0.82772  1.0000
  N   N80       1.0  0.97289  0.08608  0.87370  1.0000
  H   H960      1.0  0.80583  0.08722  0.85375  1.0000
  H   H961      1.0  0.79873  0.06949  0.89453  1.0000
  H   H962      1.0  0.78870  0.05385  0.81512  1.0000
  H   H963      1.0  0.73565  0.07589  0.81405  1.0000
  C   C965      1.0  0.76183  0.06293  0.81505  1.0000
  H   H964      1.0  0.78683  0.08354  0.87000  1.0000
  C   C966      1.0  0.79633  0.09207  0.86472  1.0000
  H   H965      1.0  0.78157  0.17235  0.77071  1.0000
  H   H966      1.0  0.87183  0.02338  0.83685  1.0000
  C   C967      1.0  0.96501  0.17651  0.88839  1.0000
  Fe  Fe160     1.0  0.66776  0.23681  0.73595  1.0000
  H   H967      1.0  0.63829  0.21294  0.76396  1.0000
  C   C968      1.0  0.86754  0.02218  0.85070  1.0000
  H   H968      1.0  0.74365  0.15572  0.74769  1.0000
  C   C969      1.0  0.95807  0.10727  0.89087  1.0000
  H   H969      1.0  0.82414  0.08946  0.98139  1.0000
  H   H970      1.0  0.85492  0.17791  0.83827  1.0000
  H   H971      1.0  0.85809  0.17691  0.79224  1.0000
  N   N81       1.0  0.63707  0.22889  0.78118  1.0000
  C   C970      1.0  0.84410  0.17500  0.83505  1.0000
  C   C971      1.0  0.86032  0.17572  0.80534  1.0000
  H   H972      1.0  0.75043  0.21145  0.75476  1.0000
  H   H973      1.0  0.87098  0.16450  0.80735  1.0000
  H   H974      1.0  0.95852  0.11668  0.89784  1.0000
  C   C972      1.0  0.73619  0.19886  0.74497  1.0000
  H   H975      1.0  0.75747  0.99061  0.86215  1.0000
  C   C973      1.0  0.98911  0.07684  0.86479  1.0000
  C   C974      1.0  0.75845  0.16892  0.75635  1.0000
  C   C975      1.0  0.98407  0.19429  0.86884  1.0000
  H   H976      1.0  0.72354  0.18269  0.73769  1.0000
  C   C976      1.0  0.98735  0.18358  0.89782  1.0000
  Fe  Fe161     1.0  0.78953  0.99325  0.86332  1.0000
  H   H977      1.0  0.69514  0.23526  0.76013  1.0000
  H   H978      1.0  0.72739  0.21064  0.74079  1.0000
  H   H979      1.0  0.83541  0.14524  0.97162  1.0000
  H   H980      1.0  0.98736  0.06519  0.86146  1.0000
  H   H981      1.0  0.84195  0.00930  0.91078  1.0000
  H   H982      1.0  0.72978  0.98819  0.83949  1.0000
  H   H983      1.0  0.78290  0.19303  0.75688  1.0000
  H   H984      1.0  0.62054  0.23089  0.76409  1.0000
  H   H985      1.0  0.73881  0.00396  0.85448  1.0000
  C   C977      1.0  0.82785  0.12065  0.98148  1.0000
  Fe  Fe162     1.0  0.77292  0.10988  0.98209  1.0000
  S   S323      1.0  0.64474  0.23510  0.72698  1.0000
  C   C978      1.0  0.65966  0.22663  0.79578  1.0000
  H   H986      1.0  0.67114  0.21914  0.80037  1.0000
  H   H987      1.0  0.82475  0.12049  0.96945  1.0000
  C   C979      1.0  0.83391  0.13469  0.98262  1.0000
  H   H988      1.0  0.62804  0.35337  0.29150  1.0000
  S   S324      1.0  0.70105  0.25015  0.28534  1.0000
  C   C980      1.0  0.73601  0.25225  0.23539  1.0000
  C   C981      1.0  0.58301  0.33725  0.29098  1.0000
  H   H989      1.0  0.74279  0.26036  0.23859  1.0000
  C   C982      1.0  0.64661  0.33674  0.30594  1.0000
  Fe  Fe163     1.0  0.67636  0.26242  0.30136  1.0000
  S   S325      1.0  0.66360  0.28975  0.29209  1.0000
  S   S326      1.0  0.61508  0.29048  0.29469  1.0000
  C   C983      1.0  0.63550  0.35231  0.30095  1.0000
  N   N82       1.0  0.70942  0.24444  0.23640  1.0000
  C   C984      1.0  0.71803  0.25493  0.23997  1.0000
  H   H990      1.0  0.59567  0.36144  0.29753  1.0000
  H   H991      1.0  0.57904  0.30122  0.29502  1.0000
  C   C985      1.0  0.69057  0.24758  0.24104  1.0000
  C   C986      1.0  0.74514  0.23893  0.22688  1.0000
  S   S327      1.0  0.65166  0.25277  0.31280  1.0000
  H   H992      1.0  0.62569  0.47810  0.30744  1.0000
  H   H993      1.0  0.68509  0.25589  0.22997  1.0000
  C   C987      1.0  0.59025  0.35295  0.30903  1.0000
  N   N83       1.0  0.58314  0.34002  0.30789  1.0000
  H   H994      1.0  0.57054  0.33413  0.29119  1.0000
  Fe  Fe164     1.0  0.63902  0.28057  0.30548  1.0000
  S   S328      1.0  0.61895  0.38535  0.30324  1.0000
  H   H995      1.0  0.71103  0.26515  0.24685  1.0000
  H   H996      1.0  0.59373  0.32648  0.28754  1.0000
  H   H997      1.0  0.58448  0.34896  0.28078  1.0000
  H   H998      1.0  0.64758  0.32580  0.30044  1.0000
  C   C988      1.0  0.58079  0.29031  0.30549  1.0000
  H   H999      1.0  0.68555  0.25397  0.25231  1.0000
  H   H1000     1.0  0.54968  0.37773  0.31301  1.0000
  H   H1001     1.0  0.55361  0.29113  0.31480  1.0000
  C   C989      1.0  0.63387  0.36638  0.30838  1.0000
  C   C990      1.0  0.59737  0.28214  0.30800  1.0000
  C   C991      1.0  0.56638  0.28453  0.31663  1.0000
  Fe  Fe165     1.0  0.64551  0.30685  0.59556  1.0000
  S   S329      1.0  0.62043  0.31130  0.61414  1.0000
  S   S330      1.0  0.66914  0.29309  0.60596  1.0000
  Fe  Fe166     1.0  0.62948  0.32270  0.56424  1.0000
  S   S331      1.0  0.60302  0.32891  0.58043  1.0000
  S   S332      1.0  0.63191  0.33005  0.53535  1.0000
  Fe  Fe167     1.0  0.61588  0.33726  0.59701  1.0000
  S   S333      1.0  0.60239  0.35923  0.61041  1.0000
  Fe  Fe168     1.0  0.61008  0.30251  0.59591  1.0000
  S   S334      1.0  0.59203  0.28420  0.60557  1.0000
  S   S335      1.0  0.64192  0.33361  0.57942  1.0000
  S   S336      1.0  0.63564  0.29554  0.57876  1.0000
  Fe  Fe169     1.0  0.58568  0.28813  0.44848  1.0000
  S   S337      1.0  0.59453  0.30968  0.42794  1.0000
  S   S338      1.0  0.56740  0.27342  0.44546  1.0000
  Fe  Fe170     1.0  0.60712  0.29086  0.47260  1.0000
  S   S339      1.0  0.61806  0.31244  0.45380  1.0000
  S   S340      1.0  0.61412  0.27963  0.49861  1.0000
  Fe  Fe171     1.0  0.59111  0.32251  0.44995  1.0000
  S   S341      1.0  0.57949  0.35035  0.44760  1.0000
  Fe  Fe172     1.0  0.62052  0.29735  0.43378  1.0000
  S   S342      1.0  0.64362  0.29639  0.41207  1.0000
  S   S343      1.0  0.57975  0.30215  0.47018  1.0000
  S   S344      1.0  0.61211  0.27460  0.45285  1.0000
  H   H1002     1.0  0.56592  0.36258  0.61283  1.0000
  Fe  Fe173     1.0  0.61289  0.39666  0.36232  1.0000
  C   C992      1.0  0.60308  0.28014  0.64757  1.0000
  S   S345      1.0  0.62841  0.38551  0.38281  1.0000
  C   C993      1.0  0.51882  0.34201  0.42172  1.0000
  C   C994      1.0  0.62576  0.48354  0.35123  1.0000
  C   C995      1.0  0.59717  0.48352  0.34813  1.0000
  H   H1003     1.0  0.63554  0.45070  0.39021  1.0000
  S   S346      1.0  0.55529  0.38484  0.36896  1.0000
  H   H1004     1.0  0.66286  0.24522  0.47449  1.0000
  S   S347      1.0  0.58712  0.41380  0.36859  1.0000
  C   C996      1.0  0.63636  0.25702  0.39497  1.0000
  C   C997      1.0  0.63156  0.46715  0.34720  1.0000
  Fe  Fe174     1.0  0.57789  0.39759  0.35602  1.0000
  C   C998      1.0  0.65133  0.25503  0.47163  1.0000
  H   H1005     1.0  0.63333  0.42558  0.38306  1.0000
  C   C999      1.0  0.66264  0.29702  0.44624  1.0000
  Fe  Fe175     1.0  0.51335  0.30833  0.37489  1.0000
  S   S348      1.0  0.51088  0.31223  0.40163  1.0000
  Fe  Fe176     1.0  0.59472  0.42898  0.34197  1.0000
  S   S349      1.0  0.53821  0.30679  0.35568  1.0000
  C   C1000     1.0  0.64937  0.33895  0.38673  1.0000
  S   S350      1.0  0.53437  0.34785  0.32090  1.0000
  C   C1001     1.0  0.54719  0.37314  0.32684  1.0000
  H   H1006     1.0  0.50882  0.35043  0.38792  1.0000
  C   C1002     1.0  0.65939  0.29622  0.47650  1.0000
  H   H1007     1.0  0.57089  0.27663  0.63937  1.0000
  C   C1003     1.0  0.54907  0.37522  0.35531  1.0000
  H   H1008     1.0  0.62991  0.24628  0.40002  1.0000
  H   H1009     1.0  0.52198  0.37975  0.39417  1.0000
  C   C1004     1.0  0.55081  0.29919  0.64151  1.0000
  S   S351      1.0  0.67872  0.26729  0.32625  1.0000
  H   H1010     1.0  0.57019  0.32385  0.35028  1.0000
  C   C1005     1.0  0.61920  0.42923  0.38384  1.0000
  C   C1006     1.0  0.64369  0.36502  0.32043  1.0000
  S   S352      1.0  0.49861  0.32855  0.35714  1.0000
  S   S353      1.0  0.50577  0.28646  0.36893  1.0000
  H   H1011     1.0  0.60067  0.25717  0.39804  1.0000
  H   H1012     1.0  0.53489  0.32923  0.44024  1.0000
  H   H1013     1.0  0.68722  0.30875  0.62159  1.0000
  C   C1007     1.0  0.57647  0.32932  0.32248  1.0000
  C   C1008     1.0  0.56853  0.27001  0.32979  1.0000
  C   C1009     1.0  0.62016  0.45896  0.34366  1.0000
  H   H1014     1.0  0.64491  0.46083  0.34668  1.0000
  C   C1010     1.0  0.57092  0.27172  0.37358  1.0000
  C   C1011     1.0  0.66275  0.30493  0.45937  1.0000
  S   S354      1.0  0.64840  0.38300  0.64745  1.0000
  C   C1012     1.0  0.55214  0.28457  0.43281  1.0000
  C   C1013     1.0  0.53603  0.28001  0.43726  1.0000
  C   C1014     1.0  0.52366  0.28819  0.42727  1.0000
  C   C1015     1.0  0.52748  0.30057  0.41239  1.0000
  C   C1016     1.0  0.54370  0.30502  0.40766  1.0000
  C   C1017     1.0  0.55600  0.29711  0.41797  1.0000
  H   H1015     1.0  0.53300  0.27030  0.44866  1.0000
  H   H1016     1.0  0.51103  0.28498  0.43116  1.0000
  H   H1017     1.0  0.54657  0.31488  0.39636  1.0000
  H   H1018     1.0  0.56851  0.30050  0.41430  1.0000
  C   C1018     1.0  0.59300  0.36074  0.43007  1.0000
  C   C1019     1.0  0.61002  0.36014  0.43069  1.0000
  C   C1020     1.0  0.62093  0.36796  0.41623  1.0000
  C   C1021     1.0  0.61492  0.37593  0.40107  1.0000
  C   C1022     1.0  0.59809  0.37594  0.40038  1.0000
  C   C1023     1.0  0.58709  0.36859  0.41490  1.0000
  H   H1019     1.0  0.61469  0.35385  0.44238  1.0000
  H   H1020     1.0  0.63399  0.36779  0.41679  1.0000
  H   H1021     1.0  0.59349  0.38138  0.38862  1.0000
  H   H1022     1.0  0.57414  0.36870  0.41419  1.0000
  C   C1024     1.0  0.64434  0.28199  0.39919  1.0000
  C   C1025     1.0  0.65406  0.28407  0.38235  1.0000
  C   C1026     1.0  0.65429  0.27321  0.37159  1.0000
  C   C1027     1.0  0.62192  0.45581  0.39068  1.0000
  C   C1028     1.0  0.55785  0.26022  0.40279  1.0000
  C   C1029     1.0  0.63540  0.26847  0.40551  1.0000
  H   H1023     1.0  0.66132  0.29422  0.37749  1.0000
  H   H1024     1.0  0.66150  0.27531  0.35850  1.0000
  H   H1025     1.0  0.57114  0.38514  0.62249  1.0000
  H   H1026     1.0  0.62802  0.26662  0.41857  1.0000
  C   C1030     1.0  0.57247  0.29546  0.61558  1.0000
  C   C1031     1.0  0.56514  0.28908  0.63270  1.0000
  S   S355      1.0  0.64544  0.24629  0.36413  1.0000
  C   C1032     1.0  0.54333  0.31532  0.63296  1.0000
  C   C1033     1.0  0.55008  0.32123  0.61554  1.0000
  C   C1034     1.0  0.56489  0.31149  0.60697  1.0000
  H   H1027     1.0  0.59931  0.28811  0.63592  1.0000
  H   H1028     1.0  0.58696  0.44606  0.38445  1.0000
  H   H1029     1.0  0.54414  0.33353  0.60877  1.0000
  H   H1030     1.0  0.57041  0.31641  0.59370  1.0000
  C   C1035     1.0  0.61552  0.36582  0.62032  1.0000
  C   C1036     1.0  0.63342  0.36317  0.61449  1.0000
  C   C1037     1.0  0.64350  0.36898  0.62245  1.0000
  C   C1038     1.0  0.63576  0.37703  0.63650  1.0000
  H   H1031     1.0  0.65866  0.27461  0.44016  1.0000
  C   C1039     1.0  0.60784  0.37413  0.63416  1.0000
  H   H1032     1.0  0.63944  0.35701  0.60363  1.0000
  H   H1033     1.0  0.65726  0.36732  0.61771  1.0000
  C   C1040     1.0  0.66989  0.32723  0.63562  1.0000
  C   C1041     1.0  0.60201  0.27091  0.36469  1.0000
  C   C1042     1.0  0.66457  0.27885  0.62573  1.0000
  C   C1043     1.0  0.67286  0.26159  0.62723  1.0000
  C   C1044     1.0  0.55587  0.39470  0.64494  1.0000
  H   H1034     1.0  0.56215  0.40550  0.64242  1.0000
  C   C1045     1.0  0.65393  0.28476  0.64031  1.0000
  H   H1035     1.0  0.62647  0.27211  0.62016  1.0000
  H   H1036     1.0  0.68116  0.25700  0.61602  1.0000
  C   C1046     1.0  0.59027  0.35576  0.32511  1.0000
  S   S356      1.0  0.51630  0.30515  0.32758  1.0000
  H   H1037     1.0  0.61315  0.41951  0.39414  1.0000
  C   C1047     1.0  0.62825  0.31553  0.52485  1.0000
  C   C1048     1.0  0.62809  0.29835  0.53294  1.0000
  C   C1049     1.0  0.62404  0.28734  0.52465  1.0000
  C   C1050     1.0  0.61991  0.29352  0.50834  1.0000
  C   C1051     1.0  0.62035  0.31061  0.50013  1.0000
  C   C1052     1.0  0.62471  0.32151  0.50829  1.0000
  H   H1038     1.0  0.63105  0.29354  0.54559  1.0000
  H   H1039     1.0  0.62386  0.27409  0.53102  1.0000
  H   H1040     1.0  0.61706  0.31557  0.48765  1.0000
  H   H1041     1.0  0.62480  0.33480  0.50197  1.0000
  C   C1053     1.0  0.58314  0.34521  0.34006  1.0000
  N   N84       1.0  0.63705  0.33342  0.38028  1.0000
  Fe  Fe177     1.0  0.52959  0.28672  0.34787  1.0000
  C   C1054     1.0  0.62018  0.33510  0.38872  1.0000
  C   C1055     1.0  0.54119  0.36105  0.36250  1.0000
  C   C1056     1.0  0.60830  0.33005  0.38251  1.0000
  C   C1057     1.0  0.61380  0.32326  0.36759  1.0000
  C   C1058     1.0  0.59481  0.45325  0.38749  1.0000
  H   H1042     1.0  0.66772  0.33670  0.62407  1.0000
  H   H1043     1.0  0.61588  0.34017  0.40043  1.0000
  S   S357      1.0  0.63812  0.28713  0.33053  1.0000
  H   H1044     1.0  0.59497  0.33136  0.38934  1.0000
  H   H1045     1.0  0.60487  0.31903  0.36271  1.0000
  N   N85       1.0  0.61544  0.26545  0.64688  1.0000
  H   H1046     1.0  0.55818  0.39221  0.33175  1.0000
  H   H1047     1.0  0.65579  0.32590  0.35866  1.0000
  C   C1059     1.0  0.55897  0.35695  0.62578  1.0000
  H   H1048     1.0  0.65113  0.35201  0.37942  1.0000
  N   N86       1.0  0.58663  0.26786  0.37796  1.0000
  H   H1049     1.0  0.53942  0.35586  0.37616  1.0000
  H   H1050     1.0  0.56959  0.27764  0.36048  1.0000
  H   H1051     1.0  0.63543  0.31677  0.34723  1.0000
  C   C1060     1.0  0.62372  0.26062  0.63020  1.0000
  C   C1061     1.0  0.64244  0.32715  0.36543  1.0000
  H   H1052     1.0  0.65293  0.27315  0.49361  1.0000
  C   C1062     1.0  0.53742  0.36789  0.41313  1.0000
  S   S358      1.0  0.60315  0.37927  0.35188  1.0000
  C   C1063     1.0  0.61492  0.47231  0.39411  1.0000
  C   C1064     1.0  0.69518  0.28257  0.64729  1.0000
  N   N87       1.0  0.51524  0.35603  0.40901  1.0000
  C   C1065     1.0  0.50246  0.35668  0.39913  1.0000
  H   H1053     1.0  0.58685  0.25017  0.34213  1.0000
  C   C1066     1.0  0.54117  0.35362  0.42608  1.0000
  H   H1054     1.0  0.64483  0.33935  0.40064  1.0000
  H   H1055     1.0  0.64717  0.25227  0.46092  1.0000
  N   N88       1.0  0.68341  0.29911  0.64879  1.0000
  H   H1056     1.0  0.65926  0.30229  0.48686  1.0000
  C   C1067     1.0  0.53609  0.35310  0.35199  1.0000
  H   H1057     1.0  0.66328  0.34889  0.33379  1.0000
  Fe  Fe178     1.0  0.65290  0.26031  0.33688  1.0000
  C   C1068     1.0  0.65888  0.28057  0.45047  1.0000
  C   C1069     1.0  0.63094  0.32190  0.35892  1.0000
  C   C1070     1.0  0.52436  0.36888  0.40465  1.0000
  H   H1058     1.0  0.66529  0.31783  0.45630  1.0000
  N   N89       1.0  0.58536  0.30742  0.54424  1.0000
  C   C1071     1.0  0.58655  0.32438  0.53992  1.0000
  C   C1072     1.0  0.58034  0.30032  0.53342  1.0000
  C   C1073     1.0  0.58312  0.33457  0.52421  1.0000
  C   C1074     1.0  0.57683  0.31014  0.51760  1.0000
  C   C1075     1.0  0.57829  0.32736  0.51296  1.0000
  C   C1076     1.0  0.58899  0.29692  0.56076  1.0000
  H   H1059     1.0  0.59079  0.32998  0.54833  1.0000
  H   H1060     1.0  0.57957  0.28684  0.53671  1.0000
  H   H1061     1.0  0.58473  0.34783  0.52058  1.0000
  H   H1062     1.0  0.57351  0.30425  0.50880  1.0000
  H   H1063     1.0  0.57605  0.33498  0.50051  1.0000
  H   H1064     1.0  0.59419  0.28320  0.55991  1.0000
  H   H1065     1.0  0.59891  0.30120  0.56471  1.0000
  H   H1066     1.0  0.57709  0.29779  0.57100  1.0000
  C   C1077     1.0  0.57632  0.33178  0.33879  1.0000
  H   H1067     1.0  0.51173  0.33173  0.42508  1.0000
  C   C1078     1.0  0.53924  0.35898  0.33412  1.0000
  H   H1068     1.0  0.58235  0.34793  0.35254  1.0000
  C   C1079     1.0  0.60296  0.46722  0.34400  1.0000
  H   H1069     1.0  0.54481  0.37799  0.40932  1.0000
  S   S359      1.0  0.58851  0.45784  0.33881  1.0000
  C   C1080     1.0  0.68092  0.31134  0.63431  1.0000
  H   H1070     1.0  0.64759  0.29815  0.63922  1.0000
  H   H1071     1.0  0.59873  0.28083  0.35332  1.0000
  C   C1081     1.0  0.53186  0.34055  0.43040  1.0000
  H   H1072     1.0  0.66196  0.32980  0.38534  1.0000
  C   C1082     1.0  0.55210  0.38127  0.33743  1.0000
  Fe  Fe179     1.0  0.52300  0.32534  0.33729  1.0000
  H   H1073     1.0  0.54391  0.27091  0.38226  1.0000
  H   H1074     1.0  0.69695  0.27963  0.63436  1.0000
  H   H1075     1.0  0.66508  0.30368  0.43286  1.0000
  H   H1076     1.0  0.54762  0.35323  0.62391  1.0000
  C   C1083     1.0  0.55631  0.26794  0.38588  1.0000
  H   H1077     1.0  0.59411  0.37610  0.63891  1.0000
  C   C1084     1.0  0.64554  0.25958  0.37787  1.0000
  H   H1078     1.0  0.49621  0.37014  0.39433  1.0000
  H   H1079     1.0  0.61692  0.42848  0.37131  1.0000
  C   C1085     1.0  0.58515  0.26142  0.33196  1.0000
  S   S360      1.0  0.62140  0.41300  0.33649  1.0000
  C   C1086     1.0  0.58825  0.26027  0.39453  1.0000
  H   H1080     1.0  0.49220  0.34968  0.40711  1.0000
  H   H1081     1.0  0.55136  0.35261  0.43267  1.0000
  N   N90       1.0  0.65522  0.27228  0.46732  1.0000
  H   H1082     1.0  0.64253  0.37589  0.32612  1.0000
  C   C1087     1.0  0.65577  0.27975  0.48024  1.0000
  H   H1083     1.0  0.64055  0.25387  0.48306  1.0000
  C   C1088     1.0  0.61789  0.37970  0.64221  1.0000
  S   S361      1.0  0.58271  0.41455  0.32984  1.0000
  S   S362      1.0  0.67015  0.31598  0.32464  1.0000
  H   H1084     1.0  0.60881  0.25878  0.36019  1.0000
  S   S363      1.0  0.55048  0.26345  0.34443  1.0000
  H   H1085     1.0  0.62479  0.44648  0.34025  1.0000
  N   N91       1.0  0.61186  0.44652  0.38742  1.0000
  H   H1086     1.0  0.52992  0.34226  0.35775  1.0000
  H   H1087     1.0  0.61234  0.26126  0.32321  1.0000
  C   C1089     1.0  0.59956  0.26770  0.32129  1.0000
  C   C1090     1.0  0.56096  0.38309  0.63383  1.0000
  N   N92       1.0  0.55346  0.36914  0.63737  1.0000
  H   H1088     1.0  0.56773  0.34528  0.63125  1.0000
  H   H1089     1.0  0.59530  0.36643  0.32589  1.0000
  H   H1090     1.0  0.61105  0.27529  0.36983  1.0000
  Fe  Fe180     1.0  0.60882  0.39729  0.32654  1.0000
  H   H1091     1.0  0.61509  0.25467  0.62613  1.0000
  Fe  Fe181     1.0  0.49292  0.30657  0.34928  1.0000
  C   C1091     1.0  0.67044  0.25018  0.64315  1.0000
  H   H1092     1.0  0.63627  0.25154  0.63074  1.0000
  C   C1092     1.0  0.65537  0.34972  0.32481  1.0000
  S   S364      1.0  0.52620  0.32853  0.64422  1.0000
  C   C1093     1.0  0.57390  0.25640  0.40719  1.0000
  H   H1093     1.0  0.54659  0.25737  0.41250  1.0000
  C   C1094     1.0  0.65664  0.33548  0.31779  1.0000
  H   H1094     1.0  0.57515  0.25067  0.42041  1.0000
  Fe  Fe182     1.0  0.66384  0.29376  0.31804  1.0000
  H   H1095     1.0  0.70789  0.28283  0.64946  1.0000
  H   H1096     1.0  0.57059  0.31926  0.32155  1.0000
  C   C1095     1.0  0.58737  0.46968  0.39097  1.0000
  H   H1097     1.0  0.62308  0.47988  0.39606  1.0000
  H   H1098     1.0  0.57393  0.47511  0.39063  1.0000
  C   C1096     1.0  0.59752  0.47925  0.39429  1.0000
  Fe  Fe183     1.0  0.52279  0.32303  0.70698  1.0000
  S   S365      1.0  0.51556  0.29775  0.72099  1.0000
  S   S366      1.0  0.52582  0.34074  0.72229  1.0000
  H   H1099     1.0  0.55729  0.34098  0.69556  1.0000
  N   N93       1.0  0.64275  0.40490  0.73879  1.0000
  H   H1100     1.0  0.66605  0.38582  0.74020  1.0000
  S   S367      1.0  0.63975  0.39877  0.69205  1.0000
  Fe  Fe184     1.0  0.53518  0.28735  0.69959  1.0000
  S   S368      1.0  0.55460  0.26276  0.70408  1.0000
  H   H1101     1.0  0.67566  0.47598  0.66797  1.0000
  H   H1102     1.0  0.59615  0.30321  0.71921  1.0000
  Fe  Fe185     1.0  0.63302  0.26081  0.73375  1.0000
  S   S369      1.0  0.65500  0.26162  0.74485  1.0000
  S   S370      1.0  0.60562  0.26810  0.74752  1.0000
  H   H1103     1.0  0.53898  0.40090  0.66838  1.0000
  C   C1097     1.0  0.65213  0.27346  0.65648  1.0000
  H   H1104     1.0  0.65404  0.38461  0.72518  1.0000
  H   H1105     1.0  0.52245  0.25299  0.72397  1.0000
  Fe  Fe186     1.0  0.66552  0.27423  0.71774  1.0000
  S   S371      1.0  0.67678  0.29791  0.70955  1.0000
  S   S372      1.0  0.68036  0.24950  0.70965  1.0000
  S   S373      1.0  0.64243  0.27556  0.70739  1.0000
  S   S374      1.0  0.59836  0.40519  0.71062  1.0000
  Fe  Fe187     1.0  0.62078  0.38304  0.70923  1.0000
  S   S375      1.0  0.62501  0.36319  0.73298  1.0000
  H   H1106     1.0  0.64991  0.43807  0.69491  1.0000
  S   S376      1.0  0.54384  0.31218  0.68681  1.0000
  H   H1107     1.0  0.61295  0.31528  0.71088  1.0000
  H   H1108     1.0  0.60238  0.42781  0.73736  1.0000
  C   C1098     1.0  0.66239  0.31590  0.71637  1.0000
  C   C1099     1.0  0.66437  0.33242  0.70718  1.0000
  C   C1100     1.0  0.65276  0.34694  0.71215  1.0000
  C   C1101     1.0  0.63959  0.34502  0.72680  1.0000
  C   C1102     1.0  0.63769  0.32851  0.73615  1.0000
  C   C1103     1.0  0.64889  0.31394  0.73073  1.0000
  H   H1109     1.0  0.67478  0.33399  0.69605  1.0000
  H   H1110     1.0  0.65421  0.35963  0.70478  1.0000
  H   H1111     1.0  0.64732  0.30122  0.73788  1.0000
  C   C1104     1.0  0.53772  0.35674  0.71135  1.0000
  C   C1105     1.0  0.53234  0.37280  0.71601  1.0000
  C   C1106     1.0  0.54177  0.38575  0.70809  1.0000
  C   C1107     1.0  0.55704  0.38254  0.69596  1.0000
  H   H1112     1.0  0.66951  0.45392  0.70043  1.0000
  C   C1108     1.0  0.55295  0.35346  0.69905  1.0000
  H   H1113     1.0  0.52065  0.37535  0.72557  1.0000
  H   H1114     1.0  0.53713  0.39835  0.71130  1.0000
  Fe  Fe188     1.0  0.61673  0.42062  0.69166  1.0000
  C   C1109     1.0  0.56811  0.26344  0.71725  1.0000
  C   C1110     1.0  0.58398  0.25193  0.71692  1.0000
  C   C1111     1.0  0.59563  0.25335  0.72610  1.0000
  C   C1112     1.0  0.59102  0.26566  0.73641  1.0000
  C   C1113     1.0  0.57473  0.27647  0.73756  1.0000
  C   C1114     1.0  0.56348  0.27572  0.72761  1.0000
  H   H1115     1.0  0.61575  0.45085  0.73963  1.0000
  H   H1116     1.0  0.59396  0.27882  0.69062  1.0000
  H   H1117     1.0  0.57091  0.28558  0.74597  1.0000
  H   H1118     1.0  0.60734  0.47946  0.70576  1.0000
  C   C1115     1.0  0.64949  0.47576  0.70595  1.0000
  C   C1116     1.0  0.65031  0.41761  0.73971  1.0000
  C   C1117     1.0  0.67547  0.30247  0.66479  1.0000
  C   C1118     1.0  0.61574  0.42492  0.73849  1.0000
  Fe  Fe189     1.0  0.63125  0.39249  0.67072  1.0000
  S   S377      1.0  0.61431  0.37485  0.68814  1.0000
  H   H1119     1.0  0.63410  0.26654  0.79254  1.0000
  C   C1119     1.0  0.50589  0.24749  0.69240  1.0000
  H   H1120     1.0  0.58751  0.24227  0.70909  1.0000
  Fe  Fe190     1.0  0.59363  0.39853  0.68770  1.0000
  H   H1121     1.0  0.60805  0.24476  0.72536  1.0000
  S   S378      1.0  0.61275  0.44784  0.69541  1.0000
  H   H1122     1.0  0.50990  0.24427  0.67973  1.0000
  H   H1123     1.0  0.61979  0.39834  0.73724  1.0000
  H   H1124     1.0  0.65832  0.32092  0.67930  1.0000
  C   C1120     1.0  0.62092  0.47380  0.70455  1.0000
  H   H1125     1.0  0.58523  0.29675  0.66372  1.0000
  H   H1126     1.0  0.55117  0.28451  0.72811  1.0000
  H   H1127     1.0  0.66390  0.41502  0.73983  1.0000
  C   C1121     1.0  0.56275  0.36632  0.69149  1.0000
  C   C1122     1.0  0.64487  0.45047  0.69851  1.0000
  N   N94       1.0  0.59038  0.32763  0.72645  1.0000
  C   C1123     1.0  0.59597  0.34267  0.72336  1.0000
  C   C1124     1.0  0.57365  0.32680  0.73434  1.0000
  C   C1125     1.0  0.58466  0.35746  0.72794  1.0000
  C   C1126     1.0  0.56206  0.34129  0.73928  1.0000
  C   C1127     1.0  0.56761  0.35674  0.73594  1.0000
  C   C1128     1.0  0.60263  0.31208  0.72226  1.0000
  H   H1128     1.0  0.60924  0.34333  0.71728  1.0000
  H   H1129     1.0  0.56909  0.31499  0.73670  1.0000
  H   H1130     1.0  0.58912  0.36940  0.72529  1.0000
  H   H1131     1.0  0.54872  0.34067  0.74520  1.0000
  H   H1132     1.0  0.55864  0.36821  0.73927  1.0000
  C   C1129     1.0  0.62732  0.45777  0.69984  1.0000
  S   S379      1.0  0.56697  0.39984  0.68451  1.0000
  H   H1133     1.0  0.60870  0.30517  0.73342  1.0000
  H   H1134     1.0  0.64642  0.37782  0.74798  1.0000
  S   S380      1.0  0.51607  0.29094  0.68310  1.0000
  C   C1130     1.0  0.54118  0.36611  0.65205  1.0000
  C   C1131     1.0  0.61220  0.25977  0.67764  1.0000
  H   H1135     1.0  0.57435  0.36394  0.68178  1.0000
  Fe  Fe191     1.0  0.52282  0.31688  0.67234  1.0000
  C   C1132     1.0  0.53564  0.37757  0.66333  1.0000
  C   C1133     1.0  0.65289  0.38749  0.73801  1.0000
  C   C1134     1.0  0.65592  0.45946  0.70162  1.0000
  H   H1136     1.0  0.53562  0.35477  0.65510  1.0000
  H   H1137     1.0  0.62744  0.32699  0.74743  1.0000
  H   H1138     1.0  0.64669  0.44442  0.74077  1.0000
  H   H1139     1.0  0.54568  0.29451  0.65494  1.0000
  H   H1140     1.0  0.52605  0.37506  0.67508  1.0000
  H   H1141     1.0  0.67763  0.29286  0.67627  1.0000
  H   H1142     1.0  0.61172  0.38618  0.65278  1.0000
  C   C1135     1.0  0.61963  0.25501  0.66172  1.0000
  C   C1136     1.0  0.66035  0.25611  0.65786  1.0000
  S   S381      1.0  0.61001  0.41582  0.66866  1.0000
  C   C1137     1.0  0.62325  0.43787  0.73974  1.0000
  H   H1143     1.0  0.65331  0.34319  0.65307  1.0000
  C   C1138     1.0  0.65358  0.24372  0.79749  1.0000
  C   C1139     1.0  0.51817  0.24775  0.70127  1.0000
  C   C1140     1.0  0.64065  0.43424  0.74035  1.0000
  Fe  Fe192     1.0  0.65626  0.24987  0.70149  1.0000
  C   C1141     1.0  0.64534  0.47962  0.66094  1.0000
  C   C1142     1.0  0.62571  0.40838  0.73816  1.0000
  H   H1144     1.0  0.64411  0.27807  0.66776  1.0000
  H   H1145     1.0  0.62237  0.47175  0.66025  1.0000
  C   C1143     1.0  0.59509  0.28512  0.66329  1.0000
  C   C1144     1.0  0.62779  0.48220  0.66111  1.0000
  C   C1145     1.0  0.66450  0.31831  0.66658  1.0000
  C   C1146     1.0  0.63190  0.48269  0.70766  1.0000
  C   C1147     1.0  0.51279  0.25240  0.71739  1.0000
  H   H1146     1.0  0.68991  0.27191  0.65690  1.0000
  C   C1148     1.0  0.59989  0.27497  0.67838  1.0000
  S   S382      1.0  0.50239  0.33017  0.69132  1.0000
  H   H1147     1.0  0.65342  0.46711  0.65972  1.0000
  H   H1148     1.0  0.53181  0.24480  0.69554  1.0000
  C   C1149     1.0  0.54294  0.39203  0.65961  1.0000
  H   H1149     1.0  0.61613  0.25173  0.68926  1.0000
  H   H1150     1.0  0.50002  0.25618  0.74925  1.0000
  S   S383      1.0  0.65727  0.24118  0.67739  1.0000
  H   H1151     1.0  0.61942  0.25303  0.77834  1.0000
  Fe  Fe193     1.0  0.49708  0.30378  0.70332  1.0000
  C   C1150     1.0  0.63893  0.25322  0.79133  1.0000
  C   C1151     1.0  0.63070  0.24551  0.78327  1.0000
  H   H1152     1.0  0.62914  0.24314  0.66129  1.0000
  H   H1153     1.0  0.66028  0.24960  0.80352  1.0000
  N   N95       1.0  0.49564  0.25642  0.72459  1.0000
  C   C1152     1.0  0.66171  0.33078  0.65188  1.0000
  C   C1153     1.0  0.67767  0.71723  0.27778  1.0000
  H   H1154     1.0  0.61228  0.53989  0.30942  1.0000
  C   C1154     1.0  0.63871  0.59711  0.29122  1.0000
  N   N96       1.0  0.67472  0.68201  0.25707  1.0000
  C   C1155     1.0  0.65688  0.67974  0.26344  1.0000
  S   S384      1.0  0.66554  0.63161  0.29225  1.0000
  C   C1156     1.0  0.61531  0.52632  0.30893  1.0000
  Fe  Fe194     1.0  0.65599  0.68752  0.30825  1.0000
  Fe  Fe195     1.0  0.65996  0.64945  0.31043  1.0000
  H   H1155     1.0  0.64946  0.68959  0.27116  1.0000
  H   H1156     1.0  0.69270  0.69452  0.29073  1.0000
  C   C1157     1.0  0.64871  0.60975  0.28634  1.0000
  H   H1157     1.0  0.65316  0.61486  0.27281  1.0000
  C   C1158     1.0  0.70895  0.71010  0.27169  1.0000
  C   C1159     1.0  0.69302  0.70608  0.28095  1.0000
  S   S385      1.0  0.72997  0.72998  0.24810  1.0000
  C   C1160     1.0  0.67788  0.69734  0.24680  1.0000
  C   C1161     1.0  0.64702  0.60920  0.31637  1.0000
  H   H1158     1.0  0.72546  0.73597  0.28380  1.0000
  C   C1162     1.0  0.70969  0.72526  0.25911  1.0000
  S   S386      1.0  0.67878  0.66579  0.30816  1.0000
  C   C1163     1.0  0.65280  0.61590  0.29887  1.0000
  H   H1159     1.0  0.63546  0.59255  0.28145  1.0000
  H   H1160     1.0  0.82174  0.73291  0.17980  1.0000
  H   H1161     1.0  0.72836  0.71195  0.30835  1.0000
  H   H1162     1.0  0.72076  0.70146  0.27432  1.0000
  H   H1163     1.0  0.66729  0.70783  0.24386  1.0000
  H   H1164     1.0  0.57228  0.64900  0.31664  1.0000
  S   S387      1.0  0.65740  0.71278  0.28932  1.0000
  C   C1164     1.0  0.70508  0.67117  0.25522  1.0000
  N   N97       1.0  0.63144  0.51673  0.30991  1.0000
  C   C1165     1.0  0.63329  0.59008  0.30865  1.0000
  H   H1165     1.0  0.65604  0.66683  0.27179  1.0000
  H   H1166     1.0  0.63975  0.53797  0.31375  1.0000
  C   C1166     1.0  0.69476  0.69989  0.24033  1.0000
  H   H1167     1.0  0.55531  0.63353  0.29742  1.0000
  C   C1167     1.0  0.60619  0.50130  0.30690  1.0000
  H   H1168     1.0  0.54440  0.64597  0.31387  1.0000
  H   H1169     1.0  0.65490  0.52544  0.29922  1.0000
  S   S388      1.0  0.63746  0.67142  0.30848  1.0000
  H   H1170     1.0  0.65077  0.68107  0.25246  1.0000
  C   C1168     1.0  0.68804  0.66898  0.26130  1.0000
  C   C1169     1.0  0.55049  0.63280  0.31148  1.0000
  H   H1171     1.0  0.68556  0.65683  0.26952  1.0000
  C   C1170     1.0  0.64494  0.52471  0.31133  1.0000
  H   H1172     1.0  0.71558  0.66091  0.25882  1.0000
  S   S389      1.0  0.62112  0.57397  0.31432  1.0000
  C   C1171     1.0  0.70842  0.68674  0.24465  1.0000
  C   C1172     1.0  0.71442  0.71398  0.31168  1.0000
  H   H1173     1.0  0.64795  0.49201  0.31036  1.0000
  H   H1174     1.0  0.57342  0.68484  0.31339  1.0000
  H   H1175     1.0  0.69722  0.71219  0.23247  1.0000
  C   C1173     1.0  0.69435  0.73639  0.25590  1.0000
  C   C1174     1.0  0.68705  0.73119  0.30820  1.0000
  H   H1176     1.0  0.72153  0.68880  0.24011  1.0000
  N   N98       1.0  0.70464  0.72860  0.30393  1.0000
  C   C1175     1.0  0.62276  0.49174  0.30757  1.0000
  C   C1176     1.0  0.67841  0.73241  0.26524  1.0000
  H   H1177     1.0  0.58951  0.52622  0.30722  1.0000
  H   H1178     1.0  0.54021  0.62513  0.31610  1.0000
  C   C1177     1.0  0.63527  0.49968  0.30921  1.0000
  C   C1178     1.0  0.60240  0.51871  0.30757  1.0000
  H   H1179     1.0  0.59623  0.49505  0.30630  1.0000
  C   C1179     1.0  0.81784  0.73706  0.16747  1.0000
  H   H1180     1.0  0.68212  0.57653  0.35490  1.0000
  S   S390      1.0  0.52550  0.59843  0.34205  1.0000
  S   S391      1.0  0.53656  0.63181  0.36107  1.0000
  Fe  Fe196     1.0  0.59982  0.54561  0.37519  1.0000
  S   S392      1.0  0.62209  0.52781  0.38562  1.0000
  S   S393      1.0  0.57299  0.54918  0.39094  1.0000
  H   H1181     1.0  0.71430  0.68961  0.32988  1.0000
  S   S394      1.0  0.64610  0.54133  0.34792  1.0000
  C   C1180     1.0  0.56034  0.66483  0.35480  1.0000
  Fe  Fe197     1.0  0.63023  0.52094  0.35947  1.0000
  H   H1182     1.0  0.60096  0.60145  0.63301  1.0000
  Fe  Fe198     1.0  0.63563  0.54987  0.37316  1.0000
  S   S395      1.0  0.65191  0.56043  0.38438  1.0000
  S   S396      1.0  0.60691  0.53716  0.34998  1.0000
  S   S397      1.0  0.61254  0.56831  0.36500  1.0000
  H   H1183     1.0  0.53717  0.71503  0.36806  1.0000
  C   C1181     1.0  0.70661  0.70133  0.32383  1.0000
  S   S398      1.0  0.68991  0.65776  0.35331  1.0000
  Fe  Fe199     1.0  0.63816  0.65861  0.56862  1.0000
  S   S399      1.0  0.63612  0.63096  0.57861  1.0000
  S   S400      1.0  0.64100  0.66875  0.53979  1.0000
  Fe  Fe200     1.0  0.63240  0.66557  0.60519  1.0000
  S   S401      1.0  0.62990  0.63847  0.61728  1.0000
  S   S402      1.0  0.62566  0.68133  0.62592  1.0000
  Fe  Fe201     1.0  0.65238  0.63134  0.59656  1.0000
  S   S403      1.0  0.67313  0.60974  0.60521  1.0000
  Fe  Fe202     1.0  0.61391  0.64126  0.59822  1.0000
  S   S404      1.0  0.58823  0.63362  0.60685  1.0000
  S   S405      1.0  0.65628  0.65835  0.58539  1.0000
  S   S406      1.0  0.61478  0.66896  0.58708  1.0000
  Fe  Fe203     1.0  0.59339  0.65124  0.43993  1.0000
  S   S407      1.0  0.61636  0.63376  0.42753  1.0000
  S   S408      1.0  0.57497  0.66668  0.42274  1.0000
  Fe  Fe204     1.0  0.60379  0.64016  0.47504  1.0000
  S   S409      1.0  0.62695  0.62108  0.46549  1.0000
  S   S410      1.0  0.59682  0.64160  0.50335  1.0000
  Fe  Fe205     1.0  0.63097  0.64230  0.44228  1.0000
  S   S411      1.0  0.65776  0.64742  0.43326  1.0000
  Fe  Fe206     1.0  0.61007  0.61444  0.45174  1.0000
  S   S412      1.0  0.60725  0.58831  0.45058  1.0000
  S   S413      1.0  0.60867  0.66188  0.45253  1.0000
  S   S414      1.0  0.58628  0.63145  0.46346  1.0000
  C   C1182     1.0  0.65668  0.62900  0.48864  1.0000
  C   C1183     1.0  0.57408  0.64885  0.61821  1.0000
  C   C1184     1.0  0.58039  0.66127  0.62232  1.0000
  C   C1185     1.0  0.59772  0.59876  0.64733  1.0000
  C   C1186     1.0  0.55654  0.64850  0.62344  1.0000
  H   H1184     1.0  0.59398  0.66115  0.61914  1.0000
  S   S415      1.0  0.52324  0.62752  0.41036  1.0000
  H   H1185     1.0  0.56662  0.70184  0.40745  1.0000
  C   C1187     1.0  0.66298  0.59300  0.61784  1.0000
  S   S416      1.0  0.64034  0.49372  0.35524  1.0000
  C   C1188     1.0  0.59217  0.61063  0.33699  1.0000
  H   H1186     1.0  0.60679  0.70977  0.64473  1.0000
  C   C1189     1.0  0.63852  0.57905  0.62598  1.0000
  C   C1190     1.0  0.64723  0.59174  0.61522  1.0000
  H   H1187     1.0  0.68238  0.58217  0.63310  1.0000
  H   H1188     1.0  0.67327  0.64695  0.48321  1.0000
  H   H1189     1.0  0.62641  0.57804  0.62381  1.0000
  H   H1190     1.0  0.64177  0.60047  0.60484  1.0000
  C   C1191     1.0  0.64086  0.67896  0.63855  1.0000
  C   C1192     1.0  0.67883  0.71878  0.32024  1.0000
  C   C1193     1.0  0.67646  0.64697  0.51461  1.0000
  S   S417      1.0  0.65455  0.64306  0.33923  1.0000
  S   S418      1.0  0.50642  0.64744  0.33833  1.0000
  C   C1194     1.0  0.56920  0.67352  0.63131  1.0000
  S   S419      1.0  0.60912  0.66306  0.35706  1.0000
  H   H1191     1.0  0.59643  0.61405  0.41915  1.0000
  C   C1195     1.0  0.54949  0.71110  0.37194  1.0000
  C   C1196     1.0  0.62916  0.66082  0.52947  1.0000
  C   C1197     1.0  0.63063  0.66579  0.51152  1.0000
  C   C1198     1.0  0.62135  0.65941  0.50314  1.0000
  C   C1199     1.0  0.61048  0.64813  0.51273  1.0000
  C   C1200     1.0  0.60927  0.64299  0.53058  1.0000
  C   C1201     1.0  0.61845  0.64939  0.53893  1.0000
  H   H1192     1.0  0.63885  0.67468  0.50410  1.0000
  H   H1193     1.0  0.62228  0.66355  0.48936  1.0000
  H   H1194     1.0  0.60094  0.63422  0.53807  1.0000
  H   H1195     1.0  0.61695  0.64565  0.55275  1.0000
  C   C1202     1.0  0.66603  0.65109  0.41090  1.0000
  C   C1203     1.0  0.65533  0.65518  0.39901  1.0000
  C   C1204     1.0  0.66251  0.65756  0.38121  1.0000
  C   C1205     1.0  0.68038  0.65583  0.37535  1.0000
  C   C1206     1.0  0.69095  0.65204  0.38725  1.0000
  C   C1207     1.0  0.68380  0.64973  0.40495  1.0000
  H   H1196     1.0  0.64156  0.65654  0.40355  1.0000
  H   H1197     1.0  0.65424  0.66051  0.37208  1.0000
  H   H1198     1.0  0.70474  0.65071  0.38281  1.0000
  H   H1199     1.0  0.69210  0.64666  0.41408  1.0000
  C   C1208     1.0  0.63981  0.56782  0.40307  1.0000
  C   C1209     1.0  0.64578  0.57877  0.40973  1.0000
  C   C1210     1.0  0.63569  0.58545  0.42413  1.0000
  C   C1211     1.0  0.62003  0.58045  0.43239  1.0000
  C   C1212     1.0  0.61433  0.56911  0.42600  1.0000
  C   C1213     1.0  0.62399  0.56313  0.41113  1.0000
  H   H1200     1.0  0.65815  0.58216  0.40370  1.0000
  H   H1201     1.0  0.64025  0.59404  0.42916  1.0000
  H   H1202     1.0  0.60234  0.56501  0.43248  1.0000
  H   H1203     1.0  0.61934  0.55459  0.40615  1.0000
  H   H1204     1.0  0.60830  0.69614  0.37784  1.0000
  H   H1205     1.0  0.54183  0.58834  0.42149  1.0000
  C   C1214     1.0  0.66715  0.61533  0.38081  1.0000
  C   C1215     1.0  0.57403  0.67845  0.32657  1.0000
  H   H1206     1.0  0.63851  0.59728  0.36220  1.0000
  C   C1216     1.0  0.57562  0.66197  0.36056  1.0000
  C   C1217     1.0  0.64734  0.61810  0.50150  1.0000
  C   C1218     1.0  0.67006  0.58148  0.63121  1.0000
  H   H1207     1.0  0.66297  0.67573  0.61788  1.0000
  C   C1219     1.0  0.56621  0.70372  0.39397  1.0000
  C   C1220     1.0  0.67220  0.58719  0.34973  1.0000
  C   C1221     1.0  0.65847  0.67671  0.63129  1.0000
  C   C1222     1.0  0.66630  0.63827  0.49326  1.0000
  S   S420      1.0  0.64926  0.68498  0.33703  1.0000
  C   C1223     1.0  0.53737  0.58322  0.35604  1.0000
  C   C1224     1.0  0.55054  0.57032  0.34989  1.0000
  C   C1225     1.0  0.56135  0.55954  0.36069  1.0000
  C   C1226     1.0  0.55866  0.56134  0.37776  1.0000
  C   C1227     1.0  0.54486  0.57357  0.38413  1.0000
  C   C1228     1.0  0.53448  0.58475  0.37319  1.0000
  N   N99       1.0  0.56580  0.59633  0.41389  1.0000
  H   H1208     1.0  0.57158  0.54971  0.35588  1.0000
  H   H1209     1.0  0.54241  0.57471  0.39741  1.0000
  C   C1229     1.0  0.54090  0.65375  0.40265  1.0000
  C   C1230     1.0  0.55255  0.66217  0.40539  1.0000
  C   C1231     1.0  0.56037  0.65576  0.41967  1.0000
  H   H1210     1.0  0.60371  0.50388  0.35554  1.0000
  H   H1211     1.0  0.53480  0.65886  0.39172  1.0000
  H   H1212     1.0  0.55566  0.67350  0.39623  1.0000
  Fe  Fe207     1.0  0.51598  0.63651  0.38433  1.0000
  H   H1213     1.0  0.54910  0.66089  0.36354  1.0000
  H   H1214     1.0  0.52424  0.59453  0.37813  1.0000
  N   N100      1.0  0.66663  0.63670  0.51019  1.0000
  H   H1215     1.0  0.65625  0.63052  0.47519  1.0000
  H   H1216     1.0  0.59204  0.49219  0.39655  1.0000
  C   C1232     1.0  0.64662  0.60258  0.36711  1.0000
  H   H1217     1.0  0.53858  0.71214  0.39868  1.0000
  H   H1218     1.0  0.63358  0.59047  0.33472  1.0000
  C   C1233     1.0  0.65761  0.62595  0.52287  1.0000
  H   H1219     1.0  0.65748  0.62503  0.53635  1.0000
  H   H1220     1.0  0.62507  0.61627  0.38317  1.0000
  C   C1234     1.0  0.55027  0.70952  0.38908  1.0000
  C   C1235     1.0  0.59029  0.66686  0.34925  1.0000
  H   H1221     1.0  0.63946  0.61114  0.49819  1.0000
  H   H1222     1.0  0.69028  0.64376  0.50842  1.0000
  N   N101      1.0  0.57914  0.67476  0.53906  1.0000
  C   C1236     1.0  0.58280  0.67629  0.55389  1.0000
  C   C1237     1.0  0.57014  0.66270  0.53941  1.0000
  C   C1238     1.0  0.57770  0.66534  0.56955  1.0000
  C   C1239     1.0  0.56501  0.65143  0.55484  1.0000
  C   C1240     1.0  0.56886  0.65277  0.56998  1.0000
  C   C1241     1.0  0.58448  0.68648  0.52281  1.0000
  H   H1223     1.0  0.59005  0.68575  0.55362  1.0000
  H   H1224     1.0  0.56746  0.66130  0.52760  1.0000
  H   H1225     1.0  0.58078  0.66639  0.58128  1.0000
  H   H1226     1.0  0.55836  0.64154  0.55496  1.0000
  H   H1227     1.0  0.56519  0.64398  0.58203  1.0000
  H   H1228     1.0  0.57499  0.69883  0.52186  1.0000
  H   H1229     1.0  0.59739  0.68898  0.52199  1.0000
  H   H1230     1.0  0.58563  0.68080  0.51150  1.0000
  H   H1231     1.0  0.55445  0.60300  0.39186  1.0000
  H   H1232     1.0  0.58490  0.58644  0.33980  1.0000
  N   N102      1.0  0.58095  0.69968  0.38210  1.0000
  C   C1242     1.0  0.56836  0.60775  0.32659  1.0000
  H   H1233     1.0  0.57427  0.68284  0.63467  1.0000
  C   C1243     1.0  0.58034  0.70166  0.36519  1.0000
  C   C1244     1.0  0.67020  0.67665  0.64112  1.0000
  H   H1234     1.0  0.57602  0.65603  0.37385  1.0000
  S   S421      1.0  0.54078  0.67525  0.33032  1.0000
  S   S422      1.0  0.50424  0.66332  0.37224  1.0000
  C   C1245     1.0  0.54535  0.66060  0.63274  1.0000
  H   H1235     1.0  0.60066  0.67944  0.32354  1.0000
  C   C1246     1.0  0.54455  0.63254  0.42862  1.0000
  H   H1236     1.0  0.68394  0.60995  0.63576  1.0000
  C   C1247     1.0  0.56461  0.70727  0.35987  1.0000
  H   H1237     1.0  0.56078  0.57143  0.41779  1.0000
  S   S423      1.0  0.49771  0.62421  0.37774  1.0000
  H   H1238     1.0  0.59201  0.69842  0.35579  1.0000
  H   H1239     1.0  0.64029  0.60838  0.52882  1.0000
  H   H1240     1.0  0.67814  0.59471  0.33729  1.0000
  C   C1248     1.0  0.55631  0.64090  0.43130  1.0000
  C   C1249     1.0  0.59728  0.69182  0.38766  1.0000
  C   C1250     1.0  0.55953  0.67295  0.33780  1.0000
  Fe  Fe208     1.0  0.67078  0.66196  0.33692  1.0000
  H   H1241     1.0  0.57132  0.62543  0.37643  1.0000
  H   H1242     1.0  0.59244  0.70350  0.63564  1.0000
  Fe  Fe209     1.0  0.63333  0.66637  0.33727  1.0000
  C   C1251     1.0  0.55540  0.58338  0.42301  1.0000
  H   H1243     1.0  0.55514  0.58017  0.43707  1.0000
  H   H1244     1.0  0.58917  0.72568  0.63733  1.0000
  H   H1245     1.0  0.67765  0.49335  0.64919  1.0000
  H   H1246     1.0  0.66271  0.58101  0.34732  1.0000
  H   H1247     1.0  0.56205  0.63590  0.44246  1.0000
  H   H1248     1.0  0.54143  0.62108  0.43770  1.0000
  C   C1252     1.0  0.53698  0.63884  0.41418  1.0000
  H   H1249     1.0  0.59930  0.67758  0.38964  1.0000
  Fe  Fe210     1.0  0.51727  0.62204  0.35334  1.0000
  C   C1253     1.0  0.58521  0.62121  0.39664  1.0000
  H   H1250     1.0  0.59235  0.63134  0.39024  1.0000
  C   C1254     1.0  0.56390  0.60523  0.39772  1.0000
  C   C1255     1.0  0.63893  0.61323  0.37904  1.0000
  H   H1251     1.0  0.68830  0.60161  0.36473  1.0000
  C   C1256     1.0  0.57344  0.61791  0.38891  1.0000
  C   C1257     1.0  0.64783  0.61650  0.51872  1.0000
  H   H1252     1.0  0.67132  0.66090  0.51028  1.0000
  C   C1258     1.0  0.58744  0.61166  0.41288  1.0000
  H   H1253     1.0  0.64350  0.62748  0.39551  1.0000
  H   H1254     1.0  0.67540  0.64477  0.52878  1.0000
  H   H1255     1.0  0.55270  0.56896  0.33667  1.0000
  C   C1259     1.0  0.55167  0.67322  0.63652  1.0000
  H   H1256     1.0  0.57913  0.59218  0.43419  1.0000
  Fe  Fe211     1.0  0.52380  0.65775  0.34841  1.0000
  N   N103      1.0  0.66417  0.59839  0.36221  1.0000
  H   H1257     1.0  0.59729  0.69499  0.40005  1.0000
  C   C1260     1.0  0.57756  0.59923  0.42139  1.0000
  H   H1258     1.0  0.55164  0.63876  0.62053  1.0000
  Fe  Fe212     1.0  0.62189  0.55810  0.34075  1.0000
  H   H1259     1.0  0.53184  0.66011  0.63711  1.0000
  C   C1261     1.0  0.64929  0.61952  0.38599  1.0000
  H   H1260     1.0  0.67530  0.62018  0.38616  1.0000
  C   C1262     1.0  0.58949  0.67525  0.33225  1.0000
  C   C1263     1.0  0.64515  0.56813  0.63986  1.0000
  C   C1264     1.0  0.67441  0.60478  0.36873  1.0000
  H   H1261     1.0  0.56414  0.70815  0.34656  1.0000
  H   H1262     1.0  0.68373  0.67555  0.63521  1.0000
  H   H1263     1.0  0.60290  0.60495  0.34336  1.0000
  H   H1264     1.0  0.58385  0.48991  0.34853  1.0000
  C   C1265     1.0  0.60849  0.49158  0.35189  1.0000
  H   H1265     1.0  0.65106  0.51704  0.32226  1.0000
  C   C1266     1.0  0.57485  0.63534  0.32201  1.0000
  S   S424      1.0  0.53826  0.68695  0.64990  1.0000
  H   H1266     1.0  0.65021  0.61388  0.32607  1.0000
  C   C1267     1.0  0.68764  0.63062  0.64517  1.0000
  C   C1268     1.0  0.58204  0.60025  0.33503  1.0000
  H   H1267     1.0  0.68255  0.69406  0.33750  1.0000
  H   H1268     1.0  0.68333  0.64052  0.63470  1.0000
  C   C1269     1.0  0.68871  0.70380  0.32812  1.0000
  H   H1269     1.0  0.56071  0.59958  0.32488  1.0000
  C   C1270     1.0  0.58863  0.62829  0.33040  1.0000
  C   C1271     1.0  0.59307  0.71212  0.64385  1.0000
  C   C1272     1.0  0.63759  0.59600  0.32126  1.0000
  N   N104      1.0  0.56471  0.62513  0.32053  1.0000
  C   C1273     1.0  0.66094  0.56932  0.64248  1.0000
  H   H1270     1.0  0.59658  0.63647  0.33163  1.0000
  H   H1271     1.0  0.66490  0.72062  0.32315  1.0000
  C   C1274     1.0  0.68800  0.61341  0.64578  1.0000
  Fe  Fe213     1.0  0.54635  0.63261  0.69126  1.0000
  S   S425      1.0  0.53075  0.63522  0.71756  1.0000
  S   S426      1.0  0.56171  0.60838  0.68316  1.0000
  Fe  Fe214     1.0  0.53386  0.66939  0.67555  1.0000
  S   S427      1.0  0.51696  0.67548  0.70037  1.0000
  H   H1272     1.0  0.71627  0.63061  0.68031  1.0000
  Fe  Fe215     1.0  0.53986  0.66013  0.71173  1.0000
  S   S428      1.0  0.54732  0.66943  0.73191  1.0000
  H   H1273     1.0  0.60349  0.50015  0.66359  1.0000
  S   S429      1.0  0.55724  0.65613  0.68651  1.0000
  S   S430      1.0  0.52469  0.64542  0.67782  1.0000
  H   H1274     1.0  0.79296  0.69672  0.81349  1.0000
  Fe  Fe216     1.0  0.66559  0.55112  0.70018  1.0000
  S   S431      1.0  0.64022  0.56617  0.69471  1.0000
  S   S432      1.0  0.68524  0.56685  0.69803  1.0000
  Fe  Fe217     1.0  0.65491  0.51636  0.70610  1.0000
  S   S433      1.0  0.62846  0.52914  0.70163  1.0000
  H   H1275     1.0  0.70324  0.61727  0.69687  1.0000
  Fe  Fe218     1.0  0.64186  0.54658  0.67958  1.0000
  Fe  Fe219     1.0  0.62935  0.54744  0.71738  1.0000
  S   S434      1.0  0.60697  0.56040  0.73500  1.0000
  S   S435      1.0  0.66844  0.53286  0.68278  1.0000
  S   S436      1.0  0.65476  0.53332  0.72406  1.0000
  Fe  Fe220     1.0  0.67130  0.67683  0.69904  1.0000
  S   S437      1.0  0.65183  0.66091  0.71414  1.0000
  S   S438      1.0  0.67972  0.67815  0.67029  1.0000
  Fe  Fe221     1.0  0.67738  0.68621  0.73133  1.0000
  S   S439      1.0  0.65813  0.67059  0.74877  1.0000
  S   S440      1.0  0.69117  0.70443  0.73823  1.0000
  Fe  Fe222     1.0  0.66999  0.65068  0.73219  1.0000
  S   S441      1.0  0.67553  0.62214  0.74324  1.0000
  Fe  Fe223     1.0  0.64160  0.68196  0.72898  1.0000
  S   S442      1.0  0.61339  0.69319  0.73704  1.0000
  S   S443      1.0  0.69051  0.66518  0.71614  1.0000
  S   S444      1.0  0.65971  0.69901  0.71251  1.0000
  H   H1276     1.0  0.59981  0.62450  0.72775  1.0000
  C   C1275     1.0  0.77941  0.69908  0.81204  1.0000
  C   C1276     1.0  0.63513  0.68052  0.65589  1.0000
  H   H1277     1.0  0.64342  0.57380  0.72877  1.0000
  C   C1277     1.0  0.69903  0.60557  0.67188  1.0000
  C   C1278     1.0  0.69950  0.70960  0.75422  1.0000
  C   C1279     1.0  0.69845  0.69998  0.77112  1.0000
  H   H1278     1.0  0.59236  0.65252  0.65779  1.0000
  H   H1279     1.0  0.63055  0.71896  0.73981  1.0000
  C   C1280     1.0  0.64693  0.68001  0.66586  1.0000
  H   H1280     1.0  0.66687  0.73233  0.76028  1.0000
  H   H1281     1.0  0.70379  0.69729  0.79628  1.0000
  N   N105      1.0  0.58176  0.70859  0.66084  1.0000
  C   C1281     1.0  0.68014  0.58168  0.71174  1.0000
  C   C1282     1.0  0.67037  0.59827  0.70732  1.0000
  C   C1283     1.0  0.66908  0.61099  0.71662  1.0000
  C   C1284     1.0  0.67724  0.60702  0.73061  1.0000
  C   C1285     1.0  0.68644  0.59029  0.73530  1.0000
  C   C1286     1.0  0.68815  0.57779  0.72574  1.0000
  H   H1282     1.0  0.66435  0.60147  0.69634  1.0000
  H   H1283     1.0  0.66172  0.62378  0.71303  1.0000
  H   H1284     1.0  0.69271  0.58707  0.74613  1.0000
  H   H1285     1.0  0.69601  0.56515  0.72903  1.0000
  C   C1287     1.0  0.76344  0.70539  0.78902  1.0000
  C   C1288     1.0  0.77441  0.71975  0.76013  1.0000
  H   H1286     1.0  0.77292  0.72528  0.74696  1.0000
  H   H1287     1.0  0.64849  0.59800  0.75715  1.0000
  C   C1289     1.0  0.65282  0.71369  0.77739  1.0000
  C   C1290     1.0  0.79040  0.71377  0.78258  1.0000
  C   C1291     1.0  0.62423  0.51126  0.66461  1.0000
  C   C1292     1.0  0.63219  0.70621  0.76581  1.0000
  H   H1288     1.0  0.77162  0.70843  0.82015  1.0000
  H   H1289     1.0  0.80153  0.71490  0.78671  1.0000
  H   H1290     1.0  0.69289  0.68863  0.77479  1.0000
  N   N106      1.0  0.50766  0.60250  0.69543  1.0000
  H   H1291     1.0  0.60377  0.58525  0.65229  1.0000
  C   C1293     1.0  0.63783  0.60373  0.75064  1.0000
  S   S445      1.0  0.71996  0.72510  0.79519  1.0000
  C   C1294     1.0  0.58713  0.70816  0.67544  1.0000
  C   C1295     1.0  0.61062  0.61883  0.73407  1.0000
  C   C1296     1.0  0.70321  0.62759  0.68505  1.0000
  C   C1297     1.0  0.62994  0.62095  0.75077  1.0000
  H   H1292     1.0  0.69401  0.63918  0.68891  1.0000
  C   C1298     1.0  0.57352  0.59511  0.69820  1.0000
  C   C1299     1.0  0.58455  0.58009  0.69406  1.0000
  C   C1300     1.0  0.59449  0.56937  0.70559  1.0000
  C   C1301     1.0  0.59324  0.57338  0.72148  1.0000
  C   C1302     1.0  0.58190  0.58826  0.72587  1.0000
  C   C1303     1.0  0.57216  0.59927  0.71410  1.0000
  H   H1293     1.0  0.58550  0.57670  0.68190  1.0000
  H   H1294     1.0  0.60302  0.55792  0.70213  1.0000
  H   H1295     1.0  0.58088  0.59143  0.73816  1.0000
  H   H1296     1.0  0.56369  0.61093  0.71733  1.0000
  C   C1304     1.0  0.56663  0.67496  0.73239  1.0000
  C   C1305     1.0  0.58278  0.66948  0.72210  1.0000
  C   C1306     1.0  0.59756  0.67458  0.72347  1.0000
  C   C1307     1.0  0.59606  0.68528  0.73495  1.0000
  C   C1308     1.0  0.57992  0.69070  0.74495  1.0000
  C   C1309     1.0  0.56543  0.68544  0.74383  1.0000
  H   H1297     1.0  0.58382  0.66138  0.71320  1.0000
  H   H1298     1.0  0.60997  0.67050  0.71550  1.0000
  H   H1299     1.0  0.57857  0.69898  0.75378  1.0000
  H   H1300     1.0  0.55308  0.68968  0.75184  1.0000
  C   C1310     1.0  0.78891  0.72066  0.76545  1.0000
  H   H1301     1.0  0.60983  0.64179  0.74272  1.0000
  H   H1302     1.0  0.69286  0.64829  0.65749  1.0000
  C   C1311     1.0  0.71203  0.71969  0.77905  1.0000
  H   H1303     1.0  0.63719  0.69500  0.79125  1.0000
  C   C1312     1.0  0.70466  0.70497  0.78335  1.0000
  H   H1304     1.0  0.70775  0.73200  0.73697  1.0000
  C   C1313     1.0  0.57611  0.70544  0.69163  1.0000
  N   N107      1.0  0.64934  0.72664  0.74839  1.0000
  H   H1305     1.0  0.70362  0.59563  0.68217  1.0000
  H   H1306     1.0  0.63461  0.62839  0.75714  1.0000
  C   C1314     1.0  0.70683  0.72434  0.74992  1.0000
  C   C1315     1.0  0.61619  0.62850  0.74251  1.0000
  N   N108      1.0  0.77786  0.70603  0.79405  1.0000
  C   C1316     1.0  0.61943  0.60662  0.65789  1.0000
  H   H1307     1.0  0.54140  0.70173  0.67861  1.0000
  H   H1308     1.0  0.61476  0.59427  0.72726  1.0000
  C   C1317     1.0  0.61619  0.63535  0.66226  1.0000
  N   N109      1.0  0.63253  0.59444  0.74203  1.0000
  C   C1318     1.0  0.64086  0.57640  0.74195  1.0000
  H   H1309     1.0  0.65344  0.57301  0.74593  1.0000
  H   H1310     1.0  0.63233  0.56784  0.75079  1.0000
  H   H1311     1.0  0.50846  0.61026  0.71790  1.0000
  H   H1312     1.0  0.62128  0.64504  0.66513  1.0000
  Fe  Fe224     1.0  0.50952  0.65003  0.70368  1.0000
  C   C1319     1.0  0.62593  0.61870  0.66233  1.0000
  H   H1313     1.0  0.63860  0.61524  0.66541  1.0000
  C   C1320     1.0  0.76157  0.71209  0.77197  1.0000
  H   H1314     1.0  0.77493  0.68671  0.81697  1.0000
  H   H1315     1.0  0.75313  0.69991  0.79825  1.0000
  C   C1321     1.0  0.64183  0.50823  0.66436  1.0000
  C   C1322     1.0  0.61717  0.49810  0.66310  1.0000
  H   H1316     1.0  0.62253  0.69880  0.76711  1.0000
  C   C1323     1.0  0.64039  0.70411  0.77934  1.0000
  C   C1324     1.0  0.61906  0.60173  0.73390  1.0000
  H   H1317     1.0  0.65947  0.71206  0.78771  1.0000
  H   H1318     1.0  0.62155  0.68214  0.66162  1.0000
  C   C1325     1.0  0.51575  0.60055  0.70997  1.0000
  H   H1319     1.0  0.61618  0.52376  0.66603  1.0000
  C   C1326     1.0  0.71305  0.72934  0.76215  1.0000
  H   H1320     1.0  0.58034  0.70514  0.70321  1.0000
  C   C1327     1.0  0.49175  0.60653  0.66817  1.0000
  N   N110      1.0  0.65206  0.49247  0.66288  1.0000
  H   H1321     1.0  0.53002  0.60717  0.67617  1.0000
  H   H1322     1.0  0.51596  0.61132  0.65181  1.0000
  C   C1328     1.0  0.51672  0.60590  0.67882  1.0000
  H   H1323     1.0  0.64724  0.51854  0.66548  1.0000
  H   H1324     1.0  0.82412  0.73172  0.82561  1.0000
  H   H1325     1.0  0.64240  0.68132  0.67916  1.0000
  H   H1326     1.0  0.58357  0.59995  0.65165  1.0000
  N   N111      1.0  0.69809  0.62255  0.67149  1.0000
  C   C1329     1.0  0.59389  0.62715  0.65378  1.0000
  C   C1330     1.0  0.60000  0.63959  0.65809  1.0000
  C   C1331     1.0  0.50886  0.60815  0.66495  1.0000
  C   C1332     1.0  0.66450  0.67830  0.65843  1.0000
  H   H1327     1.0  0.62664  0.49483  0.71164  1.0000
  C   C1333     1.0  0.63684  0.71762  0.75033  1.0000
  C   C1334     1.0  0.56548  0.70657  0.66189  1.0000
  H   H1328     1.0  0.62717  0.59380  0.65771  1.0000
  H   H1329     1.0  0.79879  0.72697  0.75647  1.0000
  H   H1330     1.0  0.51592  0.58748  0.71814  1.0000
  S   S446      1.0  0.79335  0.73496  0.81338  1.0000
  H   H1331     1.0  0.52925  0.60243  0.70563  1.0000
  H   H1332     1.0  0.75000  0.71171  0.76813  1.0000
  H   H1333     1.0  0.55098  0.70064  0.70533  1.0000
  N   N112      1.0  0.60365  0.61097  0.65358  1.0000
  C   C1335     1.0  0.69291  0.63495  0.65815  1.0000
  H   H1334     1.0  0.59998  0.70993  0.67465  1.0000
  C   C1336     1.0  0.69377  0.60076  0.65918  1.0000
  C   C1337     1.0  0.55422  0.70359  0.67787  1.0000
  S   S447      1.0  0.63290  0.55412  0.65470  1.0000
  C   C1338     1.0  0.55960  0.70299  0.69283  1.0000
  H   H1335     1.0  0.69411  0.58729  0.65984  1.0000
  H   H1336     1.0  0.67283  0.49734  0.67081  1.0000
  C   C1339     1.0  0.65698  0.72514  0.76181  1.0000
  H   H1337     1.0  0.65089  0.73515  0.72121  1.0000
  H   H1338     1.0  0.66615  0.56090  0.65317  1.0000
  H   H1339     1.0  0.58134  0.63052  0.65046  1.0000
  C   C1340     1.0  0.67048  0.48964  0.66259  1.0000
  S   S448      1.0  0.66359  0.48729  0.70896  1.0000
  H   H1340     1.0  0.56110  0.70724  0.65030  1.0000
  H   H1341     1.0  0.74058  0.95090  0.22734  1.0000
  H   H1342     1.0  0.74642  0.82713  0.04245  1.0000
  H   H1343     1.0  0.80663  0.84661  0.16558  1.0000
  H   H1344     1.0  0.68066  0.83144  0.19666  1.0000
  H   H1345     1.0  0.78052  0.85024  0.23122  1.0000
  S   S449      1.0  0.96802  0.81360  0.20854  1.0000
  H   H1346     1.0  0.78764  0.76361  0.21383  1.0000
  Fe  Fe225     1.0  0.86763  0.81295  0.15686  1.0000
  S   S450      1.0  0.84945  0.81421  0.18228  1.0000
  S   S451      1.0  0.85647  0.82666  0.13347  1.0000
  Fe  Fe226     1.0  0.89856  0.79560  0.17343  1.0000
  S   S452      1.0  0.88268  0.79510  0.20024  1.0000
  S   S453      1.0  0.92754  0.78741  0.16751  1.0000
  Fe  Fe227     1.0  0.86331  0.78727  0.19052  1.0000
  S   S454      1.0  0.84688  0.76897  0.20788  1.0000
  Fe  Fe228     1.0  0.87033  0.82197  0.18952  1.0000
  S   S455      1.0  0.86604  0.84248  0.20453  1.0000
  S   S456      1.0  0.88018  0.78520  0.16443  1.0000
  S   S457      1.0  0.88749  0.82314  0.16340  1.0000
  Fe  Fe229     1.0  0.76858  0.92657  0.17345  1.0000
  S   S458      1.0  0.75462  0.91239  0.19811  1.0000
  S   S459      1.0  0.76487  0.95545  0.16914  1.0000
  Fe  Fe230     1.0  0.78496  0.89373  0.15973  1.0000
  S   S460      1.0  0.77329  0.87681  0.18364  1.0000
  S   S461      1.0  0.80170  0.88016  0.13881  1.0000
  Fe  Fe231     1.0  0.74944  0.89700  0.18173  1.0000
  S   S462      1.0  0.72451  0.88852  0.18605  1.0000
  Fe  Fe232     1.0  0.77970  0.89367  0.19755  1.0000
  S   S463      1.0  0.79036  0.88458  0.22140  1.0000
  S   S464      1.0  0.76062  0.91320  0.15691  1.0000
  S   S465      1.0  0.79415  0.90857  0.17388  1.0000
  Fe  Fe233     1.0  0.75592  0.77348  0.19850  1.0000
  S   S466      1.0  0.74956  0.77185  0.22714  1.0000
  S   S467      1.0  0.78079  0.77547  0.17930  1.0000
  Fe  Fe234     1.0  0.71901  0.77705  0.19649  1.0000
  S   S468      1.0  0.70906  0.77627  0.22473  1.0000
  S   S469      1.0  0.70144  0.77983  0.17877  1.0000
  Fe  Fe235     1.0  0.72745  0.79342  0.22156  1.0000
  S   S470      1.0  0.71868  0.81602  0.23446  1.0000
  H   H1347     1.0  0.72804  0.76240  0.04768  1.0000
  H   H1348     1.0  0.81802  0.79937  0.20992  1.0000
  S   S471      1.0  0.73506  0.79641  0.19295  1.0000
  H   H1349     1.0  0.96558  0.77648  0.22751  1.0000
  Fe  Fe236     1.0  0.78215  0.81275  0.06146  1.0000
  S   S472      1.0  0.75617  0.81912  0.07839  1.0000
  S   S473      1.0  0.78404  0.82050  0.03253  1.0000
  Fe  Fe237     1.0  0.79928  0.79685  0.09212  1.0000
  S   S474      1.0  0.77456  0.80140  0.11129  1.0000
  S   S475      1.0  0.82191  0.78249  0.10426  1.0000
  Fe  Fe238     1.0  0.76315  0.79271  0.09392  1.0000
  S   S476      1.0  0.74281  0.77675  0.10266  1.0000
  Fe  Fe239     1.0  0.76975  0.82735  0.09435  1.0000
  S   S477      1.0  0.75606  0.84898  0.10814  1.0000
  S   S478      1.0  0.78832  0.78556  0.07601  1.0000
  S   S479      1.0  0.79536  0.82363  0.07604  1.0000
  C   C1341     1.0  0.73257  0.82676  0.04472  1.0000
  H   H1350     1.0  0.73136  0.77089  0.07356  1.0000
  C   C1342     1.0  0.77606  0.80904  0.02189  1.0000
  C   C1343     1.0  0.77442  0.79195  0.02874  1.0000
  C   C1344     1.0  0.76918  0.78285  0.01926  1.0000
  C   C1345     1.0  0.76529  0.79085  0.00302  1.0000
  C   C1346     1.0  0.76663  0.80802  0.99638  1.0000
  C   C1347     1.0  0.77200  0.81705  0.00576  1.0000
  H   H1351     1.0  0.77753  0.78564  0.04117  1.0000
  H   H1352     1.0  0.76811  0.76958  0.02455  1.0000
  S   S480      1.0  0.75848  0.77913  0.99159  1.0000
  C   C1348     1.0  0.80971  0.81034  0.21481  1.0000
  C   C1349     1.0  0.71315  0.77866  0.15778  1.0000
  C   C1350     1.0  0.73050  0.77992  0.15308  1.0000
  C   C1351     1.0  0.73960  0.77945  0.13612  1.0000
  C   C1352     1.0  0.73152  0.77745  0.12391  1.0000
  C   C1353     1.0  0.71425  0.77592  0.12871  1.0000
  C   C1354     1.0  0.70502  0.77675  0.14556  1.0000
  H   H1353     1.0  0.73690  0.78127  0.16248  1.0000
  H   H1354     1.0  0.75297  0.78024  0.13260  1.0000
  H   H1355     1.0  0.70794  0.77430  0.11935  1.0000
  H   H1356     1.0  0.69162  0.77575  0.14917  1.0000
  H   H1357     1.0  0.78910  0.81013  0.20306  1.0000
  C   C1355     1.0  0.78861  0.80903  0.14544  1.0000
  C   C1356     1.0  0.78276  0.83089  0.21680  1.0000
  H   H1358     1.0  0.84164  0.81870  0.21956  1.0000
  H   H1359     1.0  0.80987  0.78077  0.00523  1.0000
  H   H1360     1.0  0.83726  0.86216  0.12850  1.0000
  H   H1361     1.0  0.72687  0.78418  0.02041  1.0000
  H   H1362     1.0  0.77165  0.76404  0.15282  1.0000
  H   H1363     1.0  0.97849  0.80271  0.17549  1.0000
  C   C1357     1.0  0.78925  0.87208  0.12942  1.0000
  C   C1358     1.0  0.77132  0.87668  0.13342  1.0000
  C   C1359     1.0  0.76134  0.86988  0.12642  1.0000
  C   C1360     1.0  0.76917  0.85790  0.11585  1.0000
  C   C1361     1.0  0.78713  0.85303  0.11198  1.0000
  C   C1362     1.0  0.79717  0.86035  0.11855  1.0000
  H   H1364     1.0  0.76504  0.88557  0.14185  1.0000
  H   H1365     1.0  0.74752  0.87400  0.12925  1.0000
  H   H1366     1.0  0.79330  0.84380  0.10381  1.0000
  H   H1367     1.0  0.81103  0.85680  0.11535  1.0000
  C   C1363     1.0  0.72423  0.86844  0.20004  1.0000
  C   C1364     1.0  0.71078  0.86687  0.21445  1.0000
  C   C1365     1.0  0.70953  0.85076  0.22513  1.0000
  C   C1366     1.0  0.72134  0.83602  0.22114  1.0000
  C   C1367     1.0  0.73477  0.83747  0.20657  1.0000
  C   C1368     1.0  0.73636  0.85375  0.19616  1.0000
  H   H1368     1.0  0.70132  0.87816  0.21740  1.0000
  H   H1369     1.0  0.69916  0.84969  0.23637  1.0000
  H   H1370     1.0  0.74395  0.82609  0.20347  1.0000
  H   H1371     1.0  0.74659  0.85494  0.18486  1.0000
  H   H1372     1.0  0.83892  0.88365  0.11697  1.0000
  N   N113      1.0  0.73071  0.80923  0.04565  1.0000
  C   C1369     1.0  0.79195  0.95416  0.18392  1.0000
  H   H1373     1.0  0.82060  0.82592  0.16416  1.0000
  H   H1374     1.0  0.79573  0.94069  0.18335  1.0000
  C   C1370     1.0  0.83002  0.74017  0.15224  1.0000
  C   C1371     1.0  0.84491  0.85397  0.20894  1.0000
  C   C1372     1.0  0.83945  0.86152  0.22342  1.0000
  C   C1373     1.0  0.82261  0.87085  0.22726  1.0000
  C   C1374     1.0  0.81139  0.87309  0.21631  1.0000
  C   C1375     1.0  0.81689  0.86578  0.20164  1.0000
  C   C1376     1.0  0.83358  0.85591  0.19814  1.0000
  H   H1375     1.0  0.84823  0.86002  0.23176  1.0000
  H   H1376     1.0  0.81837  0.87647  0.23861  1.0000
  H   H1377     1.0  0.80823  0.86750  0.19314  1.0000
  H   H1378     1.0  0.83783  0.85026  0.18682  1.0000
  C   C1377     1.0  0.84737  0.81421  0.12508  1.0000
  C   C1378     1.0  0.83732  0.82233  0.11272  1.0000
  C   C1379     1.0  0.82922  0.81275  0.10646  1.0000
  C   C1380     1.0  0.83159  0.79490  0.11214  1.0000
  C   C1381     1.0  0.84187  0.78676  0.12433  1.0000
  C   C1382     1.0  0.84956  0.79640  0.13095  1.0000
  H   H1379     1.0  0.83580  0.83606  0.10794  1.0000
  H   H1380     1.0  0.82148  0.81916  0.09696  1.0000
  H   H1381     1.0  0.84394  0.77299  0.12872  1.0000
  H   H1382     1.0  0.85734  0.79001  0.14041  1.0000
  C   C1383     1.0  0.82901  0.76945  0.19974  1.0000
  C   C1384     1.0  0.82910  0.77537  0.18216  1.0000
  C   C1385     1.0  0.81435  0.77668  0.17597  1.0000
  C   C1386     1.0  0.79925  0.77283  0.18740  1.0000
  C   C1387     1.0  0.79916  0.76687  0.20497  1.0000
  C   C1388     1.0  0.81411  0.76497  0.21110  1.0000
  H   H1383     1.0  0.84061  0.77876  0.17332  1.0000
  H   H1384     1.0  0.81469  0.78064  0.16230  1.0000
  C   C1389     1.0  0.82471  0.74619  0.13656  1.0000
  C   C1390     1.0  0.80995  0.78944  0.99279  1.0000
  C   C1391     1.0  0.95665  0.80804  0.19593  1.0000
  C   C1392     1.0  0.93908  0.80797  0.20215  1.0000
  C   C1393     1.0  0.92991  0.80233  0.19312  1.0000
  C   C1394     1.0  0.93834  0.79639  0.17795  1.0000
  C   C1395     1.0  0.95587  0.79669  0.17157  1.0000
  C   C1396     1.0  0.96499  0.80262  0.18046  1.0000
  H   H1385     1.0  0.93252  0.81220  0.21407  1.0000
  H   H1386     1.0  0.91641  0.80222  0.19814  1.0000
  H   H1387     1.0  0.96243  0.79223  0.15977  1.0000
  H   H1388     1.0  0.81002  0.93409  0.23981  1.0000
  H   H1389     1.0  0.85759  0.86649  0.11561  1.0000
  H   H1390     1.0  0.85927  0.88232  0.18056  1.0000
  C   C1397     1.0  0.72032  0.85102  0.14671  1.0000
  H   H1391     1.0  0.83380  0.90039  0.16906  1.0000
  C   C1398     1.0  0.73154  0.79728  0.06064  1.0000
  H   H1392     1.0  0.77006  0.83588  0.21381  1.0000
  C   C1399     1.0  0.80485  0.83218  0.23068  1.0000
  H   H1393     1.0  0.81231  0.95352  0.19637  1.0000
  H   H1394     1.0  0.72909  0.81390  0.01922  1.0000
  H   H1395     1.0  0.70160  0.85555  0.18776  1.0000
  H   H1396     1.0  0.79398  0.96442  0.23733  1.0000
  C   C1400     1.0  0.77695  0.75060  0.15103  1.0000
  C   C1401     1.0  0.79342  0.81653  0.21075  1.0000
  C   C1402     1.0  0.72779  0.78783  0.03192  1.0000
  H   H1397     1.0  0.75421  0.83856  0.15996  1.0000
  C   C1403     1.0  0.78072  0.83804  0.15956  1.0000
  H   H1398     1.0  0.83696  0.79753  0.22821  1.0000
  N   N114      1.0  0.70354  0.83349  0.17762  1.0000
  C   C1404     1.0  0.70912  0.82602  0.16349  1.0000
  C   C1405     1.0  0.71768  0.83461  0.14786  1.0000
  H   H1399     1.0  0.70690  0.81339  0.16417  1.0000
  H   H1400     1.0  0.72213  0.82866  0.13665  1.0000
  C   C1406     1.0  0.97842  0.77181  0.22056  1.0000
  N   N115      1.0  0.79534  0.74620  0.15135  1.0000
  C   C1407     1.0  0.79796  0.93791  0.23544  1.0000
  C   C1408     1.0  0.75168  0.95332  0.21663  1.0000
  Fe  Fe240     1.0  0.73171  0.75464  0.22799  1.0000
  C   C1409     1.0  0.77627  0.93124  0.22467  1.0000
  C   C1410     1.0  0.77146  0.81720  0.14984  1.0000
  C   C1411     1.0  0.73049  0.78031  0.06164  1.0000
  H   H1401     1.0  0.70502  0.74944  0.28204  1.0000
  N   N116      1.0  0.81512  0.81797  0.22490  1.0000
  C   C1412     1.0  0.80151  0.81559  0.14825  1.0000
  C   C1413     1.0  0.77364  0.95974  0.22804  1.0000
  H   H1402     1.0  0.81478  0.80922  0.14475  1.0000
  H   H1403     1.0  0.76133  0.81228  0.14763  1.0000
  C   C1414     1.0  0.80719  0.74943  0.13638  1.0000
  C   C1415     1.0  0.80134  0.96145  0.19127  1.0000
  C   C1416     1.0  0.79628  0.97884  0.19248  1.0000
  N   N117      1.0  0.84962  0.87493  0.13960  1.0000
  C   C1417     1.0  0.86344  0.86472  0.14605  1.0000
  C   C1418     1.0  0.83897  0.88753  0.14776  1.0000
  C   C1419     1.0  0.86725  0.86744  0.16071  1.0000
  C   C1420     1.0  0.84234  0.89050  0.16252  1.0000
  C   C1421     1.0  0.85664  0.88044  0.16893  1.0000
  C   C1422     1.0  0.84570  0.87171  0.12439  1.0000
  H   H1404     1.0  0.87154  0.85435  0.13990  1.0000
  H   H1405     1.0  0.82774  0.89532  0.14293  1.0000
  H   H1406     1.0  0.87816  0.85935  0.16593  1.0000
  H   H1407     1.0  0.70035  0.82412  0.20470  1.0000
  H   H1408     1.0  0.77148  0.92186  0.22099  1.0000
  C   C1423     1.0  0.69428  0.82460  0.19390  1.0000
  C   C1424     1.0  0.70615  0.84956  0.17660  1.0000
  N   N118      1.0  0.76767  0.94802  0.22309  1.0000
  H   H1409     1.0  0.95384  0.77043  0.20646  1.0000
  H   H1410     1.0  0.96750  0.76242  0.18831  1.0000
  H   H1411     1.0  0.81402  0.76042  0.22472  1.0000
  C   C1425     1.0  0.81270  0.80602  0.99086  1.0000
  H   H1412     1.0  0.79852  0.91271  0.23159  1.0000
  H   H1413     1.0  0.67927  0.74266  0.30193  1.0000
  H   H1414     1.0  0.83401  0.74889  0.12462  1.0000
  C   C1426     1.0  0.77765  0.96432  0.17744  1.0000
  H   H1415     1.0  0.99066  0.78109  0.23572  1.0000
  H   H1416     1.0  0.73311  0.80076  0.07195  1.0000
  C   C1427     1.0  0.72905  0.80466  0.03133  1.0000
  H   H1417     1.0  0.69443  0.81110  0.19356  1.0000
  H   H1418     1.0  0.72584  0.83115  0.05694  1.0000
  H   H1419     1.0  0.72663  0.85790  0.13455  1.0000
  H   H1420     1.0  0.79803  0.76201  0.99516  1.0000
  H   H1421     1.0  0.80314  0.75486  0.12418  1.0000
  C   C1428     1.0  0.83230  0.81137  0.22888  1.0000
  H   H1422     1.0  0.75229  0.94620  0.20658  1.0000
  S   S481      1.0  0.74041  0.75415  0.19970  1.0000
  H   H1423     1.0  0.77757  0.84973  0.16452  1.0000
  H   H1424     1.0  0.81864  0.84215  0.14499  1.0000
  C   C1429     1.0  0.81146  0.83647  0.15775  1.0000
  C   C1430     1.0  0.71466  0.85854  0.16119  1.0000
  H   H1425     1.0  0.81451  0.81013  0.00175  1.0000
  H   H1426     1.0  0.80933  0.83858  0.23823  1.0000
  H   H1427     1.0  0.77469  0.74947  0.13861  1.0000
  N   N119      1.0  0.79749  0.82981  0.15535  1.0000
  C   C1431     1.0  0.78889  0.95488  0.23421  1.0000
  H   H1428     1.0  0.66661  0.74114  0.26270  1.0000
  H   H1429     1.0  0.83227  0.81255  0.24208  1.0000
  C   C1432     1.0  0.76745  0.83184  0.15692  1.0000
  H   H1430     1.0  0.71678  0.87127  0.16051  1.0000
  H   H1431     1.0  0.79198  0.79759  0.14000  1.0000
  C   C1433     1.0  0.78855  0.83886  0.22672  1.0000
  H   H1432     1.0  0.69471  0.74807  0.24623  1.0000
  C   C1434     1.0  0.79158  0.92596  0.23074  1.0000
  H   H1433     1.0  0.77321  0.83029  0.00041  1.0000
  C   C1435     1.0  0.96573  0.76101  0.20247  1.0000
  N   N120      1.0  0.98067  0.76425  0.20686  1.0000
  C   C1436     1.0  0.72860  0.77558  0.04717  1.0000
  C   C1437     1.0  0.77292  0.98182  0.17820  1.0000
  H   H1434     1.0  0.72708  0.83608  0.03412  1.0000
  H   H1435     1.0  0.76702  0.97311  0.22655  1.0000
  H   H1436     1.0  0.74954  0.96717  0.21028  1.0000
  H   H1437     1.0  0.76351  0.81441  0.98403  1.0000
  H   H1438     1.0  0.96367  0.74786  0.20897  1.0000
  H   H1439     1.0  0.71557  0.75073  0.29834  1.0000
  C   C1438     1.0  0.71307  0.74185  0.29151  1.0000
  H   H1440     1.0  0.76967  0.74201  0.16154  1.0000
  C   C1439     1.0  0.80046  0.74005  0.16677  1.0000
  H   H1441     1.0  0.79100  0.73820  0.17873  1.0000
  H   H1442     1.0  0.84350  0.73825  0.15261  1.0000
  Fe  Fe241     1.0  0.75692  0.78038  0.92910  1.0000
  S   S482      1.0  0.75870  0.80691  0.91402  1.0000
  C   C1440     1.0  0.83198  0.80276  0.89391  1.0000
  S   S483      1.0  0.75894  0.81705  0.95041  1.0000
  Fe  Fe242     1.0  0.73933  0.81542  0.93659  1.0000
  S   S484      1.0  0.71482  0.83478  0.93443  1.0000
  Fe  Fe243     1.0  0.77808  0.80541  0.92942  1.0000
  S   S485      1.0  0.80319  0.81382  0.91739  1.0000
  S   S486      1.0  0.73622  0.78883  0.95100  1.0000
  C   C1441     1.0  0.69480  0.80833  0.91123  1.0000
  N   N121      1.0  0.71157  0.83644  0.80556  1.0000
  Fe  Fe244     1.0  0.75738  0.78976  0.96335  1.0000
  S   S487      1.0  0.96967  0.80016  0.85546  1.0000
  Fe  Fe245     1.0  0.86512  0.77505  0.84649  1.0000
  H   H1443     1.0  0.85439  0.79375  0.87541  1.0000
  Fe  Fe246     1.0  0.87133  0.80932  0.82414  1.0000
  S   S488      1.0  0.88689  0.79743  0.80189  1.0000
  S   S489      1.0  0.86599  0.83782  0.82211  1.0000
  Fe  Fe247     1.0  0.86689  0.78113  0.80834  1.0000
  H   H1444     1.0  0.69444  0.83776  0.78967  1.0000
  Fe  Fe248     1.0  0.89940  0.77796  0.82221  1.0000
  S   S490      1.0  0.92865  0.77140  0.81670  1.0000
  S   S491      1.0  0.85028  0.79502  0.82874  1.0000
  S   S492      1.0  0.88451  0.79089  0.84416  1.0000
  H   H1445     1.0  0.96458  0.77209  0.81101  1.0000
  Fe  Fe249     1.0  0.73345  0.88075  0.84373  1.0000
  S   S493      1.0  0.73702  0.89869  0.81807  1.0000
  S   S494      1.0  0.70773  0.87660  0.85957  1.0000
  Fe  Fe250     1.0  0.77120  0.86883  0.84222  1.0000
  S   S495      1.0  0.77858  0.88555  0.81632  1.0000
  S   S496      1.0  0.78804  0.84884  0.85797  1.0000
  Fe  Fe251     1.0  0.75740  0.90586  0.82709  1.0000
  S   S497      1.0  0.75860  0.93408  0.82144  1.0000
  Fe  Fe252     1.0  0.75771  0.87695  0.80961  1.0000
  S   S498      1.0  0.76096  0.87060  0.78370  1.0000
  S   S499      1.0  0.75184  0.88973  0.85370  1.0000
  S   S500      1.0  0.75233  0.85845  0.83452  1.0000
  Fe  Fe253     1.0  0.73272  0.76557  0.82769  1.0000
  S   S501      1.0  0.75676  0.77477  0.81293  1.0000
  N   N122      1.0  0.80680  0.78445  0.97938  1.0000
  H   H1446     1.0  0.69292  0.77776  0.89105  1.0000
  Fe  Fe254     1.0  0.74530  0.77925  0.78997  1.0000
  S   S502      1.0  0.74638  0.80366  0.76998  1.0000
  S   S503      1.0  0.72021  0.77191  0.80476  1.0000
  H   H1447     1.0  0.78685  0.75903  0.88295  1.0000
  H   H1448     1.0  0.71547  0.77196  0.93400  1.0000
  C   C1442     1.0  0.75642  0.85173  0.78105  1.0000
  C   C1443     1.0  0.75538  0.85093  0.76455  1.0000
  C   C1444     1.0  0.75253  0.83603  0.76142  1.0000
  C   C1445     1.0  0.75082  0.82164  0.77472  1.0000
  C   C1446     1.0  0.75194  0.82230  0.79132  1.0000
  C   C1447     1.0  0.75467  0.83739  0.79452  1.0000
  H   H1449     1.0  0.75683  0.86191  0.75406  1.0000
  H   H1450     1.0  0.75163  0.83567  0.74858  1.0000
  H   H1451     1.0  0.75052  0.81132  0.80172  1.0000
  H   H1452     1.0  0.75556  0.83785  0.80731  1.0000
  C   C1448     1.0  0.78330  0.95615  0.85279  1.0000
  C   C1449     1.0  0.94154  0.82871  0.82476  1.0000
  C   C1450     1.0  0.77054  0.95934  0.82829  1.0000
  C   C1451     1.0  0.76913  0.94198  0.83307  1.0000
  C   C1452     1.0  0.77509  0.93164  0.84758  1.0000
  C   C1453     1.0  0.78220  0.93870  0.85738  1.0000
  H   H1453     1.0  0.76599  0.96736  0.81702  1.0000
  H   H1454     1.0  0.77383  0.91834  0.85142  1.0000
  H   H1455     1.0  0.78658  0.93074  0.86875  1.0000
  C   C1454     1.0  0.84504  0.84257  0.83398  1.0000
  C   C1455     1.0  0.83880  0.82986  0.84734  1.0000
  C   C1456     1.0  0.82129  0.83211  0.85493  1.0000
  C   C1457     1.0  0.80998  0.84705  0.84910  1.0000
  C   C1458     1.0  0.81631  0.86021  0.83635  1.0000
  C   C1459     1.0  0.83393  0.85801  0.82884  1.0000
  H   H1456     1.0  0.84743  0.81808  0.85157  1.0000
  H   H1457     1.0  0.81646  0.82206  0.86502  1.0000
  H   H1458     1.0  0.80767  0.87200  0.83220  1.0000
  H   H1459     1.0  0.83876  0.86788  0.81849  1.0000
  H   H1460     1.0  0.95767  0.81699  0.80398  1.0000
  S   S504      1.0  0.77783  0.77812  0.94314  1.0000
  C   C1460     1.0  0.98678  0.80651  0.90682  1.0000
  C   C1461     1.0  0.74188  0.96227  0.87506  1.0000
  C   C1462     1.0  0.95893  0.79078  0.84528  1.0000
  C   C1463     1.0  0.94128  0.79113  0.85154  1.0000
  C   C1464     1.0  0.93197  0.78497  0.84308  1.0000
  C   C1465     1.0  0.94023  0.77822  0.82833  1.0000
  C   C1466     1.0  0.95802  0.77743  0.82232  1.0000
  C   C1467     1.0  0.96734  0.78378  0.83069  1.0000
  H   H1461     1.0  0.93468  0.79642  0.86287  1.0000
  H   H1462     1.0  0.91842  0.78535  0.84808  1.0000
  S   S505      1.0  0.88101  0.76020  0.82628  1.0000
  C   C1468     1.0  0.91449  0.82340  0.81374  1.0000
  C   C1469     1.0  0.71330  0.84639  0.91352  1.0000
  C   C1470     1.0  0.69707  0.85491  0.91017  1.0000
  C   C1471     1.0  0.69540  0.86395  0.89351  1.0000
  C   C1472     1.0  0.70999  0.86484  0.88024  1.0000
  C   C1473     1.0  0.72626  0.85644  0.88359  1.0000
  C   C1474     1.0  0.72791  0.84716  0.90022  1.0000
  H   H1463     1.0  0.68577  0.85449  0.92046  1.0000
  H   H1464     1.0  0.68283  0.87053  0.89099  1.0000
  H   H1465     1.0  0.73761  0.85707  0.87339  1.0000
  H   H1466     1.0  0.74049  0.84093  0.90278  1.0000
  C   C1475     1.0  0.81606  0.79966  0.90405  1.0000
  C   C1476     1.0  0.81050  0.78506  0.90366  1.0000
  C   C1477     1.0  0.82101  0.77326  0.89377  1.0000
  C   C1478     1.0  0.83667  0.77652  0.88331  1.0000
  H   H1467     1.0  0.79812  0.78274  0.91096  1.0000
  H   H1468     1.0  0.81688  0.76169  0.89402  1.0000
  C   C1479     1.0  0.80774  0.76281  0.79452  1.0000
  C   C1480     1.0  0.74000  0.78254  0.89009  1.0000
  C   C1481     1.0  0.73209  0.78617  0.87592  1.0000
  H   H1469     1.0  0.73853  0.79245  0.89717  1.0000
  H   H1470     1.0  0.72456  0.79887  0.87229  1.0000
  H   H1471     1.0  0.98097  0.78338  0.82577  1.0000
  C   C1482     1.0  0.80538  0.79579  0.84958  1.0000
  C   C1483     1.0  0.75080  0.75324  0.88617  1.0000
  Fe  Fe255     1.0  0.73296  0.74504  0.80021  1.0000
  H   H1472     1.0  0.79508  0.76679  0.97364  1.0000
  H   H1473     1.0  0.74418  0.74693  0.86499  1.0000
  C   C1484     1.0  0.78469  0.78634  0.87485  1.0000
  C   C1485     1.0  0.83582  0.75318  0.81084  1.0000
  H   H1474     1.0  0.94619  0.80001  0.79028  1.0000
  H   H1475     1.0  0.68417  0.80920  0.88954  1.0000
  S   S506      1.0  0.85185  0.77921  0.78956  1.0000
  H   H1476     1.0  0.77396  0.78915  0.88530  1.0000
  H   H1477     1.0  0.74107  0.93525  0.88336  1.0000
  C   C1486     1.0  0.74315  0.75696  0.87179  1.0000
  C   C1487     1.0  0.81242  0.77857  0.84851  1.0000
  H   H1478     1.0  0.84674  0.74925  0.81702  1.0000
  C   C1488     1.0  0.71183  0.85257  0.80714  1.0000
  C   C1489     1.0  0.71406  0.85530  0.82251  1.0000
  C   C1490     1.0  0.71595  0.82499  0.83448  1.0000
  C   C1491     1.0  0.71611  0.84140  0.83626  1.0000
  H   H1479     1.0  0.71047  0.86342  0.79644  1.0000
  H   H1480     1.0  0.71424  0.86810  0.82378  1.0000
  H   H1481     1.0  0.71772  0.81406  0.84498  1.0000
  H   H1482     1.0  0.71788  0.84337  0.84823  1.0000
  H   H1483     1.0  0.82744  0.74627  0.85260  1.0000
  H   H1484     1.0  0.83644  0.81398  0.89413  1.0000
  S   S507      1.0  0.79125  0.96469  0.86613  1.0000
  S   S508      1.0  0.84894  0.76206  0.87019  1.0000
  C   C1492     1.0  0.71351  0.82273  0.81901  1.0000
  C   C1493     1.0  0.84215  0.79133  0.88329  1.0000
  H   H1485     1.0  0.89787  0.83459  0.83485  1.0000
  H   H1486     1.0  0.70662  0.80335  0.93299  1.0000
  H   H1487     1.0  0.98053  0.81958  0.90814  1.0000
  H   H1488     1.0  0.72157  0.74894  0.91877  1.0000
  H   H1489     1.0  0.71277  0.75153  0.90035  1.0000
  H   H1490     1.0  0.78608  0.81292  0.86410  1.0000
  H   H1491     1.0  0.80930  0.82086  0.94895  1.0000
  C   C1494     1.0  0.93452  0.81047  0.79033  1.0000
  C   C1495     1.0  0.83502  0.76756  0.79731  1.0000
  C   C1496     1.0  0.73809  0.94695  0.87397  1.0000
  C   C1497     1.0  0.73183  0.97675  0.84943  1.0000
  H   H1492     1.0  0.77854  0.97982  0.83437  1.0000
  H   H1493     1.0  0.90379  0.82152  0.80951  1.0000
  H   H1494     1.0  0.69918  0.74799  0.92170  1.0000
  C   C1498     1.0  0.94451  0.82112  0.81053  1.0000
  N   N123      1.0  0.79485  0.86336  0.88782  1.0000
  C   C1499     1.0  0.79102  0.87957  0.87815  1.0000
  C   C1500     1.0  0.81160  0.85484  0.88694  1.0000
  C   C1501     1.0  0.80414  0.88755  0.86712  1.0000
  C   C1502     1.0  0.82503  0.86241  0.87602  1.0000
  C   C1503     1.0  0.82124  0.87887  0.86605  1.0000
  C   C1504     1.0  0.78109  0.85479  0.89900  1.0000
  H   H1495     1.0  0.77775  0.88621  0.87856  1.0000
  H   H1496     1.0  0.81460  0.84187  0.89424  1.0000
  H   H1497     1.0  0.80110  0.90022  0.85916  1.0000
  H   H1498     1.0  0.83822  0.85529  0.87488  1.0000
  H   H1499     1.0  0.83149  0.88471  0.85720  1.0000
  H   H1500     1.0  0.78256  0.84201  0.89586  1.0000
  H   H1501     1.0  0.78176  0.85278  0.91274  1.0000
  H   H1502     1.0  0.76811  0.86217  0.89716  1.0000
  N   N124      1.0  0.80937  0.82580  0.78109  1.0000
  C   C1505     1.0  0.82656  0.81857  0.77867  1.0000
  C   C1506     1.0  0.80243  0.83734  0.79174  1.0000
  C   C1507     1.0  0.83728  0.82293  0.78691  1.0000
  C   C1508     1.0  0.81279  0.84201  0.80016  1.0000
  C   C1509     1.0  0.83034  0.83475  0.79767  1.0000
  C   C1510     1.0  0.79813  0.82084  0.77275  1.0000
  H   H1503     1.0  0.83213  0.80924  0.77045  1.0000
  H   H1504     1.0  0.78881  0.84307  0.79370  1.0000
  H   H1505     1.0  0.85086  0.81698  0.78510  1.0000
  H   H1506     1.0  0.80724  0.85121  0.80854  1.0000
  H   H1507     1.0  0.83861  0.83822  0.80402  1.0000
  H   H1508     1.0  0.80557  0.81360  0.76252  1.0000
  H   H1509     1.0  0.78984  0.81258  0.78246  1.0000
  H   H1510     1.0  0.78982  0.83246  0.76656  1.0000
  C   C1511     1.0  0.70832  0.78004  0.92441  1.0000
  H   H1511     1.0  0.72885  0.93469  0.85877  1.0000
  C   C1512     1.0  0.92470  0.83350  0.83366  1.0000
  H   H1512     1.0  0.71547  0.84196  0.77816  1.0000
  H   H1513     1.0  0.71309  0.82046  0.78806  1.0000
  H   H1514     1.0  0.71341  0.80989  0.81781  1.0000
  C   C1513     1.0  0.70841  0.83405  0.78962  1.0000
  N   N125      1.0  0.93108  0.81832  0.80536  1.0000
  C   C1514     1.0  0.80887  0.74807  0.80761  1.0000
  N   N126      1.0  0.80601  0.76560  0.86062  1.0000
  C   C1515     1.0  0.70349  0.79776  0.92384  1.0000
  H   H1515     1.0  0.93629  0.82033  0.77827  1.0000
  H   H1516     1.0  0.95229  0.83026  0.82923  1.0000
  C   C1516     1.0  0.79207  0.76930  0.87344  1.0000
  C   C1517     1.0  0.69080  0.80107  0.89949  1.0000
  S   S509      1.0  0.75679  0.76010  0.91487  1.0000
  C   C1518     1.0  0.72803  0.96161  0.84787  1.0000
  C   C1519     1.0  0.74893  0.76590  0.89560  1.0000
  S   S510      1.0  0.72057  0.77725  0.85143  1.0000
  H   H1517     1.0  0.82033  0.78314  0.77849  1.0000
  H   H1518     1.0  0.80482  0.79141  0.95293  1.0000
  H   H1519     1.0  0.74795  0.96227  0.88534  1.0000
  C   C1520     1.0  0.82298  0.74327  0.81570  1.0000
  S   S511      1.0  0.75745  0.75307  0.78376  1.0000
  H   H1520     1.0  0.82322  0.77557  0.83814  1.0000
  H   H1521     1.0  0.81078  0.80605  0.84027  1.0000
  C   C1521     1.0  0.81374  0.74764  0.85956  1.0000
  C   C1522     1.0  0.69570  0.78327  0.90049  1.0000
  H   H1522     1.0  0.97250  0.80587  0.88837  1.0000
  H   H1523     1.0  0.79702  0.76654  0.78807  1.0000
  C   C1523     1.0  0.82094  0.77228  0.78916  1.0000
  C   C1524     1.0  0.77757  0.96643  0.83813  1.0000
  H   H1524     1.0  0.69128  0.82212  0.91053  1.0000
  H   H1525     1.0  0.72338  0.96124  0.83675  1.0000
  C   C1525     1.0  0.73330  0.77331  0.86694  1.0000
  H   H1526     1.0  0.80644  0.74284  0.85275  1.0000
  C   C1526     1.0  0.79150  0.79965  0.86294  1.0000
  N   N127      1.0  0.70459  0.77305  0.91267  1.0000
  H   H1527     1.0  0.92227  0.83900  0.84497  1.0000
  C   C1527     1.0  0.81233  0.81746  0.97507  1.0000
  Fe  Fe256     1.0  0.76679  0.74806  0.80841  1.0000
  C   C1528     1.0  0.73116  0.94664  0.86024  1.0000
  H   H1528     1.0  0.81654  0.75825  0.97779  1.0000
  C   C1529     1.0  0.80410  0.76698  0.98159  1.0000
  H   H1529     1.0  0.92385  0.80426  0.79067  1.0000
  C   C1530     1.0  0.91105  0.83092  0.82808  1.0000
  H   H1530     1.0  0.81412  0.83046  0.97353  1.0000
  C   C1531     1.0  0.98226  0.79883  0.89576  1.0000
  H   H1531     1.0  0.75776  0.74034  0.89028  1.0000
  C   C1532     1.0  0.80952  0.81214  0.96135  1.0000
  N   N128      1.0  0.73860  0.97693  0.86295  1.0000
  C   C1533     1.0  0.70970  0.75445  0.91346  1.0000
  C   C1534     1.0  0.80689  0.79545  0.96371  1.0000
  H   H1532     1.0  0.98745  0.77632  0.88491  1.0000
  H   H1533     1.0  0.64769  0.75187  0.73313  1.0000
  H   H1534     1.0  0.81380  0.73948  0.87265  1.0000
  H   H1535     1.0  0.71862  0.74069  0.75847  1.0000
  C   C1535     1.0  0.99068  0.78218  0.89382  1.0000
  C   C1536     1.0  0.65424  0.73847  0.73208  1.0000
  S   S512      1.0  0.74336  0.73814  0.82482  1.0000
  H   H1536     1.0  0.66843  0.73757  0.72875  1.0000
