data_image0
_chemical_formula_structural       HC2FeS2FeS2FeSFeS3CSHSFeSFeSCSFeS2FeS2C6H3C5NH5C6H4C6H4C6H6C3H3CH2C2H2NC6H3CH4NC2SH2SCHNHC2HCHCHC2H2CH2SFeCHC2H6NC2H2FeH3C2FeSHFeSCFeSFeS3CHC2HCNSC6FeH4C6H7C4HSH3C4NCH4NCNHC2SNC2H2CHCH4CH4CHFeH2CHC3FeCH4C2H2S2CHC4HSC2HCH3FeHCSC6H6CH2CH2C6FeH3S2C3HCS2HCH2CHCHNCHSFeH2C2HC2H2FeS2FeS2FeSFeS3CSC4H2C3HC7H4C5FeS2FeS2FeSFeS3CFeSC6H4NHC3H2C3H2C3H2NC6H8CH3NCHCHCH2CH2C3HCH3C2H6CSHFeH2CH7CHNC2NCHSHNHCHCSCSCSHFeSFeSFeS2FeS2FeSFeS3FeS2FeS2C6H4CNHC4H2C7H4C6H3C6H5NC4H5NC6H9NH2FeH3FeCHC2HCHSCNCH4CHCH2C2HCSC2H2FeH2CH4SH2CHNCHCNH3SFeS2FeS2FeHFeS3HCSHC2H6CS2HCFeHNCSC3SC2H2CHC6H5CHC2SCHC3H3CH3C2FeC2HCSH5CH2FeS2FeS2FeSFeS3HSHSFeSFeSH2FeS2FeS2HC5H4NCHC2H4C7H4C6H4C6H3CNC6H3FeNH5CHCHNSHC3SC2HCH2C2HCHC2H2CSHFeC2H3S2FeH2FeS2FeSHFeSFeS3CHSCH2CS2C6NH3C6H4C2H2CH2C2FeSHCSH5CH3C3H2C2HFeCH3CFeCHC2NCHC2NHC2H3C2HFeH2CHSCSCH2CSCSC3HNCH5SH2SC6HFeCH2SH2SH2C7H4C2H4CN2CFeH6SCH3CHSC4S2HFeS2FeS2FeSFeS3FeSHC3H2C2H2C7H4C2H2CFeS2FeS2FeSFeS3CFeSC6H4CHCHC6H2C3H2CHC3H9CNC5H6CH2CH3C2FeHCH2CSNHSHC2H2C2HNHC2H3C3HCNC3HSH3CH3SFeSCFeSFeSFeS2FeS2FeSFeS3FeS2FeS2C6H4CH2C3SH3C6H4CHC5H2C6HCH3CHC4H2NSCSC3HCNHCHFeHCH2CH2CNCNC6H7CHCH2CHSCSHNC2FeH3CH2CH3CH3C2Fe2S2FeS2FeNFeHS2H3S2C2SCSC2SNFeCH6C8H2C6H4CH2CHCH5C2H2CHC2H2C2HC2HCH2CH3CNHSHNC2
_chemical_formula_sum              "H576 C576 Fe96 S192 N48"
_cell_length_a       46.289
_cell_length_b       50.8672
_cell_length_c       35.5267
_cell_angle_alpha    90.0047
_cell_angle_beta     90.0623
_cell_angle_gamma    90.0946

_space_group_name_H-M_alt    "P 1"
_space_group_IT_number       1

loop_
  _space_group_symop_operation_xyz
  'x, y, z'

loop_
  _atom_site_type_symbol
  _atom_site_label
  _atom_site_symmetry_multiplicity
  _atom_site_fract_x
  _atom_site_fract_y
  _atom_site_fract_z
  _atom_site_occupancy
  H   H1        1.0  0.43928  0.14420  0.09661  1.0000
  C   C1        1.0  0.20375  0.29572  0.25160  1.0000
  C   C2        1.0  0.03701  0.30420  0.09297  1.0000
  Fe  Fe1       1.0  0.37326  0.15004  0.16415  1.0000
  S   S1        1.0  0.35306  0.18848  0.14691  1.0000
  S   S2        1.0  0.37787  0.12151  0.11481  1.0000
  Fe  Fe2       1.0  0.37412  0.16732  0.24709  1.0000
  S   S3        1.0  0.35496  0.20682  0.23550  1.0000
  S   S4        1.0  0.38635  0.15640  0.30644  1.0000
  Fe  Fe3       1.0  0.32469  0.18451  0.19775  1.0000
  S   S5        1.0  0.27599  0.18627  0.20302  1.0000
  Fe  Fe4       1.0  0.38539  0.20695  0.18618  1.0000
  S   S6        1.0  0.41092  0.24234  0.16694  1.0000
  S   S7        1.0  0.34229  0.14464  0.21233  1.0000
  S   S8        1.0  0.40726  0.16895  0.20037  1.0000
  C   C3        1.0  0.41834  0.19230  0.08518  1.0000
  S   S9        1.0  0.12660  0.25944  0.19999  1.0000
  H   H2        1.0  0.39187  0.21976  0.43283  1.0000
  S   S10       1.0  0.11407  0.29329  0.12286  1.0000
  Fe  Fe5       1.0  0.08786  0.27075  0.16523  1.0000
  S   S11       1.0  0.05627  0.23992  0.14483  1.0000
  Fe  Fe6       1.0  0.15180  0.28544  0.16105  1.0000
  S   S12       1.0  0.19738  0.27837  0.14009  1.0000
  C   C4        1.0  0.46432  0.26590  0.16984  1.0000
  S   S13       1.0  0.01717  0.99805  0.02768  1.0000
  Fe  Fe7       1.0  0.21921  0.22237  0.44276  1.0000
  S   S14       1.0  0.23961  0.18539  0.46600  1.0000
  S   S15       1.0  0.19437  0.21598  0.38836  1.0000
  Fe  Fe8       1.0  0.27972  0.21002  0.46878  1.0000
  S   S16       1.0  0.32434  0.19426  0.45600  1.0000
  S   S17       1.0  0.26036  0.24600  0.44258  1.0000
  C   C5        1.0  0.14142  0.27605  0.32091  1.0000
  C   C6        1.0  0.15036  0.25240  0.30466  1.0000
  C   C7        1.0  0.16605  0.23406  0.32603  1.0000
  C   C8        1.0  0.17341  0.23933  0.36365  1.0000
  C   C9        1.0  0.16470  0.26307  0.37991  1.0000
  C   C10       1.0  0.14850  0.28125  0.35867  1.0000
  H   H3        1.0  0.14510  0.24804  0.27575  1.0000
  H   H4        1.0  0.17286  0.21579  0.31322  1.0000
  H   H5        1.0  0.17025  0.26732  0.40888  1.0000
  C   C11       1.0  0.46350  0.20485  0.11649  1.0000
  C   C12       1.0  0.44619  0.24640  0.18497  1.0000
  C   C13       1.0  0.45689  0.22966  0.21285  1.0000
  C   C14       1.0  0.01003  0.26092  0.18325  1.0000
  C   C15       1.0  0.02007  0.24070  0.16010  1.0000
  N   N1        1.0  0.40194  0.22422  0.33861  1.0000
  H   H6        1.0  0.21294  0.29594  0.22263  1.0000
  H   H7        1.0  0.44323  0.21448  0.22448  1.0000
  H   H8        1.0  0.02411  0.27697  0.19083  1.0000
  H   H9        1.0  0.00901  0.20432  0.13242  1.0000
  H   H10       1.0  0.99894  0.25430  0.30175  1.0000
  C   C16       1.0  0.25457  0.21185  0.18476  1.0000
  C   C17       1.0  0.22458  0.21111  0.19067  1.0000
  C   C18       1.0  0.20673  0.23130  0.17693  1.0000
  C   C19       1.0  0.21877  0.25222  0.15680  1.0000
  C   C20       1.0  0.24870  0.25265  0.15019  1.0000
  C   C21       1.0  0.26661  0.23261  0.16433  1.0000
  H   H11       1.0  0.21512  0.19501  0.20637  1.0000
  H   H12       1.0  0.18370  0.23068  0.18194  1.0000
  H   H13       1.0  0.25811  0.26878  0.13454  1.0000
  H   H14       1.0  0.28967  0.23328  0.15946  1.0000
  C   C22       1.0  0.36549  0.16510  0.34628  1.0000
  C   C23       1.0  0.33991  0.17994  0.34419  1.0000
  C   C24       1.0  0.32566  0.18791  0.37761  1.0000
  C   C25       1.0  0.33729  0.18131  0.41295  1.0000
  C   C26       1.0  0.36235  0.16603  0.41455  1.0000
  C   C27       1.0  0.37620  0.15788  0.38158  1.0000
  H   H15       1.0  0.33136  0.18549  0.31700  1.0000
  H   H16       1.0  0.30636  0.19982  0.37609  1.0000
  H   H17       1.0  0.37152  0.16086  0.44159  1.0000
  H   H18       1.0  0.39577  0.14635  0.38353  1.0000
  C   C28       1.0  0.45153  0.06381  0.08548  1.0000
  C   C29       1.0  0.42767  0.06676  0.06168  1.0000
  C   C30       1.0  0.40515  0.08416  0.07142  1.0000
  C   C31       1.0  0.40605  0.09866  0.10515  1.0000
  C   C32       1.0  0.42966  0.09533  0.12933  1.0000
  C   C33       1.0  0.45230  0.07811  0.11941  1.0000
  H   H19       1.0  0.42674  0.05592  0.03548  1.0000
  H   H20       1.0  0.38705  0.08655  0.05245  1.0000
  H   H21       1.0  0.43061  0.10618  0.15551  1.0000
  H   H22       1.0  0.08735  0.25312  0.26870  1.0000
  H   H23       1.0  0.03164  0.28366  0.33036  1.0000
  H   H24       1.0  0.06913  0.27460  0.33020  1.0000
  C   C34       1.0  0.06046  0.22341  0.24360  1.0000
  C   C35       1.0  0.45315  0.15956  0.10764  1.0000
  C   C36       1.0  0.00137  0.22000  0.15042  1.0000
  H   H25       1.0  0.42501  0.20478  0.38254  1.0000
  H   H26       1.0  0.02813  0.19667  0.22250  1.0000
  H   H27       1.0  0.43465  0.01091  0.11203  1.0000
  C   C37       1.0  0.03271  0.21277  0.24167  1.0000
  H   H28       1.0  0.20317  0.31637  0.26179  1.0000
  H   H29       1.0  0.21923  0.11082  0.49249  1.0000
  C   C38       1.0  0.00691  0.30428  0.09455  1.0000
  C   C39       1.0  0.05010  0.27850  0.31186  1.0000
  H   H30       1.0  0.42250  0.19632  0.05496  1.0000
  H   H31       1.0  0.14161  0.29948  0.37151  1.0000
  N   N2        1.0  0.28459  0.14825  0.11676  1.0000
  C   C40       1.0  0.30395  0.15627  0.09001  1.0000
  C   C41       1.0  0.25899  0.16127  0.12131  1.0000
  C   C42       1.0  0.29839  0.17858  0.06810  1.0000
  C   C43       1.0  0.25272  0.18362  0.09987  1.0000
  C   C44       1.0  0.27269  0.19243  0.07335  1.0000
  C   C45       1.0  0.29082  0.12525  0.14026  1.0000
  H   H32       1.0  0.32411  0.14573  0.08603  1.0000
  H   H33       1.0  0.24377  0.15507  0.14280  1.0000
  H   H34       1.0  0.31409  0.18525  0.04755  1.0000
  C   C46       1.0  0.06576  0.24485  0.26733  1.0000
  H   H35       1.0  0.26830  0.21009  0.05718  1.0000
  H   H36       1.0  0.28555  0.12954  0.17021  1.0000
  H   H37       1.0  0.27785  0.10816  0.13061  1.0000
  H   H38       1.0  0.31410  0.11982  0.13929  1.0000
  N   N3        1.0  0.22060  0.27899  0.27706  1.0000
  C   C47       1.0  0.21870  0.28268  0.31510  1.0000
  C   C48       1.0  0.23284  0.26565  0.33995  1.0000
  S   S18       1.0  0.07616  0.30618  0.19981  1.0000
  H   H39       1.0  0.18122  0.28824  0.24988  1.0000
  H   H40       1.0  0.23049  0.26810  0.37014  1.0000
  S   S19       1.0  0.20489  0.23675  0.49977  1.0000
  C   C49       1.0  0.35990  0.24861  0.35741  1.0000
  H   H41       1.0  0.37498  0.24528  0.30042  1.0000
  N   N4        1.0  0.04393  0.25554  0.28822  1.0000
  H   H42       1.0  0.05524  0.29576  0.29382  1.0000
  C   C50       1.0  0.44423  0.99153  0.11472  1.0000
  C   C51       1.0  0.42180  0.21554  0.30899  1.0000
  H   H43       1.0  0.34964  0.24732  0.41671  1.0000
  C   C52       1.0  0.36475  0.24154  0.39483  1.0000
  H   H44       1.0  0.40982  0.21110  0.28262  1.0000
  C   C53       1.0  0.01057  0.22376  0.26312  1.0000
  H   H45       1.0  0.45618  0.27890  0.14819  1.0000
  C   C54       1.0  0.24817  0.24425  0.32571  1.0000
  C   C55       1.0  0.23640  0.25859  0.26285  1.0000
  H   H46       1.0  0.25776  0.23007  0.34484  1.0000
  H   H47       1.0  0.43286  0.19695  0.31697  1.0000
  C   C56       1.0  0.25020  0.24076  0.28684  1.0000
  H   H48       1.0  0.23810  0.25582  0.23281  1.0000
  H   H49       1.0  0.26182  0.22404  0.27529  1.0000
  S   S20       1.0  0.12128  0.29942  0.29498  1.0000
  Fe  Fe9       1.0  0.11719  0.29663  0.23147  1.0000
  C   C57       1.0  0.38857  0.22605  0.40394  1.0000
  H   H50       1.0  0.40854  0.21004  0.09830  1.0000
  C   C58       1.0  0.47185  0.98882  0.12995  1.0000
  C   C59       1.0  0.40707  0.21751  0.37532  1.0000
  H   H51       1.0  0.40219  0.17615  0.08757  1.0000
  H   H52       1.0  0.23288  0.19450  0.10470  1.0000
  H   H53       1.0  0.34124  0.26040  0.35003  1.0000
  H   H54       1.0  0.43818  0.23100  0.30324  1.0000
  H   H55       1.0  0.04917  0.28993  0.10916  1.0000
  H   H56       1.0  0.07756  0.21554  0.22602  1.0000
  N   N5        1.0  0.44542  0.18538  0.10412  1.0000
  C   C60       1.0  0.37894  0.23985  0.32950  1.0000
  C   C61       1.0  0.01652  0.24544  0.28611  1.0000
  H   H57       1.0  0.20542  0.29834  0.32649  1.0000
  H   H58       1.0  0.47056  0.07584  0.13817  1.0000
  Fe  Fe10      1.0  0.24817  0.25747  0.50184  1.0000
  H   H59       1.0  0.98864  0.21624  0.26071  1.0000
  H   H60       1.0  0.45770  0.22534  0.11277  1.0000
  H   H61       1.0  0.99565  0.29005  0.11203  1.0000
  C   C62       1.0  0.47897  0.15261  0.12554  1.0000
  C   C63       1.0  0.98188  0.25992  0.19779  1.0000
  Fe  Fe11      1.0  0.08599  0.00729  0.66781  1.0000
  S   S21       1.0  0.07483  0.04991  0.67395  1.0000
  H   H62       1.0  0.26797  0.12907  0.59198  1.0000
  Fe  Fe12      1.0  0.14680  0.01548  0.70105  1.0000
  S   S22       1.0  0.13965  0.05876  0.71031  1.0000
  C   C64       1.0  0.23806  0.09647  0.59627  1.0000
  Fe  Fe13      1.0  0.09553  0.04637  0.73113  1.0000
  S   S23       1.0  0.07404  0.06239  0.78392  1.0000
  Fe  Fe14      1.0  0.11990  0.05809  0.65224  1.0000
  S   S24       1.0  0.12695  0.08482  0.60111  1.0000
  S   S25       1.0  0.43373  0.99969  0.90149  1.0000
  S   S26       1.0  0.12962  0.01520  0.64196  1.0000
  C   C65       1.0  0.11245  0.04746  0.89612  1.0000
  H   H63       1.0  0.22096  0.23770  0.58410  1.0000
  C   C66       1.0  0.14914  0.99334  0.81879  1.0000
  C   C67       1.0  0.25241  0.11679  0.57735  1.0000
  H   H64       1.0  0.11833  0.99566  0.90537  1.0000
  C   C68       1.0  0.27794  0.31312  0.55334  1.0000
  N   N6        1.0  0.12469  0.02869  0.86920  1.0000
  S   S27       1.0  0.21651  0.17935  0.57698  1.0000
  C   C69       1.0  0.32204  0.30935  0.59037  1.0000
  C   C70       1.0  0.04815  0.00754  0.88063  1.0000
  C   C71       1.0  0.03918  0.03380  0.88078  1.0000
  C   C72       1.0  0.04591  0.05026  0.85005  1.0000
  C   C73       1.0  0.06123  0.04046  0.81892  1.0000
  C   C74       1.0  0.06831  0.01377  0.81800  1.0000
  Fe  Fe15      1.0  0.22846  0.20155  0.52305  1.0000
  H   H65       1.0  0.02856  0.04179  0.90535  1.0000
  H   H66       1.0  0.04018  0.07087  0.85099  1.0000
  H   H67       1.0  0.07995  0.00582  0.79454  1.0000
  H   H68       1.0  0.24310  0.09284  0.62563  1.0000
  C   C75       1.0  0.19037  0.15400  0.58349  1.0000
  C   C76       1.0  0.17245  0.14530  0.55429  1.0000
  C   C77       1.0  0.15288  0.12442  0.56042  1.0000
  C   C78       1.0  0.15102  0.11190  0.59569  1.0000
  C   C79       1.0  0.16879  0.12072  0.62497  1.0000
  C   C80       1.0  0.18825  0.14169  0.61890  1.0000
  H   H69       1.0  0.98013  0.99237  0.88021  1.0000
  H   H70       1.0  0.13917  0.11787  0.53758  1.0000
  H   H71       1.0  0.16750  0.11145  0.65233  1.0000
  H   H72       1.0  0.20190  0.14833  0.64176  1.0000
  H   H73       1.0  0.25603  0.00943  0.62634  1.0000
  H   H74       1.0  0.20998  0.27047  0.57283  1.0000
  H   H75       1.0  0.06252  0.08226  0.58808  1.0000
  C   C81       1.0  0.14728  0.01994  0.80966  1.0000
  C   C82       1.0  0.47576  0.00258  0.69680  1.0000
  C   C83       1.0  0.37703  0.01512  0.64497  1.0000
  C   C84       1.0  0.22404  0.00253  0.66953  1.0000
  H   H76       1.0  0.40569  0.00354  0.83001  1.0000
  S   S28       1.0  0.27078  0.22328  0.52814  1.0000
  H   H77       1.0  0.30418  0.27828  0.55568  1.0000
  H   H78       1.0  0.35652  0.01684  0.65962  1.0000
  H   H79       1.0  0.46272  0.98744  0.80584  1.0000
  C   C85       1.0  0.02193  0.06139  0.59189  1.0000
  C   C86       1.0  0.05145  0.06356  0.58451  1.0000
  C   C87       1.0  0.26241  0.25202  0.62878  1.0000
  C   C88       1.0  0.23992  0.29395  0.62790  1.0000
  N   N7        1.0  0.24015  0.26798  0.61787  1.0000
  C   C89       1.0  0.12683  0.00268  0.87870  1.0000
  H   H80       1.0  0.22270  0.30674  0.61829  1.0000
  H   H81       1.0  0.39819  0.04546  0.67721  1.0000
  H   H82       1.0  0.15508  0.02684  0.78261  1.0000
  H   H83       1.0  0.19832  0.06638  0.62834  1.0000
  N   N8        1.0  0.21730  0.08192  0.57836  1.0000
  C   C90       1.0  0.06201  0.99748  0.84875  1.0000
  N   N9        1.0  0.05340  0.01743  0.57008  1.0000
  H   H84       1.0  0.21632  0.04265  0.59843  1.0000
  C   C91       1.0  0.40036  0.03114  0.65478  1.0000
  C   C92       1.0  0.21090  0.08653  0.54132  1.0000
  S   S29       1.0  0.10426  0.00339  0.72567  1.0000
  N   N10       1.0  0.42971  0.00968  0.60823  1.0000
  C   C93       1.0  0.42663  0.02835  0.63569  1.0000
  C   C94       1.0  0.13886  0.98458  0.85352  1.0000
  H   H85       1.0  0.46751  0.01690  0.71657  1.0000
  H   H86       1.0  0.34002  0.29757  0.60003  1.0000
  C   C95       1.0  0.30171  0.29834  0.56526  1.0000
  H   H87       1.0  0.01721  0.01675  0.67165  1.0000
  C   C96       1.0  0.38027  0.99646  0.61654  1.0000
  H   H88       1.0  0.25608  0.13812  0.52516  1.0000
  H   H89       1.0  0.18135  0.05593  0.58596  1.0000
  H   H90       1.0  0.20771  0.01468  0.65656  1.0000
  H   H91       1.0  0.44476  0.04075  0.64360  1.0000
  C   C97       1.0  0.00448  0.99967  0.66424  1.0000
  H   H92       1.0  0.19433  0.07513  0.52716  1.0000
  H   H93       1.0  0.00979  0.07841  0.60122  1.0000
  H   H94       1.0  0.08998  0.04301  0.56857  1.0000
  H   H95       1.0  0.10102  0.06361  0.88118  1.0000
  C   C98       1.0  0.20272  0.06061  0.59869  1.0000
  H   H96       1.0  0.19673  0.25468  0.61520  1.0000
  Fe  Fe16      1.0  0.01136  0.99251  0.96511  1.0000
  H   H97       1.0  0.17372  0.15461  0.52695  1.0000
  H   H98       1.0  0.09622  0.03779  0.91464  1.0000
  C   C99       1.0  0.21575  0.25717  0.59653  1.0000
  H   H99       1.0  0.12988  0.05592  0.91384  1.0000
  C   C100      1.0  0.06694  0.04124  0.57359  1.0000
  C   C101      1.0  0.22496  0.10661  0.52149  1.0000
  C   C102      1.0  0.13491  0.03746  0.83530  1.0000
  Fe  Fe17      1.0  0.46281  0.99060  0.95113  1.0000
  C   C103      1.0  0.00822  0.03711  0.58779  1.0000
  H   H100      1.0  0.26264  0.23144  0.62067  1.0000
  H   H101      1.0  0.98537  0.03501  0.59407  1.0000
  H   H102      1.0  0.13282  0.05799  0.82746  1.0000
  H   H103      1.0  0.30346  0.24964  0.65771  1.0000
  C   C104      1.0  0.25133  0.99952  0.65255  1.0000
  C   C105      1.0  0.28542  0.26210  0.64999  1.0000
  H   H104      1.0  0.47552  0.01467  0.60499  1.0000
  H   H105      1.0  0.07624  0.99614  0.52825  1.0000
  S   S30       1.0  0.04637  0.98763  0.92117  1.0000
  S   S31       1.0  0.25014  0.29941  0.52477  1.0000
  C   C106      1.0  0.21800  0.98981  0.70354  1.0000
  H   H106      1.0  0.45604  0.01880  0.56120  1.0000
  C   C107      1.0  0.40695  0.99386  0.59852  1.0000
  C   C108      1.0  0.07022  0.99445  0.55837  1.0000
  C   C109      1.0  0.45708  0.00738  0.58777  1.0000
  C   C110      1.0  0.02436  0.01522  0.57665  1.0000
  H   H107      1.0  0.01362  0.99628  0.57451  1.0000
  S   S32       1.0  0.18452  0.99359  0.72661  1.0000
  C   C111      1.0  0.24573  0.12188  0.53976  1.0000
  C   C112      1.0  0.28533  0.28857  0.66039  1.0000
  H   H108      1.0  0.09005  0.99273  0.57590  1.0000
  C   C113      1.0  0.26243  0.30460  0.64940  1.0000
  H   H109      1.0  0.46177  0.98643  0.58117  1.0000
  H   H110      1.0  0.30350  0.29697  0.67568  1.0000
  H   H111      1.0  0.00325  0.52962  0.13521  1.0000
  Fe  Fe18      1.0  0.10451  0.32836  0.15926  1.0000
  H   H112      1.0  0.04762  0.50269  0.13559  1.0000
  C   C114      1.0  0.05132  0.32266  0.07047  1.0000
  S   S33       1.0  0.09748  0.36796  0.13024  1.0000
  C   C115      1.0  0.06584  0.38475  0.11554  1.0000
  C   C116      1.0  0.03807  0.37589  0.12453  1.0000
  C   C117      1.0  0.01365  0.38909  0.11015  1.0000
  C   C118      1.0  0.01671  0.41118  0.08663  1.0000
  C   C119      1.0  0.04444  0.42042  0.07844  1.0000
  C   C120      1.0  0.06884  0.40732  0.09296  1.0000
  H   H113      1.0  0.03543  0.35873  0.14218  1.0000
  H   H114      1.0  0.22579  0.61713  0.47471  1.0000
  H   H115      1.0  0.04715  0.43750  0.06059  1.0000
  H   H116      1.0  0.09024  0.41442  0.08601  1.0000
  H   H117      1.0  0.07283  0.36462  0.03800  1.0000
  H   H118      1.0  0.25928  0.64101  0.08707  1.0000
  C   C121      1.0  0.00157  0.50866  0.14033  1.0000
  H   H119      1.0  0.99432  0.35535  0.03529  1.0000
  H   H120      1.0  0.42634  0.57814  0.01890  1.0000
  C   C122      1.0  0.02680  0.49354  0.14072  1.0000
  H   H121      1.0  0.42738  0.49995  0.09041  1.0000
  H   H122      1.0  0.44297  0.57228  0.13750  1.0000
  C   C123      1.0  0.43695  0.57243  0.07728  1.0000
  C   C124      1.0  0.42306  0.58509  0.04736  1.0000
  C   C125      1.0  0.40472  0.60674  0.05429  1.0000
  C   C126      1.0  0.40001  0.61607  0.09111  1.0000
  C   C127      1.0  0.41406  0.60355  0.12101  1.0000
  C   C128      1.0  0.43234  0.58186  0.11409  1.0000
  Fe  Fe19      1.0  0.47596  0.52128  0.01925  1.0000
  H   H123      1.0  0.39404  0.61625  0.03088  1.0000
  H   H124      1.0  0.41074  0.61044  0.14949  1.0000
  H   H125      1.0  0.04421  0.45444  0.14682  1.0000
  S   S34       1.0  0.46054  0.54512  0.07058  1.0000
  S   S35       1.0  0.14453  0.32226  0.19445  1.0000
  C   C129      1.0  0.02489  0.46653  0.14699  1.0000
  C   C130      1.0  0.99147  0.32274  0.07358  1.0000
  C   C131      1.0  0.05137  0.35944  0.02586  1.0000
  H   H126      1.0  0.42538  0.41545  0.09187  1.0000
  C   C132      1.0  0.00645  0.34083  0.05115  1.0000
  S   S36       1.0  0.01600  0.49764  0.03808  1.0000
  S   S37       1.0  0.37703  0.64382  0.09786  1.0000
  H   H127      1.0  0.07476  0.32274  0.06986  1.0000
  C   C133      1.0  0.43666  0.43385  0.09670  1.0000
  H   H128      1.0  0.40038  0.45816  0.08137  1.0000
  H   H129      1.0  0.46695  0.62532  0.08530  1.0000
  C   C134      1.0  0.42272  0.45777  0.09061  1.0000
  H   H130      1.0  0.03918  0.37817  0.02311  1.0000
  C   C135      1.0  0.43788  0.48122  0.09561  1.0000
  H   H131      1.0  0.99225  0.38198  0.11702  1.0000
  N   N11       1.0  0.03601  0.34076  0.05012  1.0000
  C   C136      1.0  0.99788  0.45497  0.15247  1.0000
  H   H132      1.0  0.99608  0.43389  0.15636  1.0000
  S   S38       1.0  0.98531  0.42651  0.06826  1.0000
  Fe  Fe20      1.0  0.98485  0.46400  0.03259  1.0000
  H   H133      1.0  0.31298  0.64339  0.08394  1.0000
  H   H134      1.0  0.20041  0.63879  0.49811  1.0000
  C   C137      1.0  0.46701  0.48041  0.10610  1.0000
  C   C138      1.0  0.47628  0.64477  0.08879  1.0000
  H   H135      1.0  0.47891  0.49872  0.10874  1.0000
  C   C139      1.0  0.22050  0.62709  0.50163  1.0000
  C   C140      1.0  0.46568  0.43377  0.10773  1.0000
  H   H136      1.0  0.23795  0.64146  0.50820  1.0000
  H   H137      1.0  0.47663  0.41508  0.11101  1.0000
  Fe  Fe21      1.0  0.34960  0.38882  0.66075  1.0000
  S   S39       1.0  0.35578  0.42365  0.62286  1.0000
  S   S40       1.0  0.34278  0.34663  0.63965  1.0000
  Fe  Fe22      1.0  0.36302  0.42238  0.73132  1.0000
  S   S41       1.0  0.36884  0.45963  0.69822  1.0000
  S   S42       1.0  0.37170  0.41918  0.79408  1.0000
  Fe  Fe23      1.0  0.32970  0.44587  0.66587  1.0000
  S   S43       1.0  0.29582  0.47317  0.64112  1.0000
  Fe  Fe24      1.0  0.39419  0.43425  0.65870  1.0000
  S   S44       1.0  0.43746  0.44525  0.63311  1.0000
  S   S45       1.0  0.32145  0.41041  0.70227  1.0000
  S   S46       1.0  0.39044  0.39763  0.69326  1.0000
  C   C141      1.0  0.12531  0.64668  0.69753  1.0000
  S   S47       1.0  0.45028  0.50175  0.88198  1.0000
  C   C142      1.0  0.38435  0.52521  0.65357  1.0000
  C   C143      1.0  0.26561  0.48257  0.66821  1.0000
  C   C144      1.0  0.24035  0.48573  0.72788  1.0000
  C   C145      1.0  0.26435  0.47744  0.70680  1.0000
  H   H138      1.0  0.23969  0.48191  0.75784  1.0000
  H   H139      1.0  0.28206  0.46738  0.72054  1.0000
  C   C146      1.0  0.46135  0.46735  0.65561  1.0000
  C   C147      1.0  0.00334  0.45545  0.67827  1.0000
  C   C148      1.0  0.01238  0.49804  0.81359  1.0000
  H   H140      1.0  0.01317  0.43831  0.69096  1.0000
  C   C149      1.0  0.29556  0.35024  0.59117  1.0000
  C   C150      1.0  0.39300  0.44257  0.81853  1.0000
  C   C151      1.0  0.40298  0.46544  0.80095  1.0000
  C   C152      1.0  0.42016  0.48349  0.82102  1.0000
  C   C153      1.0  0.42783  0.47874  0.85869  1.0000
  C   C154      1.0  0.41815  0.45575  0.87623  1.0000
  C   C155      1.0  0.40064  0.43783  0.85624  1.0000
  H   H141      1.0  0.39731  0.46935  0.77200  1.0000
  H   H142      1.0  0.42765  0.50119  0.80722  1.0000
  H   H143      1.0  0.42395  0.45186  0.90521  1.0000
  H   H144      1.0  0.39304  0.42016  0.87004  1.0000
  C   C156      1.0  0.31886  0.33519  0.60398  1.0000
  C   C157      1.0  0.45520  0.42037  0.74683  1.0000
  C   C158      1.0  0.41491  0.50502  0.60684  1.0000
  C   C159      1.0  0.36472  0.49532  0.60736  1.0000
  C   C160      1.0  0.39554  0.47417  0.56010  1.0000
  Fe  Fe25      1.0  0.08645  0.51078  0.68244  1.0000
  S   S48       1.0  0.07157  0.55259  0.68453  1.0000
  S   S49       1.0  0.05890  0.47446  0.67243  1.0000
  Fe  Fe26      1.0  0.14623  0.52519  0.71372  1.0000
  S   S50       1.0  0.13531  0.56816  0.71943  1.0000
  S   S51       1.0  0.18702  0.50760  0.73799  1.0000
  Fe  Fe27      1.0  0.09250  0.55374  0.74158  1.0000
  S   S52       1.0  0.06586  0.57018  0.78948  1.0000
  Fe  Fe28      1.0  0.11575  0.56315  0.66188  1.0000
  S   S53       1.0  0.11845  0.59291  0.61382  1.0000
  S   S54       1.0  0.10501  0.51152  0.74065  1.0000
  S   S55       1.0  0.12909  0.52068  0.65491  1.0000
  C   C161      1.0  0.12402  0.63887  0.73515  1.0000
  Fe  Fe29      1.0  0.01424  0.49967  0.97464  1.0000
  S   S56       1.0  0.05407  0.50051  0.93754  1.0000
  C   C162      1.0  0.05738  0.52096  0.89751  1.0000
  C   C163      1.0  0.08062  0.51688  0.87281  1.0000
  C   C164      1.0  0.08343  0.53188  0.83975  1.0000
  C   C165      1.0  0.06321  0.55142  0.83131  1.0000
  C   C166      1.0  0.04021  0.55586  0.85631  1.0000
  C   C167      1.0  0.03713  0.54052  0.88913  1.0000
  H   H145      1.0  0.09647  0.50191  0.87923  1.0000
  H   H146      1.0  0.10153  0.52858  0.82116  1.0000
  H   H147      1.0  0.02452  0.57100  0.85009  1.0000
  H   H148      1.0  0.01921  0.54394  0.90800  1.0000
  N   N12       1.0  0.39169  0.49163  0.59255  1.0000
  H   H149      1.0  0.98888  0.50779  0.72411  1.0000
  C   C168      1.0  0.14612  0.61642  0.60544  1.0000
  C   C169      1.0  0.17066  0.61821  0.62828  1.0000
  C   C170      1.0  0.27522  0.33922  0.56604  1.0000
  H   H150      1.0  0.16888  0.56222  0.56241  1.0000
  H   H151      1.0  0.17293  0.60529  0.65229  1.0000
  C   C171      1.0  0.24253  0.49578  0.65076  1.0000
  C   C172      1.0  0.21829  0.50375  0.67177  1.0000
  C   C173      1.0  0.21725  0.49885  0.71049  1.0000
  H   H152      1.0  0.24339  0.49972  0.62086  1.0000
  H   H153      1.0  0.20048  0.51364  0.65813  1.0000
  C   C174      1.0  0.45305  0.48151  0.68753  1.0000
  C   C175      1.0  0.00795  0.49863  0.65050  1.0000
  C   C176      1.0  0.02089  0.47664  0.66704  1.0000
  H   H154      1.0  0.43181  0.47860  0.69951  1.0000
  H   H155      1.0  0.02120  0.51495  0.64134  1.0000
  N   N13       1.0  0.15098  0.44770  0.73115  1.0000
  C   C177      1.0  0.12858  0.45001  0.70620  1.0000
  C   C178      1.0  0.17862  0.44434  0.71842  1.0000
  C   C179      1.0  0.13356  0.44893  0.66740  1.0000
  C   C180      1.0  0.18442  0.44323  0.67981  1.0000
  C   C181      1.0  0.16171  0.44562  0.65419  1.0000
  C   C182      1.0  0.14575  0.45072  0.77163  1.0000
  H   H156      1.0  0.10669  0.45313  0.71613  1.0000
  H   H157      1.0  0.19654  0.44364  0.73813  1.0000
  H   H158      1.0  0.11567  0.45118  0.64784  1.0000
  H   H159      1.0  0.20654  0.44144  0.66994  1.0000
  H   H160      1.0  0.16598  0.44530  0.62417  1.0000
  H   H161      1.0  0.15005  0.47143  0.78005  1.0000
  H   H162      1.0  0.12309  0.44575  0.77912  1.0000
  H   H163      1.0  0.16018  0.43768  0.78822  1.0000
  C   C183      1.0  0.18876  0.57355  0.56095  1.0000
  H   H164      1.0  0.45323  0.42599  0.71667  1.0000
  H   H165      1.0  0.25699  0.35087  0.55688  1.0000
  H   H166      1.0  0.10316  0.64726  0.64440  1.0000
  N   N14       1.0  0.07819  0.62818  0.68681  1.0000
  C   C184      1.0  0.47220  0.49976  0.70383  1.0000
  H   H167      1.0  0.34622  0.48489  0.59590  1.0000
  C   C185      1.0  0.23808  0.60454  0.55843  1.0000
  H   H168      1.0  0.12447  0.63247  0.55681  1.0000
  C   C186      1.0  0.36066  0.51208  0.63813  1.0000
  H   H169      1.0  0.14214  0.64251  0.75385  1.0000
  H   H170      1.0  0.09814  0.61973  0.77768  1.0000
  C   C187      1.0  0.21017  0.57021  0.58821  1.0000
  H   H171      1.0  0.03988  0.60681  0.67214  1.0000
  H   H172      1.0  0.43036  0.53165  0.64973  1.0000
  C   C188      1.0  0.19260  0.59240  0.53267  1.0000
  C   C189      1.0  0.09938  0.62611  0.74853  1.0000
  C   C190      1.0  0.23502  0.58576  0.58698  1.0000
  H   H173      1.0  0.03118  0.51731  0.76524  1.0000
  C   C191      1.0  0.01273  0.50650  0.77614  1.0000
  H   H174      1.0  0.04106  0.64071  0.65684  1.0000
  H   H175      1.0  0.43326  0.42234  0.75932  1.0000
  H   H176      1.0  0.21203  0.63705  0.63665  1.0000
  C   C192      1.0  0.19277  0.63628  0.61938  1.0000
  C   C193      1.0  0.98905  0.50114  0.75307  1.0000
  H   H177      1.0  0.45645  0.43105  0.82021  1.0000
  H   H178      1.0  0.39336  0.48549  0.53356  1.0000
  H   H179      1.0  0.25706  0.61710  0.55830  1.0000
  H   H180      1.0  0.29283  0.37012  0.60135  1.0000
  H   H181      1.0  0.26280  0.32542  0.65615  1.0000
  H   H182      1.0  0.41714  0.46460  0.56089  1.0000
  C   C194      1.0  0.41165  0.52184  0.63770  1.0000
  S   S57       1.0  0.45464  0.48447  0.99676  1.0000
  H   H183      1.0  0.25152  0.58370  0.60849  1.0000
  Fe  Fe30      1.0  0.47106  0.49711  0.93969  1.0000
  H   H184      1.0  0.46188  0.39946  0.74860  1.0000
  H   H185      1.0  0.43634  0.50199  0.59525  1.0000
  C   C195      1.0  0.07648  0.62097  0.72385  1.0000
  H   H186      1.0  0.38160  0.53773  0.67804  1.0000
  H   H187      1.0  0.33932  0.51429  0.65044  1.0000
  H   H188      1.0  0.00969  0.47898  0.88132  1.0000
  H   H189      1.0  0.03085  0.50217  0.83125  1.0000
  H   H190      1.0  0.46558  0.51069  0.72850  1.0000
  H   H191      1.0  0.05753  0.61082  0.73449  1.0000
  H   H192      1.0  0.20720  0.55602  0.61072  1.0000
  C   C196      1.0  0.14349  0.63353  0.57450  1.0000
  H   H193      1.0  0.98014  0.45720  0.87132  1.0000
  N   N15       1.0  0.98905  0.48483  0.82776  1.0000
  C   C197      1.0  0.10191  0.64138  0.67373  1.0000
  C   C198      1.0  0.05411  0.62267  0.66112  1.0000
  N   N16       1.0  0.21696  0.60768  0.53181  1.0000
  C   C199      1.0  0.47381  0.44045  0.80472  1.0000
  H   H194      1.0  0.06239  0.61576  0.63343  1.0000
  S   S58       1.0  0.98581  0.46398  0.96919  1.0000
  H   H195      1.0  0.37941  0.45796  0.56034  1.0000
  N   N17       1.0  0.47613  0.43708  0.76665  1.0000
  H   H196      1.0  0.05456  0.35078  0.99750  1.0000
  C   C200      1.0  0.98804  0.47769  0.86775  1.0000
  H   H197      1.0  0.17561  0.59525  0.51203  1.0000
  C   C201      1.0  0.01815  0.83662  0.06517  1.0000
  S   S59       1.0  0.98822  0.93223  0.07815  1.0000
  C   C202      1.0  0.99151  0.76047  0.17339  1.0000
  S   S60       1.0  0.36919  0.71088  0.14248  1.0000
  C   C203      1.0  0.46671  0.71336  0.19501  1.0000
  S   S61       1.0  0.34108  0.71883  0.22587  1.0000
  H   H198      1.0  0.43378  0.70929  0.12396  1.0000
  Fe  Fe31      1.0  0.32473  0.71407  0.16713  1.0000
  S   S62       1.0  0.29314  0.74437  0.14527  1.0000
  Fe  Fe32      1.0  0.38523  0.71191  0.20192  1.0000
  S   S63       1.0  0.41941  0.74133  0.21904  1.0000
  Fe  Fe33      1.0  0.12302  0.80331  0.23303  1.0000
  S   S64       1.0  0.11113  0.76147  0.22339  1.0000
  S   S65       1.0  0.14825  0.81375  0.28596  1.0000
  Fe  Fe34      1.0  0.09666  0.82004  0.15707  1.0000
  S   S66       1.0  0.08376  0.77826  0.14269  1.0000
  S   S67       1.0  0.09086  0.85219  0.11250  1.0000
  Fe  Fe35      1.0  0.06874  0.77674  0.20277  1.0000
  S   S68       1.0  0.03147  0.75610  0.23113  1.0000
  Fe  Fe36      1.0  0.12778  0.76710  0.16509  1.0000
  S   S69       1.0  0.15678  0.73339  0.14715  1.0000
  S   S70       1.0  0.07925  0.81890  0.21634  1.0000
  S   S71       1.0  0.14192  0.80864  0.17525  1.0000
  Fe  Fe37      1.0  0.19806  0.73239  0.46099  1.0000
  S   S72       1.0  0.22504  0.69576  0.46696  1.0000
  S   S73       1.0  0.16106  0.73151  0.41926  1.0000
  Fe  Fe38      1.0  0.26265  0.72363  0.46496  1.0000
  S   S74       1.0  0.30405  0.72125  0.43116  1.0000
  S   S75       1.0  0.23572  0.75951  0.45497  1.0000
  C   C204      1.0  0.15481  0.78962  0.32096  1.0000
  C   C205      1.0  0.17111  0.79621  0.35298  1.0000
  C   C206      1.0  0.17448  0.77810  0.38271  1.0000
  C   C207      1.0  0.16145  0.75329  0.38059  1.0000
  C   C208      1.0  0.14598  0.74644  0.34812  1.0000
  C   C209      1.0  0.14267  0.76448  0.31855  1.0000
  H   H199      1.0  0.18053  0.81563  0.35526  1.0000
  H   H200      1.0  0.18618  0.78371  0.40782  1.0000
  H   H201      1.0  0.13575  0.72733  0.34634  1.0000
  H   H202      1.0  0.12972  0.75913  0.29474  1.0000
  C   C210      1.0  0.45469  0.73810  0.20180  1.0000
  N   N18       1.0  0.44206  0.94496  0.10383  1.0000
  H   H203      1.0  0.10625  0.78396  0.41289  1.0000
  C   C211      1.0  0.99764  0.75108  0.20954  1.0000
  C   C212      1.0  0.01334  0.82237  0.09828  1.0000
  C   C213      1.0  0.42960  0.96927  0.10156  1.0000
  C   C214      1.0  0.42668  0.92221  0.08820  1.0000
  H   H204      1.0  0.00803  0.77073  0.15768  1.0000
  H   H205      1.0  0.42494  0.92432  0.05710  1.0000
  C   C215      1.0  0.21322  0.72027  0.25443  1.0000
  C   C216      1.0  0.25542  0.74122  0.15065  1.0000
  C   C217      1.0  0.24231  0.71676  0.15644  1.0000
  C   C218      1.0  0.21197  0.71461  0.15580  1.0000
  C   C219      1.0  0.19462  0.73696  0.15049  1.0000
  C   C220      1.0  0.20779  0.76149  0.14594  1.0000
  C   C221      1.0  0.23807  0.76354  0.14559  1.0000
  H   H206      1.0  0.25549  0.69939  0.15997  1.0000
  H   H207      1.0  0.20186  0.69556  0.15920  1.0000
  H   H208      1.0  0.19465  0.77877  0.14139  1.0000
  H   H209      1.0  0.24808  0.78249  0.14078  1.0000
  C   C222      1.0  0.30995  0.67608  0.31941  1.0000
  C   C223      1.0  0.29649  0.70730  0.06604  1.0000
  C   C224      1.0  0.28450  0.68529  0.37823  1.0000
  C   C225      1.0  0.30513  0.70433  0.38765  1.0000
  C   C226      1.0  0.32785  0.70948  0.36253  1.0000
  C   C227      1.0  0.33007  0.69566  0.32833  1.0000
  H   H210      1.0  0.26697  0.68109  0.39741  1.0000
  H   H211      1.0  0.34396  0.72409  0.36965  1.0000
  H   H212      1.0  0.34782  0.69965  0.30940  1.0000
  C   C228      1.0  0.06393  0.87682  0.10672  1.0000
  C   C229      1.0  0.06564  0.89371  0.07540  1.0000
  C   C230      1.0  0.04345  0.91189  0.06745  1.0000
  C   C231      1.0  0.01903  0.91316  0.09053  1.0000
  C   C232      1.0  0.01778  0.89691  0.12260  1.0000
  C   C233      1.0  0.04013  0.87893  0.13079  1.0000
  H   H213      1.0  0.08404  0.89239  0.05674  1.0000
  H   H214      1.0  0.04480  0.92428  0.04276  1.0000
  H   H215      1.0  0.23022  0.68122  0.07627  1.0000
  H   H216      1.0  0.03857  0.86622  0.15511  1.0000
  H   H217      1.0  0.25105  0.82049  0.46591  1.0000
  N   N19       1.0  0.24134  0.72856  0.25279  1.0000
  C   C234      1.0  0.24770  0.75425  0.24490  1.0000
  C   C235      1.0  0.22556  0.77259  0.23956  1.0000
  C   C236      1.0  0.19686  0.76436  0.24156  1.0000
  C   C237      1.0  0.26496  0.70972  0.25767  1.0000
  H   H218      1.0  0.27001  0.76057  0.24218  1.0000
  H   H219      1.0  0.23055  0.79294  0.23314  1.0000
  H   H220      1.0  0.27434  0.70450  0.22992  1.0000
  H   H221      1.0  0.28228  0.71815  0.27573  1.0000
  H   H222      1.0  0.25762  0.69132  0.27164  1.0000
  N   N20       1.0  0.06805  0.76344  0.33703  1.0000
  C   C238      1.0  0.06839  0.78603  0.31615  1.0000
  C   C239      1.0  0.08101  0.76271  0.37169  1.0000
  C   C240      1.0  0.08210  0.80865  0.32973  1.0000
  C   C241      1.0  0.09488  0.78499  0.38617  1.0000
  C   C242      1.0  0.09549  0.80805  0.36491  1.0000
  C   C243      1.0  0.05457  0.73981  0.32118  1.0000
  H   H223      1.0  0.05854  0.78648  0.28844  1.0000
  H   H224      1.0  0.08168  0.74462  0.38784  1.0000
  H   H225      1.0  0.08338  0.82618  0.31238  1.0000
  H   H226      1.0  0.26806  0.81220  0.42190  1.0000
  H   H227      1.0  0.46255  0.77986  0.20317  1.0000
  H   H228      1.0  0.03184  0.74401  0.31291  1.0000
  H   H229      1.0  0.06648  0.73354  0.29552  1.0000
  H   H230      1.0  0.43837  0.90350  0.09364  1.0000
  H   H231      1.0  0.30713  0.72601  0.06111  1.0000
  N   N21       1.0  0.47008  0.69124  0.09809  1.0000
  H   H232      1.0  0.10730  0.82511  0.37497  1.0000
  H   H233      1.0  0.16829  0.73142  0.24961  1.0000
  Fe  Fe39      1.0  0.33822  0.67507  0.22900  1.0000
  H   H234      1.0  0.26080  0.74739  0.06919  1.0000
  H   H235      1.0  0.29609  0.77592  0.44302  1.0000
  H   H236      1.0  0.20814  0.69980  0.25976  1.0000
  Fe  Fe40      1.0  0.98540  0.96476  0.03351  1.0000
  C   C244      1.0  0.19057  0.73804  0.24886  1.0000
  H   H237      1.0  0.99460  0.88966  0.01977  1.0000
  C   C245      1.0  0.28713  0.67100  0.34444  1.0000
  C   C246      1.0  0.27095  0.82309  0.44878  1.0000
  H   H238      1.0  0.33681  0.68606  0.07091  1.0000
  C   C247      1.0  0.98822  0.82683  0.11898  1.0000
  H   H239      1.0  0.22854  0.72860  0.07452  1.0000
  S   S76       1.0  0.31898  0.67049  0.17106  1.0000
  C   C248      1.0  0.24960  0.72924  0.05945  1.0000
  N   N22       1.0  0.26699  0.70583  0.06763  1.0000
  C   C249      1.0  0.26989  0.65955  0.08086  1.0000
  H   H240      1.0  0.27148  0.65588  0.33772  1.0000
  H   H241      1.0  0.02941  0.80850  0.10827  1.0000
  H   H242      1.0  0.45378  0.69583  0.19893  1.0000
  H   H243      1.0  0.40474  0.92058  0.10058  1.0000
  C   C250      1.0  0.46896  0.94206  0.11932  1.0000
  H   H244      1.0  0.40853  0.97167  0.08861  1.0000
  C   C251      1.0  0.45843  0.66669  0.09369  1.0000
  H   H245      1.0  0.47896  0.92284  0.12095  1.0000
  H   H246      1.0  0.17951  0.77828  0.23683  1.0000
  C   C252      1.0  0.31340  0.68486  0.07171  1.0000
  C   C253      1.0  0.25361  0.68235  0.07480  1.0000
  H   H247      1.0  0.46433  0.77291  0.29297  1.0000
  C   C254      1.0  0.30600  0.78848  0.46405  1.0000
  S   S77       1.0  0.38418  0.66794  0.20961  1.0000
  C   C255      1.0  0.47176  0.76070  0.19763  1.0000
  C   C256      1.0  0.45079  0.71384  0.10284  1.0000
  H   H248      1.0  0.99908  0.89783  0.14078  1.0000
  H   H249      1.0  0.05437  0.72315  0.34137  1.0000
  Fe  Fe41      1.0  0.36518  0.66710  0.15096  1.0000
  H   H250      1.0  0.98841  0.66366  0.11528  1.0000
  H   H251      1.0  0.24550  0.73071  0.02876  1.0000
  C   C257      1.0  0.29997  0.66085  0.07906  1.0000
  H   H252      1.0  0.44033  0.71877  0.07562  1.0000
  H   H253      1.0  0.98440  0.81618  0.14500  1.0000
  H   H254      1.0  0.46257  0.73145  0.11341  1.0000
  H   H255      1.0  0.47053  0.72545  0.27980  1.0000
  S   S78       1.0  0.31276  0.65766  0.27732  1.0000
  H   H256      1.0  0.43518  0.66392  0.09409  1.0000
  H   H257      1.0  0.03815  0.83353  0.04989  1.0000
  C   C258      1.0  0.00365  0.86942  0.01810  1.0000
  H   H258      1.0  0.27343  0.84425  0.44184  1.0000
  N   N23       1.0  0.29600  0.81344  0.46995  1.0000
  C   C259      1.0  0.32903  0.77862  0.48525  1.0000
  H   H259      1.0  0.33645  0.75860  0.48073  1.0000
  C   C260      1.0  0.30838  0.82909  0.49685  1.0000
  N   N24       1.0  0.99863  0.85503  0.05327  1.0000
  H   H260      1.0  0.98092  0.73006  0.25752  1.0000
  H   H261      1.0  0.29971  0.84847  0.50266  1.0000
  H   H262      1.0  0.02715  0.87172  0.01251  1.0000
  S   S79       1.0  0.45145  0.98269  0.01184  1.0000
  Fe  Fe42      1.0  0.35190  0.89078  0.66199  1.0000
  S   S80       1.0  0.36128  0.92572  0.62541  1.0000
  S   S81       1.0  0.34283  0.84888  0.64182  1.0000
  Fe  Fe43      1.0  0.36705  0.92160  0.73419  1.0000
  S   S82       1.0  0.37672  0.95901  0.70306  1.0000
  S   S83       1.0  0.37389  0.91418  0.79653  1.0000
  Fe  Fe44      1.0  0.33703  0.94889  0.66920  1.0000
  H   H263      1.0  0.01238  0.95977  0.85008  1.0000
  Fe  Fe45      1.0  0.40008  0.93297  0.66223  1.0000
  S   S84       1.0  0.44396  0.94132  0.63641  1.0000
  S   S85       1.0  0.32512  0.91340  0.70372  1.0000
  S   S86       1.0  0.39288  0.89608  0.69537  1.0000
  H   H264      1.0  0.14442  0.65646  0.68662  1.0000
  C   C261      1.0  0.29707  0.86466  0.75605  1.0000
  S   S87       1.0  0.23916  0.80500  0.54148  1.0000
  H   H265      1.0  0.23473  0.96418  0.74662  1.0000
  C   C262      1.0  0.98581  0.95618  0.80011  1.0000
  C   C263      1.0  0.45784  0.98189  0.68478  1.0000
  H   H266      1.0  0.32587  0.81642  0.70355  1.0000
  H   H267      1.0  0.25465  0.84353  0.71421  1.0000
  H   H268      1.0  0.13989  0.96389  0.86072  1.0000
  H   H269      1.0  0.36665  0.82355  0.74723  1.0000
  H   H270      1.0  0.35962  0.78704  0.52945  1.0000
  H   H271      1.0  0.99985  0.94174  0.78717  1.0000
  C   C264      1.0  0.27254  0.98356  0.66927  1.0000
  S   S88       1.0  0.98220  0.95737  0.97112  1.0000
  S   S89       1.0  0.30672  0.98046  0.64769  1.0000
  H   H272      1.0  0.15837  0.97957  0.79876  1.0000
  C   C265      1.0  0.46772  0.96410  0.65775  1.0000
  Fe  Fe46      1.0  0.22346  0.70432  0.52922  1.0000
  H   H273      1.0  0.36225  0.98385  0.60891  1.0000
  N   N25       1.0  0.29930  0.84587  0.72864  1.0000
  C   C266      1.0  0.00136  0.95447  0.64362  1.0000
  S   S90       1.0  0.05612  0.97514  0.64651  1.0000
  C   C267      1.0  0.39196  0.93784  0.82449  1.0000
  C   C268      1.0  0.40461  0.93015  0.85874  1.0000
  C   C269      1.0  0.41808  0.94877  0.88233  1.0000
  S   S91       1.0  0.26402  0.72931  0.52779  1.0000
  C   C270      1.0  0.40572  0.98300  0.83794  1.0000
  C   C271      1.0  0.39291  0.96431  0.81394  1.0000
  H   H274      1.0  0.40389  0.90972  0.86714  1.0000
  H   H275      1.0  0.42767  0.94267  0.90869  1.0000
  C   C272      1.0  0.33183  0.82005  0.51808  1.0000
  H   H276      1.0  0.34133  0.83241  0.53976  1.0000
  C   C273      1.0  0.31330  0.83712  0.61483  1.0000
  C   C274      1.0  0.29214  0.85393  0.60042  1.0000
  C   C275      1.0  0.26924  0.84366  0.57873  1.0000
  C   C276      1.0  0.26739  0.81658  0.57091  1.0000
  C   C277      1.0  0.28842  0.79975  0.58564  1.0000
  C   C278      1.0  0.31119  0.81000  0.60760  1.0000
  H   H277      1.0  0.29347  0.87484  0.60582  1.0000
  H   H278      1.0  0.25299  0.85681  0.56757  1.0000
  H   H279      1.0  0.28725  0.77889  0.57986  1.0000
  H   H280      1.0  0.32745  0.79682  0.61865  1.0000
  H   H281      1.0  0.06895  0.97717  0.84836  1.0000
  C   C279      1.0  0.26636  0.97075  0.70312  1.0000
  H   H282      1.0  0.36297  0.85774  0.79711  1.0000
  C   C280      1.0  0.27622  0.84333  0.70056  1.0000
  C   C281      1.0  0.16552  0.65172  0.56575  1.0000
  S   S92       1.0  0.22060  0.67283  0.57533  1.0000
  C   C282      1.0  0.34483  0.85390  0.77846  1.0000
  H   H283      1.0  0.27814  0.87716  0.75754  1.0000
  C   C283      1.0  0.41830  0.97533  0.87220  1.0000
  C   C284      1.0  0.32370  0.83084  0.72588  1.0000
  C   C285      1.0  0.31973  0.86888  0.78144  1.0000
  H   H284      1.0  0.31844  0.88444  0.80233  1.0000
  H   H285      1.0  0.38296  0.97052  0.78788  1.0000
  H   H286      1.0  0.27804  0.82473  0.68426  1.0000
  C   C286      1.0  0.34689  0.83474  0.75054  1.0000
  H   H287      1.0  0.01181  0.93646  0.63488  1.0000
  H   H288      1.0  0.16339  0.66447  0.54152  1.0000
  H   H289      1.0  0.27763  0.85992  0.68026  1.0000
  C   C287      1.0  0.23924  0.97396  0.72024  1.0000
  C   C288      1.0  0.01823  0.97650  0.65302  1.0000
  Fe  Fe47      1.0  0.23440  0.76342  0.51801  1.0000
  C   C289      1.0  0.99302  0.96627  0.83557  1.0000
  C   C290      1.0  0.34201  0.79455  0.51242  1.0000
  H   H290      1.0  0.28261  0.95866  0.71642  1.0000
  C   C291      1.0  0.19055  0.65287  0.58779  1.0000
  S   S93       1.0  0.19371  0.73910  0.52347  1.0000
  H   H291      1.0  0.40953  0.97873  0.57726  1.0000
  H   H292      1.0  0.05797  0.97584  0.56264  1.0000
  H   H293      1.0  0.99338  0.85889  0.99423  1.0000
  H   H294      1.0  0.43599  0.98041  0.69520  1.0000
  H   H295      1.0  0.47960  0.97217  0.84591  1.0000
  C   C292      1.0  0.67817  0.30236  0.35074  1.0000
  H   H296      1.0  0.97450  0.27525  0.21658  1.0000
  H   H297      1.0  0.93079  0.13616  0.02591  1.0000
  Fe  Fe48      1.0  0.86577  0.16453  0.15270  1.0000
  S   S94       1.0  0.87321  0.20720  0.13712  1.0000
  S   S95       1.0  0.86791  0.12782  0.11537  1.0000
  Fe  Fe49      1.0  0.84485  0.17849  0.23174  1.0000
  S   S96       1.0  0.85149  0.22136  0.22282  1.0000
  S   S97       1.0  0.82257  0.16159  0.28287  1.0000
  Fe  Fe50      1.0  0.83079  0.21538  0.16644  1.0000
  S   S98       1.0  0.79902  0.24822  0.15296  1.0000
  Fe  Fe51      1.0  0.89317  0.21015  0.19484  1.0000
  S   S99       1.0  0.93020  0.23657  0.21284  1.0000
  S   S100      1.0  0.82157  0.17280  0.17700  1.0000
  S   S101      1.0  0.88834  0.16710  0.20879  1.0000
  H   H298      1.0  0.57711  0.25489  0.37318  1.0000
  S   S102      1.0  0.61857  0.26477  0.21980  1.0000
  H   H299      1.0  0.70345  0.25404  0.30738  1.0000
  S   S103      1.0  0.58867  0.28493  0.14099  1.0000
  Fe  Fe52      1.0  0.57487  0.27912  0.20133  1.0000
  S   S104      1.0  0.53952  0.25383  0.22686  1.0000
  Fe  Fe53      1.0  0.63333  0.27432  0.16163  1.0000
  S   S105      1.0  0.66294  0.24589  0.13136  1.0000
  H   H300      1.0  0.73263  0.24393  0.37195  1.0000
  H   H301      1.0  0.79092  0.21430  0.25215  1.0000
  Fe  Fe54      1.0  0.70693  0.24160  0.46130  1.0000
  S   S106      1.0  0.73565  0.20598  0.46353  1.0000
  S   S107      1.0  0.66900  0.23988  0.42102  1.0000
  Fe  Fe55      1.0  0.77176  0.23538  0.46396  1.0000
  S   S108      1.0  0.81188  0.23444  0.42751  1.0000
  S   S109      1.0  0.74311  0.27073  0.45759  1.0000
  H   H302      1.0  0.90931  0.11215  0.28433  1.0000
  C   C293      1.0  0.64702  0.27074  0.32009  1.0000
  C   C294      1.0  0.65079  0.25346  0.35054  1.0000
  C   C295      1.0  0.66798  0.26067  0.38140  1.0000
  C   C296      1.0  0.68212  0.28499  0.38113  1.0000
  C   C297      1.0  0.66024  0.29547  0.32039  1.0000
  H   H303      1.0  0.63321  0.26516  0.29701  1.0000
  H   H304      1.0  0.63983  0.23465  0.35057  1.0000
  H   H305      1.0  0.69517  0.29085  0.40498  1.0000
  H   H306      1.0  0.70142  0.23571  0.24276  1.0000
  N   N26       1.0  0.58044  0.29044  0.34157  1.0000
  C   C298      1.0  0.59221  0.31510  0.33966  1.0000
  H   H307      1.0  0.88102  0.12435  0.01493  1.0000
  C   C299      1.0  0.50371  0.25169  0.21019  1.0000
  C   C300      1.0  0.97312  0.21899  0.16499  1.0000
  H   H308      1.0  0.95911  0.20257  0.15837  1.0000
  H   H309      1.0  0.55461  0.29556  0.29202  1.0000
  H   H310      1.0  0.48482  0.13205  0.12858  1.0000
  H   H311      1.0  0.50700  0.28338  0.17026  1.0000
  C   C301      1.0  0.49310  0.26844  0.18222  1.0000
  C   C302      1.0  0.76097  0.24506  0.15183  1.0000
  C   C303      1.0  0.74388  0.26530  0.16692  1.0000
  C   C304      1.0  0.71360  0.26491  0.16291  1.0000
  C   C305      1.0  0.70025  0.24478  0.14241  1.0000
  C   C306      1.0  0.71726  0.22427  0.12800  1.0000
  C   C307      1.0  0.74746  0.22421  0.13309  1.0000
  H   H312      1.0  0.75417  0.28155  0.18134  1.0000
  H   H313      1.0  0.70079  0.28081  0.17420  1.0000
  H   H314      1.0  0.70711  0.20863  0.11210  1.0000
  H   H315      1.0  0.76041  0.20869  0.12094  1.0000
  C   C308      1.0  0.81983  0.18183  0.32308  1.0000
  C   C309      1.0  0.79719  0.17776  0.34870  1.0000
  C   C310      1.0  0.79435  0.19385  0.38073  1.0000
  C   C311      1.0  0.81460  0.21370  0.38781  1.0000
  C   C312      1.0  0.83742  0.21755  0.36237  1.0000
  C   C313      1.0  0.83988  0.20188  0.32990  1.0000
  H   H316      1.0  0.78163  0.16226  0.34362  1.0000
  H   H317      1.0  0.77676  0.19064  0.40018  1.0000
  H   H318      1.0  0.85314  0.23289  0.36765  1.0000
  H   H319      1.0  0.85749  0.20513  0.31043  1.0000
  C   C314      1.0  0.94676  0.08013  0.07552  1.0000
  C   C315      1.0  0.91890  0.06949  0.07386  1.0000
  C   C316      1.0  0.89515  0.08406  0.08727  1.0000
  C   C317      1.0  0.89894  0.10930  0.10275  1.0000
  C   C318      1.0  0.92693  0.11938  0.10621  1.0000
  C   C319      1.0  0.95067  0.10488  0.09255  1.0000
  H   H320      1.0  0.91556  0.05040  0.06110  1.0000
  H   H321      1.0  0.87360  0.07596  0.08470  1.0000
  H   H322      1.0  0.93022  0.13871  0.11825  1.0000
  C   C320      1.0  0.63932  0.30634  0.06748  1.0000
  N   N27       1.0  0.85891  0.10048  0.21733  1.0000
  C   C321      1.0  0.87051  0.10809  0.25107  1.0000
  C   C322      1.0  0.87590  0.08891  0.19058  1.0000
  C   C323      1.0  0.90015  0.10542  0.25790  1.0000
  C   C324      1.0  0.90563  0.08606  0.19633  1.0000
  C   C325      1.0  0.91781  0.09454  0.23016  1.0000
  C   C326      1.0  0.82796  0.10383  0.21004  1.0000
  H   H323      1.0  0.85698  0.11676  0.27267  1.0000
  H   H324      1.0  0.86657  0.08240  0.16414  1.0000
  H   H325      1.0  0.54707  0.26631  0.31809  1.0000
  Fe  Fe56      1.0  0.62780  0.30680  0.23307  1.0000
  N   N28       1.0  0.66817  0.31405  0.08053  1.0000
  H   H326      1.0  0.81853  0.11945  0.22817  1.0000
  H   H327      1.0  0.82429  0.11005  0.18036  1.0000
  H   H328      1.0  0.81633  0.08512  0.21542  1.0000
  H   H329      1.0  0.91912  0.07767  0.17439  1.0000
  H   H330      1.0  0.68659  0.27661  0.06806  1.0000
  C   C327      1.0  0.69039  0.29642  0.07836  1.0000
  H   H331      1.0  0.49362  0.21935  0.24713  1.0000
  C   C328      1.0  0.48546  0.23243  0.22558  1.0000
  H   H332      1.0  0.57972  0.26862  0.29075  1.0000
  N   N29       1.0  0.74777  0.24457  0.31556  1.0000
  S   S110      1.0  0.52170  0.98445  0.02823  1.0000
  H   H333      1.0  0.76983  0.25327  0.36743  1.0000
  C   C329      1.0  0.74597  0.22342  0.24341  1.0000
  C   C330      1.0  0.49712  0.17234  0.13935  1.0000
  C   C331      1.0  0.96352  0.23875  0.18927  1.0000
  S   S111      1.0  0.94637  0.99169  0.03386  1.0000
  C   C332      1.0  0.56471  0.27976  0.30916  1.0000
  C   C333      1.0  0.72134  0.23490  0.25890  1.0000
  H   H334      1.0  0.74212  0.27613  0.35400  1.0000
  C   C334      1.0  0.60184  0.28409  0.40261  1.0000
  H   H335      1.0  0.94090  0.09271  0.23479  1.0000
  H   H336      1.0  0.50346  0.21419  0.14511  1.0000
  C   C335      1.0  0.74816  0.25501  0.35405  1.0000
  C   C336      1.0  0.77162  0.22307  0.26401  1.0000
  H   H337      1.0  0.79229  0.23400  0.31566  1.0000
  C   C337      1.0  0.77220  0.23405  0.30010  1.0000
  H   H338      1.0  0.74526  0.21496  0.21540  1.0000
  C   C338      1.0  0.72263  0.24533  0.29533  1.0000
  C   C339      1.0  0.58523  0.27489  0.37239  1.0000
  H   H339      1.0  0.60673  0.27130  0.42626  1.0000
  H   H340      1.0  0.51715  0.16730  0.15352  1.0000
  C   C340      1.0  0.48948  0.19865  0.13460  1.0000
  S   S112      1.0  0.48091  0.04267  0.07426  1.0000
  H   H341      1.0  0.97216  0.11325  0.09415  1.0000
  Fe  Fe57      1.0  0.48482  0.01361  0.02519  1.0000
  C   C341      1.0  0.61371  0.30929  0.40101  1.0000
  C   C342      1.0  0.71812  0.30329  0.09061  1.0000
  H   H342      1.0  0.63802  0.30810  0.03639  1.0000
  H   H343      1.0  0.48374  0.00611  0.13910  1.0000
  H   H344      1.0  0.63448  0.28570  0.07582  1.0000
  S   S113      1.0  0.64541  0.31568  0.17574  1.0000
  S   S114      1.0  0.97676  0.06463  0.05364  1.0000
  Fe  Fe58      1.0  0.97792  0.02450  0.02434  1.0000
  H   H345      1.0  0.73548  0.28893  0.08987  1.0000
  H   H346      1.0  0.62765  0.31621  0.42353  1.0000
  Fe  Fe59      1.0  0.57235  0.03946  0.69033  1.0000
  S   S115      1.0  0.58541  0.07830  0.71529  1.0000
  S   S116      1.0  0.52376  0.03367  0.69479  1.0000
  Fe  Fe60      1.0  0.63578  0.02435  0.67870  1.0000
  S   S117      1.0  0.65291  0.06175  0.70390  1.0000
  H   H347      1.0  0.80266  0.29499  0.56171  1.0000
  Fe  Fe61      1.0  0.61813  0.05495  0.74743  1.0000
  S   S118      1.0  0.62303  0.06182  0.81004  1.0000
  Fe  Fe62      1.0  0.61854  0.08135  0.66917  1.0000
  S   S119      1.0  0.62210  0.11779  0.63176  1.0000
  S   S120      1.0  0.60372  0.01604  0.72489  1.0000
  S   S121      1.0  0.60285  0.04410  0.64149  1.0000
  C   C343      1.0  0.72031  0.21876  0.63704  1.0000
  H   H348      1.0  0.73906  0.10226  0.56106  1.0000
  S   S122      1.0  0.97559  0.02182  0.96111  1.0000
  C   C344      1.0  0.75270  0.98669  0.80619  1.0000
  H   H349      1.0  0.78665  0.24210  0.61663  1.0000
  H   H350      1.0  0.65844  0.01299  0.78823  1.0000
  C   C345      1.0  0.64252  0.08021  0.55454  1.0000
  S   S123      1.0  0.73354  0.17723  0.56863  1.0000
  S   S124      1.0  0.49394  0.02346  0.96447  1.0000
  C   C346      1.0  0.58006  0.00951  0.89947  1.0000
  C   C347      1.0  0.79929  0.31334  0.57647  1.0000
  C   C348      1.0  0.59765  0.01554  0.83516  1.0000
  C   C349      1.0  0.60524  0.04159  0.84331  1.0000
  C   C350      1.0  0.59957  0.05165  0.87934  1.0000
  C   C351      1.0  0.58675  0.03579  0.90717  1.0000
  N   N30       1.0  0.74186  0.23641  0.62953  1.0000
  H   H351      1.0  0.60207  0.00747  0.80767  1.0000
  H   H352      1.0  0.60556  0.07170  0.88598  1.0000
  H   H353      1.0  0.58340  0.04355  0.93519  1.0000
  C   C352      1.0  0.70217  0.16174  0.58695  1.0000
  C   C353      1.0  0.70521  0.14282  0.61559  1.0000
  C   C354      1.0  0.68095  0.12936  0.63003  1.0000
  C   C355      1.0  0.65333  0.13490  0.61615  1.0000
  C   C356      1.0  0.65027  0.15427  0.58816  1.0000
  C   C357      1.0  0.67453  0.16759  0.57355  1.0000
  H   H354      1.0  0.72650  0.13827  0.62635  1.0000
  H   H355      1.0  0.68363  0.11461  0.65170  1.0000
  H   H356      1.0  0.62898  0.15879  0.57736  1.0000
  H   H357      1.0  0.67184  0.18218  0.55165  1.0000
  C   C358      1.0  0.94980  0.99262  0.83403  1.0000
  C   C359      1.0  0.71271  0.00966  0.69436  1.0000
  H   H358      1.0  0.63838  0.10144  0.54929  1.0000
  H   H359      1.0  0.71095  0.03288  0.62000  1.0000
  C   C360      1.0  0.69372  0.09257  0.55699  1.0000
  H   H360      1.0  0.74961  0.02142  0.72725  1.0000
  H   H361      1.0  0.77442  0.20879  0.61518  1.0000
  C   C361      1.0  0.58549  0.99947  0.86332  1.0000
  C   C362      1.0  0.52005  0.04086  0.86003  1.0000
  Fe  Fe63      1.0  0.52726  0.99154  0.96611  1.0000
  S   S125      1.0  0.70281  0.24481  0.52435  1.0000
  H   H362      1.0  0.66207  0.25829  0.62357  1.0000
  C   C363      1.0  0.92652  0.07906  0.98003  1.0000
  S   S126      1.0  0.77340  0.23807  0.52731  1.0000
  H   H363      1.0  0.66112  0.04100  0.59837  1.0000
  H   H364      1.0  0.70168  0.29062  0.61256  1.0000
  H   H365      1.0  0.63875  0.06894  0.52825  1.0000
  H   H366      1.0  0.86863  0.98602  0.87007  1.0000
  H   H367      1.0  0.52145  0.05076  0.88702  1.0000
  C   C364      1.0  0.50389  0.00532  0.68256  1.0000
  H   H368      1.0  0.77911  0.22506  0.66022  1.0000
  H   H369      1.0  0.62649  0.07408  0.57610  1.0000
  H   H370      1.0  0.72548  0.19847  0.64361  1.0000
  C   C365      1.0  0.70632  0.04981  0.60246  1.0000
  C   C366      1.0  0.50349  0.01799  0.85614  1.0000
  C   C367      1.0  0.72842  0.06700  0.59204  1.0000
  H   H371      1.0  0.68899  0.10959  0.53961  1.0000
  H   H372      1.0  0.75034  0.06364  0.60180  1.0000
  C   C368      1.0  0.53359  0.03739  0.79472  1.0000
  C   C369      1.0  0.72216  0.08850  0.56904  1.0000
  H   H373      1.0  0.67431  0.21184  0.63932  1.0000
  Fe  Fe64      1.0  0.73433  0.21129  0.52645  1.0000
  C   C370      1.0  0.53510  0.05063  0.82902  1.0000
  H   H374      1.0  0.93512  0.00627  0.84755  1.0000
  H   H375      1.0  0.86266  0.04619  0.97551  1.0000
  H   H376      1.0  0.69989  0.02625  0.70304  1.0000
  C   C371      1.0  0.87781  0.06212  0.98071  1.0000
  Fe  Fe65      1.0  0.94654  0.98714  0.97078  1.0000
  C   C372      1.0  0.74095  0.00686  0.70809  1.0000
  H   H377      1.0  0.91450  0.04008  0.96134  1.0000
  C   C373      1.0  0.69129  0.22626  0.63483  1.0000
  C   C374      1.0  0.97410  0.00120  0.66390  1.0000
  N   N31       1.0  0.50221  0.00506  0.82240  1.0000
  C   C375      1.0  0.77203  0.22772  0.63062  1.0000
  H   H378      1.0  0.94932  0.07598  0.97452  1.0000
  C   C376      1.0  0.70662  0.27037  0.61981  1.0000
  C   C377      1.0  0.67811  0.05455  0.59009  1.0000
  N   N32       1.0  0.67207  0.07592  0.56804  1.0000
  H   H379      1.0  0.70710  0.01772  0.81616  1.0000
  C   C378      1.0  0.93788  0.12356  0.00207  1.0000
  C   C379      1.0  0.68446  0.25224  0.62596  1.0000
  H   H380      1.0  0.54539  0.04474  0.77053  1.0000
  H   H381      1.0  0.54836  0.06817  0.83164  1.0000
  H   H382      1.0  0.76345  0.00343  0.79171  1.0000
  C   C380      1.0  0.70256  0.00093  0.79826  1.0000
  C   C381      1.0  0.73538  0.26208  0.62186  1.0000
  H   H383      1.0  0.94028  0.13582  0.97642  1.0000
  Fe  Fe66      1.0  0.74200  0.27132  0.52093  1.0000
  H   H384      1.0  0.53604  0.98867  0.64595  1.0000
  H   H385      1.0  0.75244  0.27626  0.61661  1.0000
  C   C382      1.0  0.90702  0.05864  0.97272  1.0000
  H   H386      1.0  0.96361  0.01952  0.67107  1.0000
  S   S127      1.0  0.66502  0.99312  0.65419  1.0000
  C   C383      1.0  0.51439  0.98671  0.65709  1.0000
  S   S128      1.0  0.74174  0.30983  0.55413  1.0000
  C   C384      1.0  0.70104  0.99074  0.67020  1.0000
  H   H387      1.0  0.51567  0.00447  0.76498  1.0000
  H   H388      1.0  0.92305  0.98757  0.78509  1.0000
  C   C385      1.0  0.51686  0.01454  0.79184  1.0000
  S   S129      1.0  0.90636  0.98745  0.93433  1.0000
  C   C386      1.0  0.75772  0.98498  0.69821  1.0000
  S   S130      1.0  0.57023  0.98790  0.93628  1.0000
  C   C387      1.0  0.88844  0.10605  0.00252  1.0000
  C   C388      1.0  0.97493  0.98467  0.85250  1.0000
  C   C389      1.0  0.86836  0.08598  0.99566  1.0000
  H   H389      1.0  0.49173  0.01063  0.88030  1.0000
  N   N33       1.0  0.91715  0.10228  0.99512  1.0000
  C   C390      1.0  0.67497  0.99838  0.78248  1.0000
  H   H390      1.0  0.84574  0.08883  0.00245  1.0000
  H   H391      1.0  0.84356  0.31650  0.59509  1.0000
  H   H392      1.0  0.75170  0.99065  0.83689  1.0000
  H   H393      1.0  0.95939  0.11550  0.01009  1.0000
  H   H394      1.0  0.49995  0.37426  0.06956  1.0000
  S   S131      1.0  0.49930  0.42364  0.03022  1.0000
  H   H395      1.0  0.82648  0.64024  0.38595  1.0000
  H   H396      1.0  0.70385  0.36600  0.11784  1.0000
  S   S132      1.0  0.59818  0.36379  0.12338  1.0000
  C   C391      1.0  0.57013  0.38006  0.09795  1.0000
  C   C392      1.0  0.57618  0.40442  0.08077  1.0000
  C   C393      1.0  0.55493  0.41795  0.05982  1.0000
  C   C394      1.0  0.52727  0.40722  0.05559  1.0000
  C   C395      1.0  0.52119  0.38287  0.07278  1.0000
  C   C396      1.0  0.54240  0.36940  0.09393  1.0000
  H   H397      1.0  0.59754  0.41288  0.08355  1.0000
  Fe  Fe67      1.0  0.59971  0.32632  0.15931  1.0000
  C   C397      1.0  0.67298  0.33900  0.09358  1.0000
  H   H398      1.0  0.53737  0.35066  0.10677  1.0000
  H   H399      1.0  0.95300  0.53344  0.15437  1.0000
  S   S133      1.0  0.51843  0.50065  0.02917  1.0000
  H   H400      1.0  0.52025  0.63118  0.08516  1.0000
  H   H401      1.0  0.96805  0.32310  0.07484  1.0000
  S   S134      1.0  0.86317  0.61630  0.14259  1.0000
  H   H402      1.0  0.94111  0.51435  0.11456  1.0000
  H   H403      1.0  0.95209  0.46118  0.15361  1.0000
  C   C398      1.0  0.94885  0.51311  0.14412  1.0000
  C   C399      1.0  0.94353  0.57324  0.09725  1.0000
  C   C400      1.0  0.91604  0.56787  0.08281  1.0000
  C   C401      1.0  0.89166  0.58090  0.09750  1.0000
  C   C402      1.0  0.89445  0.59947  0.12666  1.0000
  C   C403      1.0  0.92191  0.60453  0.14151  1.0000
  C   C404      1.0  0.94627  0.59137  0.12697  1.0000
  H   H404      1.0  0.91356  0.55389  0.06007  1.0000
  H   H405      1.0  0.87049  0.57674  0.08596  1.0000
  H   H406      1.0  0.92438  0.61867  0.16404  1.0000
  H   H407      1.0  0.82382  0.63899  0.31631  1.0000
  C   C405      1.0  0.80760  0.64798  0.37159  1.0000
  C   C406      1.0  0.70038  0.34644  0.10648  1.0000
  H   H408      1.0  0.56007  0.43657  0.04669  1.0000
  H   H409      1.0  0.92557  0.62577  0.04476  1.0000
  H   H410      1.0  0.65542  0.35311  0.09496  1.0000
  H   H411      1.0  0.52398  0.46145  0.09514  1.0000
  C   C407      1.0  0.97305  0.47056  0.15100  1.0000
  N   N34       1.0  0.97515  0.49714  0.14581  1.0000
  N   N35       1.0  0.48051  0.45688  0.11207  1.0000
  C   C408      1.0  0.72303  0.32837  0.10515  1.0000
  Fe  Fe68      1.0  0.97667  0.52398  0.03694  1.0000
  H   H412      1.0  0.74429  0.33367  0.11561  1.0000
  H   H413      1.0  0.51875  0.43699  0.13089  1.0000
  H   H414      1.0  0.61911  0.34408  0.36701  1.0000
  H   H415      1.0  0.68843  0.32150  0.35122  1.0000
  H   H416      1.0  0.96742  0.59555  0.13853  1.0000
  H   H417      1.0  0.51660  0.47126  0.14313  1.0000
  S   S135      1.0  0.94544  0.49016  0.03553  1.0000
  C   C409      1.0  0.51145  0.45662  0.12092  1.0000
  H   H418      1.0  0.93139  0.50471  0.16187  1.0000
  H   H419      1.0  0.97595  0.62985  0.06706  1.0000
  H   H420      1.0  0.58987  0.32689  0.31436  1.0000
  C   C410      1.0  0.60884  0.32496  0.36941  1.0000
  H   H421      1.0  0.87472  0.63354  0.05941  1.0000
  S   S136      1.0  0.97508  0.55807  0.07900  1.0000
  C   C411      1.0  0.93093  0.64089  0.06515  1.0000
  C   C412      1.0  0.95952  0.64316  0.07763  1.0000
  C   C413      1.0  0.80610  0.64729  0.33239  1.0000
  C   C414      1.0  0.50620  0.64810  0.08856  1.0000
  S   S137      1.0  0.58316  0.32110  0.21873  1.0000
  S   S138      1.0  0.65293  0.31890  0.28500  1.0000
  H   H422      1.0  0.62225  0.31892  0.08016  1.0000
  Fe  Fe69      1.0  0.85201  0.40247  0.67088  1.0000
  S   S139      1.0  0.84592  0.44360  0.64821  1.0000
  S   S140      1.0  0.84875  0.36406  0.63777  1.0000
  Fe  Fe70      1.0  0.87578  0.42276  0.74610  1.0000
  S   S141      1.0  0.87106  0.46474  0.72913  1.0000
  S   S142      1.0  0.89524  0.41069  0.80192  1.0000
  Fe  Fe71      1.0  0.82793  0.45244  0.70579  1.0000
  S   S143      1.0  0.79281  0.48089  0.72341  1.0000
  Fe  Fe72      1.0  0.88959  0.45236  0.67388  1.0000
  S   S144      1.0  0.92273  0.47911  0.64616  1.0000
  S   S145      1.0  0.83131  0.41085  0.72703  1.0000
  S   S146      1.0  0.89716  0.41086  0.69208  1.0000
  Fe  Fe73      1.0  0.94949  0.49294  0.97244  1.0000
  S   S147      1.0  0.91229  0.49511  0.93116  1.0000
  H   H423      1.0  0.63325  0.63316  0.54933  1.0000
  C   C415      1.0  0.75618  0.47934  0.70962  1.0000
  C   C416      1.0  0.71680  0.46088  0.67274  1.0000
  C   C417      1.0  0.74594  0.46044  0.68429  1.0000
  H   H424      1.0  0.70903  0.44641  0.65280  1.0000
  H   H425      1.0  0.76048  0.44568  0.67332  1.0000
  C   C418      1.0  0.96030  0.47798  0.65580  1.0000
  C   C419      1.0  0.50841  0.48925  0.65720  1.0000
  H   H426      1.0  0.87529  0.36948  0.56479  1.0000
  H   H427      1.0  0.52977  0.49207  0.64546  1.0000
  C   C420      1.0  0.97785  0.49913  0.64453  1.0000
  C   C421      1.0  0.90134  0.43475  0.83673  1.0000
  C   C422      1.0  0.91647  0.42796  0.86956  1.0000
  C   C423      1.0  0.92085  0.44656  0.89831  1.0000
  C   C424      1.0  0.90991  0.47201  0.89443  1.0000
  C   C425      1.0  0.89528  0.47894  0.86132  1.0000
  C   C426      1.0  0.89093  0.46037  0.83261  1.0000
  H   H428      1.0  0.92454  0.40814  0.87296  1.0000
  H   H429      1.0  0.93195  0.44099  0.92392  1.0000
  H   H430      1.0  0.88687  0.49865  0.85813  1.0000
  H   H431      1.0  0.87905  0.46584  0.80771  1.0000
  C   C427      1.0  0.81859  0.34955  0.61464  1.0000
  C   C428      1.0  0.49336  0.45652  0.82416  1.0000
  H   H432      1.0  0.65312  0.51184  0.59890  1.0000
  H   H433      1.0  0.93688  0.38800  0.62638  1.0000
  C   C429      1.0  0.73523  0.52434  0.63184  1.0000
  Fe  Fe74      1.0  0.57086  0.53378  0.69789  1.0000
  S   S148      1.0  0.58516  0.57525  0.71019  1.0000
  S   S149      1.0  0.52333  0.52627  0.71115  1.0000
  Fe  Fe75      1.0  0.63378  0.51587  0.68686  1.0000
  S   S150      1.0  0.65221  0.55568  0.69985  1.0000
  S   S151      1.0  0.66218  0.48191  0.66853  1.0000
  Fe  Fe76      1.0  0.61877  0.55592  0.74618  1.0000
  S   S152      1.0  0.62716  0.57104  0.80483  1.0000
  Fe  Fe77      1.0  0.61695  0.57120  0.66254  1.0000
  S   S153      1.0  0.62292  0.60011  0.61350  1.0000
  S   S154      1.0  0.60341  0.51487  0.73624  1.0000
  S   S155      1.0  0.59969  0.53101  0.64701  1.0000
  C   C430      1.0  0.67167  0.63030  0.63068  1.0000
  Fe  Fe78      1.0  0.52970  0.51204  0.96968  1.0000
  S   S156      1.0  0.57316  0.53058  0.95813  1.0000
  C   C431      1.0  0.58889  0.53807  0.91407  1.0000
  C   C432      1.0  0.57821  0.52869  0.87953  1.0000
  C   C433      1.0  0.59080  0.53726  0.84530  1.0000
  C   C434      1.0  0.61366  0.55552  0.84579  1.0000
  C   C435      1.0  0.62471  0.56393  0.88038  1.0000
  C   C436      1.0  0.61262  0.55511  0.91416  1.0000
  H   H434      1.0  0.56012  0.51521  0.87925  1.0000
  H   H435      1.0  0.58220  0.53053  0.81868  1.0000
  H   H436      1.0  0.64242  0.57785  0.88110  1.0000
  H   H437      1.0  0.62125  0.56219  0.94063  1.0000
  C   C437      1.0  0.50777  0.55218  0.84896  1.0000
  H   H438      1.0  0.53083  0.48151  0.81915  1.0000
  C   C438      1.0  0.64992  0.62439  0.60461  1.0000
  H   H439      1.0  0.94718  0.48263  0.74951  1.0000
  C   C439      1.0  0.72046  0.56977  0.63301  1.0000
  C   C440      1.0  0.89379  0.44333  0.57033  1.0000
  C   C441      1.0  0.64994  0.63758  0.56974  1.0000
  C   C442      1.0  0.73707  0.49835  0.72369  1.0000
  C   C443      1.0  0.70801  0.49877  0.71219  1.0000
  C   C444      1.0  0.69780  0.48019  0.68640  1.0000
  H   H440      1.0  0.74480  0.51300  0.74336  1.0000
  H   H441      1.0  0.69360  0.51362  0.72310  1.0000
  C   C445      1.0  0.82608  0.41477  0.84115  1.0000
  C   C446      1.0  0.56305  0.60224  0.87728  1.0000
  C   C447      1.0  0.49998  0.50363  0.68884  1.0000
  H   H442      1.0  0.72435  0.59014  0.64059  1.0000
  H   H443      1.0  0.74685  0.35785  0.59628  1.0000
  C   C448      1.0  0.52497  0.56899  0.87071  1.0000
  H   H444      1.0  0.93706  0.36922  0.58309  1.0000
  C   C449      1.0  0.79120  0.36112  0.61474  1.0000
  C   C450      1.0  0.51570  0.46878  0.80449  1.0000
  C   C451      1.0  0.96592  0.47920  0.80515  1.0000
  H   H445      1.0  0.94760  0.46852  0.81627  1.0000
  H   H446      1.0  0.84476  0.40699  0.85742  1.0000
  H   H447      1.0  0.84297  0.40182  0.53475  1.0000
  H   H448      1.0  0.76023  0.55540  0.65717  1.0000
  H   H449      1.0  0.53575  0.47402  0.75020  1.0000
  H   H450      1.0  0.58454  0.60577  0.86415  1.0000
  H   H451      1.0  0.49089  0.45970  0.85423  1.0000
  H   H452      1.0  0.80380  0.44934  0.79253  1.0000
  H   H453      1.0  0.66698  0.52615  0.55584  1.0000
  C   C452      1.0  0.54898  0.58429  0.81583  1.0000
  N   N36       1.0  0.82286  0.44317  0.84665  1.0000
  C   C453      1.0  0.83104  0.45436  0.88006  1.0000
  C   C454      1.0  0.81064  0.45818  0.81891  1.0000
  C   C455      1.0  0.82783  0.48140  0.88595  1.0000
  C   C456      1.0  0.80706  0.48526  0.82389  1.0000
  C   C457      1.0  0.81584  0.49692  0.85758  1.0000
  H   H454      1.0  0.84103  0.44256  0.90192  1.0000
  H   H455      1.0  0.83540  0.49033  0.91196  1.0000
  H   H456      1.0  0.79769  0.49709  0.80154  1.0000
  H   H457      1.0  0.81352  0.51796  0.86157  1.0000
  H   H458      1.0  0.83067  0.41013  0.81119  1.0000
  H   H459      1.0  0.80606  0.40443  0.84989  1.0000
  C   C458      1.0  0.53205  0.56780  0.79328  1.0000
  H   H460      1.0  0.55180  0.62130  0.88091  1.0000
  H   H461      1.0  0.56731  0.59344  0.90543  1.0000
  C   C459      1.0  0.66264  0.52983  0.58609  1.0000
  H   H462      1.0  0.67954  0.57779  0.60719  1.0000
  H   H463      1.0  0.93041  0.43117  0.60296  1.0000
  H   H464      1.0  0.56555  0.59628  0.80263  1.0000
  C   C460      1.0  0.76798  0.34879  0.59590  1.0000
  C   C461      1.0  0.70940  0.51796  0.61345  1.0000
  Fe  Fe79      1.0  0.49827  0.46478  0.00355  1.0000
  H   H465      1.0  0.95991  0.43979  0.68193  1.0000
  C   C462      1.0  0.51850  0.46451  0.76586  1.0000
  H   H466      1.0  0.52238  0.56895  0.90108  1.0000
  H   H467      1.0  0.85476  0.44961  0.53848  1.0000
  C   C463      1.0  0.91144  0.42457  0.58763  1.0000
  S   S157      1.0  0.51275  0.47467  0.94451  1.0000
  N   N37       1.0  0.68950  0.53700  0.60547  1.0000
  H   H468      1.0  0.89902  0.46410  0.57264  1.0000
  S   S158      1.0  0.48918  0.53538  0.96184  1.0000
  H   H469      1.0  0.67190  0.62046  0.65769  1.0000
  C   C464      1.0  0.88077  0.39022  0.56618  1.0000
  C   C465      1.0  0.69501  0.56269  0.61428  1.0000
  H   H470      1.0  0.64612  0.54564  0.58841  1.0000
  H   H471      1.0  0.78784  0.37948  0.62946  1.0000
  C   C466      1.0  0.74059  0.55037  0.64207  1.0000
  C   C467      1.0  0.86242  0.40846  0.54901  1.0000
  H   H472      1.0  0.70496  0.49755  0.60660  1.0000
  N   N38       1.0  0.54548  0.58453  0.85409  1.0000
  H   H473      1.0  0.75062  0.50907  0.63903  1.0000
  C   C468      1.0  0.82248  0.32564  0.59537  1.0000
  C   C469      1.0  0.96558  0.48716  0.76744  1.0000
  H   H474      1.0  0.49187  0.53959  0.86234  1.0000
  H   H475      1.0  0.90967  0.36372  0.61862  1.0000
  H   H476      1.0  0.96812  0.51597  0.63090  1.0000
  C   C470      1.0  0.86900  0.43520  0.55119  1.0000
  C   C471      1.0  0.51143  0.55155  0.80999  1.0000
  C   C472      1.0  0.77187  0.32486  0.57664  1.0000
  H   H477      1.0  0.49563  0.46043  0.61578  1.0000
  C   C473      1.0  0.48905  0.47133  0.64049  1.0000
  N   N39       1.0  0.90452  0.39843  0.58594  1.0000
  C   C474      1.0  0.92307  0.37891  0.60429  1.0000
  C   C475      1.0  0.49856  0.44829  0.74734  1.0000
  C   C476      1.0  0.97314  0.45623  0.67316  1.0000
  H   H478      1.0  0.53518  0.56737  0.76305  1.0000
  S   S159      1.0  0.97800  0.52878  0.97397  1.0000
  H   H479      1.0  0.49846  0.53844  0.79271  1.0000
  H   H480      1.0  0.50082  0.44521  0.71727  1.0000
  H   H481      1.0  0.97324  0.49121  0.88302  1.0000
  C   C477      1.0  0.69319  0.64899  0.62180  1.0000
  H   H482      1.0  0.95865  0.87439  0.06421  1.0000
  H   H483      1.0  0.56053  0.85074  0.02664  1.0000
  H   H484      1.0  0.58713  0.74707  0.28088  1.0000
  S   S160      1.0  0.84298  0.68955  0.15926  1.0000
  Fe  Fe80      1.0  0.87063  0.67640  0.26006  1.0000
  S   S161      1.0  0.85480  0.71601  0.24243  1.0000
  C   C478      1.0  0.73593  0.68178  0.31484  1.0000
  Fe  Fe81      1.0  0.81913  0.69332  0.21424  1.0000
  S   S162      1.0  0.77329  0.70287  0.23262  1.0000
  Fe  Fe82      1.0  0.88031  0.70855  0.18965  1.0000
  S   S163      1.0  0.90825  0.73742  0.15776  1.0000
  Fe  Fe83      1.0  0.61124  0.79364  0.23590  1.0000
  S   S164      1.0  0.61943  0.75608  0.20519  1.0000
  S   S165      1.0  0.61743  0.79767  0.29891  1.0000
  Fe  Fe84      1.0  0.59393  0.82341  0.16354  1.0000
  S   S166      1.0  0.60153  0.78767  0.12742  1.0000
  S   S167      1.0  0.58572  0.86510  0.14167  1.0000
  Fe  Fe85      1.0  0.57868  0.76556  0.17369  1.0000
  S   S168      1.0  0.54875  0.73084  0.16467  1.0000
  Fe  Fe86      1.0  0.64156  0.78128  0.16244  1.0000
  S   S169      1.0  0.68541  0.77190  0.13776  1.0000
  S   S170      1.0  0.56845  0.80162  0.20785  1.0000
  S   S171      1.0  0.63593  0.81858  0.19512  1.0000
  Fe  Fe87      1.0  0.72394  0.73356  0.44674  1.0000
  S   S172      1.0  0.74786  0.69872  0.47078  1.0000
  S   S173      1.0  0.70571  0.72502  0.38845  1.0000
  Fe  Fe88      1.0  0.78399  0.72746  0.47846  1.0000
  S   S174      1.0  0.83110  0.71943  0.46777  1.0000
  S   S175      1.0  0.76147  0.76140  0.45160  1.0000
  C   C479      1.0  0.64207  0.77734  0.32345  1.0000
  C   C480      1.0  0.65420  0.75507  0.30665  1.0000
  C   C481      1.0  0.67343  0.73912  0.32710  1.0000
  C   C482      1.0  0.68099  0.74543  0.36435  1.0000
  C   C483      1.0  0.66915  0.76784  0.38104  1.0000
  C   C484      1.0  0.64960  0.78362  0.36072  1.0000
  H   H485      1.0  0.64874  0.75002  0.27799  1.0000
  H   H486      1.0  0.68253  0.72187  0.31388  1.0000
  H   H487      1.0  0.67484  0.77291  0.40969  1.0000
  H   H488      1.0  0.64032  0.80081  0.37393  1.0000
  C   C485      1.0  0.94254  0.74281  0.17791  1.0000
  H   H489      1.0  0.82095  0.77635  0.48116  1.0000
  H   H490      1.0  0.74371  0.75229  0.32835  1.0000
  C   C486      1.0  0.51281  0.73398  0.17975  1.0000
  C   C487      1.0  0.50074  0.75867  0.18647  1.0000
  C   C488      1.0  0.94889  0.73318  0.21379  1.0000
  S   S176      1.0  0.88355  0.66775  0.32000  1.0000
  H   H491      1.0  0.77470  0.77350  0.32203  1.0000
  H   H492      1.0  0.51360  0.77623  0.18277  1.0000
  H   H493      1.0  0.93258  0.72271  0.22963  1.0000
  C   C489      1.0  0.74857  0.72022  0.20420  1.0000
  C   C490      1.0  0.75636  0.73033  0.16905  1.0000
  C   C491      1.0  0.73648  0.74550  0.14835  1.0000
  C   C492      1.0  0.70883  0.75075  0.16275  1.0000
  C   C493      1.0  0.70104  0.74039  0.19778  1.0000
  C   C494      1.0  0.72079  0.72514  0.21835  1.0000
  H   H494      1.0  0.77775  0.72669  0.15796  1.0000
  H   H495      1.0  0.74269  0.75351  0.12132  1.0000
  H   H496      1.0  0.68002  0.74453  0.20941  1.0000
  H   H497      1.0  0.71463  0.71752  0.24559  1.0000
  C   C495      1.0  0.86827  0.68392  0.35929  1.0000
  H   H498      1.0  0.50878  0.71421  0.10042  1.0000
  C   C496      1.0  0.60873  0.92744  0.03520  1.0000
  C   C497      1.0  0.84406  0.70579  0.42524  1.0000
  C   C498      1.0  0.83166  0.71115  0.38993  1.0000
  C   C499      1.0  0.84403  0.70048  0.35682  1.0000
  C   C500      1.0  0.82937  0.79389  0.49472  1.0000
  H   H499      1.0  0.81291  0.72373  0.38809  1.0000
  H   H500      1.0  0.83456  0.70458  0.32961  1.0000
  C   C501      1.0  0.55674  0.87804  0.11477  1.0000
  C   C502      1.0  0.53465  0.86220  0.10021  1.0000
  C   C503      1.0  0.51351  0.87317  0.07628  1.0000
  C   C504      1.0  0.51435  0.89996  0.06650  1.0000
  C   C505      1.0  0.53604  0.91588  0.08177  1.0000
  C   C506      1.0  0.55699  0.90498  0.10590  1.0000
  H   H501      1.0  0.53414  0.84145  0.10691  1.0000
  C   C507      1.0  0.82650  0.84061  0.50587  1.0000
  H   H502      1.0  0.53683  0.93656  0.07486  1.0000
  H   H503      1.0  0.57390  0.91742  0.11720  1.0000
  H   H504      1.0  0.50520  0.69214  0.17955  1.0000
  C   C508      1.0  0.51790  0.67325  0.09275  1.0000
  H   H505      1.0  0.62500  0.93872  0.05015  1.0000
  C   C509      1.0  0.60597  0.90036  0.04138  1.0000
  C   C510      1.0  0.81593  0.81807  0.48814  1.0000
  C   C511      1.0  0.58327  0.85764  0.02873  1.0000
  C   C512      1.0  0.51020  0.78093  0.29310  1.0000
  H   H506      1.0  0.54116  0.67614  0.09303  1.0000
  H   H507      1.0  0.87439  0.75825  0.49892  1.0000
  N   N40       1.0  0.76039  0.66960  0.33439  1.0000
  S   S177      1.0  0.48758  0.91287  0.03593  1.0000
  C   C513      1.0  0.78552  0.65997  0.39201  1.0000
  S   S178      1.0  0.89982  0.67073  0.20981  1.0000
  C   C514      1.0  0.94491  0.67841  0.11880  1.0000
  C   C515      1.0  0.88011  0.65442  0.06566  1.0000
  C   C516      1.0  0.86856  0.68983  0.42720  1.0000
  H   H508      1.0  0.57185  0.72637  0.24474  1.0000
  C   C517      1.0  0.51718  0.72792  0.27762  1.0000
  N   N41       1.0  0.54089  0.74387  0.28067  1.0000
  H   H509      1.0  0.50779  0.80180  0.29854  1.0000
  C   C518      1.0  0.53773  0.77007  0.28841  1.0000
  H   H510      1.0  0.74508  0.68050  0.38879  1.0000
  Fe  Fe89      1.0  0.74505  0.77017  0.50990  1.0000
  H   H511      1.0  0.57306  0.71542  0.29324  1.0000
  C   C519      1.0  0.48434  0.96394  0.13236  1.0000
  H   H512      1.0  0.94998  0.69314  0.13995  1.0000
  H   H513      1.0  0.89899  0.66603  0.39681  1.0000
  C   C520      1.0  0.56966  0.73266  0.27459  1.0000
  H   H514      1.0  0.49663  0.86074  0.06493  1.0000
  H   H515      1.0  0.87844  0.68576  0.45421  1.0000
  C   C521      1.0  0.88031  0.67873  0.39461  1.0000
  N   N42       1.0  0.90984  0.65683  0.07952  1.0000
  C   C522      1.0  0.48938  0.73803  0.28284  1.0000
  N   N43       1.0  0.74347  0.77588  0.27850  1.0000
  C   C523      1.0  0.71744  0.78720  0.28683  1.0000
  C   C524      1.0  0.75574  0.77943  0.24384  1.0000
  C   C525      1.0  0.70217  0.80123  0.25941  1.0000
  C   C526      1.0  0.74133  0.79379  0.21598  1.0000
  C   C527      1.0  0.71418  0.80436  0.22368  1.0000
  C   C528      1.0  0.75890  0.76070  0.30725  1.0000
  H   H516      1.0  0.70809  0.78509  0.31463  1.0000
  H   H517      1.0  0.77631  0.77035  0.23710  1.0000
  H   H518      1.0  0.68098  0.80927  0.26572  1.0000
  H   H519      1.0  0.75051  0.79566  0.18800  1.0000
  H   H520      1.0  0.70229  0.81448  0.20166  1.0000
  H   H521      1.0  0.77064  0.74392  0.29422  1.0000
  H   H522      1.0  0.55651  0.78281  0.29067  1.0000
  C   C529      1.0  0.97384  0.85942  0.07327  1.0000
  H   H523      1.0  0.51965  0.70731  0.27045  1.0000
  C   C530      1.0  0.96390  0.75644  0.15767  1.0000
  H   H524      1.0  0.78154  0.65831  0.28358  1.0000
  H   H525      1.0  0.94890  0.84934  0.12259  1.0000
  C   C531      1.0  0.49581  0.71133  0.18423  1.0000
  H   H526      1.0  0.86434  0.66083  0.08739  1.0000
  S   S179      1.0  0.70474  0.74523  0.50296  1.0000
  C   C532      1.0  0.49941  0.69477  0.09701  1.0000
  S   S180      1.0  0.83425  0.65373  0.23414  1.0000
  H   H527      1.0  0.95911  0.76371  0.12974  1.0000
  N   N44       1.0  0.58513  0.88615  0.02304  1.0000
  C   C533      1.0  0.76197  0.67085  0.37282  1.0000
  C   C534      1.0  0.48591  0.76476  0.29024  1.0000
  Fe  Fe90      1.0  0.86165  0.65180  0.18192  1.0000
  H   H528      1.0  0.78709  0.66148  0.42242  1.0000
  H   H529      1.0  0.50599  0.96164  0.14364  1.0000
  H   H530      1.0  0.81561  0.85932  0.50218  1.0000
  C   C535      1.0  0.91660  0.67571  0.10553  1.0000
  H   H531      1.0  0.74040  0.70297  0.31039  1.0000
  H   H532      1.0  0.87719  0.66652  0.03997  1.0000
  C   C536      1.0  0.78227  0.65842  0.31411  1.0000
  H   H533      1.0  0.90005  0.68870  0.11642  1.0000
  H   H534      1.0  0.62018  0.89086  0.06156  1.0000
  H   H535      1.0  0.73217  0.67257  0.28685  1.0000
  C   C537      1.0  0.96829  0.84543  0.10642  1.0000
  H   H536      1.0  0.71570  0.67982  0.33148  1.0000
  H   H537      1.0  0.79680  0.81917  0.47050  1.0000
  H   H538      1.0  0.59108  0.85199  0.05727  1.0000
  C   C538      1.0  0.97630  0.73741  0.22958  1.0000
  C   C539      1.0  0.96645  0.66195  0.10484  1.0000
  Fe  Fe91      1.0  0.48902  0.95428  0.01126  1.0000
  Fe  Fe92      1.0  0.84966  0.90252  0.66595  1.0000
  S   S181      1.0  0.84287  0.94412  0.64486  1.0000
  S   S182      1.0  0.84362  0.86293  0.63544  1.0000
  Fe  Fe93      1.0  0.87507  0.92167  0.74125  1.0000
  S   S183      1.0  0.86933  0.96379  0.72613  1.0000
  S   S184      1.0  0.89966  0.91022  0.79391  1.0000
  Fe  Fe94      1.0  0.82597  0.95185  0.70332  1.0000
  N   N45       1.0  0.68613  0.74662  0.60911  1.0000
  Fe  Fe95      1.0  0.88693  0.95293  0.66965  1.0000
  H   H539      1.0  0.70057  0.81066  0.59087  1.0000
  S   S185      1.0  0.83021  0.90995  0.72332  1.0000
  S   S186      1.0  0.89526  0.91110  0.68586  1.0000
  H   H540      1.0  0.55024  0.88704  0.98363  1.0000
  H   H541      1.0  0.97330  0.95191  0.72695  1.0000
  H   H542      1.0  0.75063  0.75431  0.65287  1.0000
  S   S187      1.0  0.74518  0.81229  0.53211  1.0000
  S   S188      1.0  0.77034  0.73806  0.53717  1.0000
  C   C540      1.0  0.71805  0.96204  0.76728  1.0000
  C   C541      1.0  0.68266  0.77146  0.59505  1.0000
  S   S189      1.0  0.72078  0.68580  0.57778  1.0000
  C   C542      1.0  0.71818  0.96934  0.65908  1.0000
  S   S190      1.0  0.91945  0.98312  0.64852  1.0000
  C   C543      1.0  0.86547  0.76636  0.52557  1.0000
  C   C544      1.0  0.72763  0.78493  0.62358  1.0000
  S   S191      1.0  0.49674  0.95941  0.94925  1.0000
  N   N46       1.0  0.96126  0.96427  0.78202  1.0000
  Fe  Fe96      1.0  0.73144  0.71210  0.52715  1.0000
  C   C545      1.0  0.49624  0.96626  0.64451  1.0000
  H   H543      1.0  0.88100  0.81291  0.55561  1.0000
  H   H544      1.0  0.74392  0.79987  0.62886  1.0000
  H   H545      1.0  0.88312  0.76724  0.54673  1.0000
  H   H546      1.0  0.49420  0.96687  0.79979  1.0000
  H   H547      1.0  0.94499  0.93280  0.74908  1.0000
  H   H548      1.0  0.58096  0.97902  0.85737  1.0000
  C   C546      1.0  0.90102  0.93185  0.83273  1.0000
  C   C547      1.0  0.88201  0.95309  0.83599  1.0000
  C   C548      1.0  0.73135  0.75942  0.63711  1.0000
  C   C549      1.0  0.86310  0.81421  0.53598  1.0000
  C   C550      1.0  0.92355  0.94453  0.89220  1.0000
  C   C551      1.0  0.92173  0.92763  0.86096  1.0000
  C   C552      1.0  0.66454  0.72638  0.60039  1.0000
  C   C553      1.0  0.95722  0.97934  0.65367  1.0000
  H   H549      1.0  0.93955  0.94101  0.91374  1.0000
  H   H550      1.0  0.93643  0.91120  0.85864  1.0000
  C   C554      1.0  0.81389  0.84905  0.61057  1.0000
  C   C555      1.0  0.79185  0.86444  0.59507  1.0000
  C   C556      1.0  0.77062  0.85280  0.57180  1.0000
  C   C557      1.0  0.77124  0.82573  0.56360  1.0000
  C   C558      1.0  0.79276  0.81021  0.58002  1.0000
  C   C559      1.0  0.81387  0.82182  0.60341  1.0000
  H   H551      1.0  0.79160  0.88541  0.60020  1.0000
  H   H552      1.0  0.75399  0.86499  0.55944  1.0000
  H   H553      1.0  0.79348  0.78937  0.57424  1.0000
  H   H554      1.0  0.83078  0.80974  0.61533  1.0000
  C   C560      1.0  0.74646  0.96637  0.67318  1.0000
  H   H555      1.0  0.75922  0.94939  0.66548  1.0000
  H   H556      1.0  0.95819  0.93888  0.63610  1.0000
  C   C561      1.0  0.69073  0.95890  0.75098  1.0000
  H   H557      1.0  0.68670  0.94300  0.73129  1.0000
  C   C562      1.0  0.97097  0.95577  0.64437  1.0000
  H   H558      1.0  0.66802  0.71890  0.57134  1.0000
  H   H559      1.0  0.66412  0.77620  0.57764  1.0000
  H   H560      1.0  0.85803  0.85600  0.54488  1.0000
  H   H561      1.0  0.86585  0.95639  0.81450  1.0000
  H   H562      1.0  0.50404  0.95251  0.62363  1.0000
  C   C563      1.0  0.85035  0.83876  0.52976  1.0000
  C   C564      1.0  0.56694  0.89819  0.99799  1.0000
  H   H563      1.0  0.55480  0.93474  0.97119  1.0000
  H   H564      1.0  0.71348  0.72051  0.63986  1.0000
  C   C565      1.0  0.69333  0.66203  0.58682  1.0000
  H   H565      1.0  0.64229  0.73434  0.60273  1.0000
  C   C566      1.0  0.95391  0.95292  0.74530  1.0000
  C   C567      1.0  0.71023  0.74040  0.62963  1.0000
  H   H566      1.0  0.70936  0.95469  0.64017  1.0000
  H   H567      1.0  0.66616  0.70934  0.61992  1.0000
  C   C568      1.0  0.59025  0.93986  0.00975  1.0000
  C   C569      1.0  0.90440  0.96562  0.89569  1.0000
  H   H568      1.0  0.84878  0.75240  0.53609  1.0000
  C   C570      1.0  0.70315  0.79103  0.60244  1.0000
  C   C571      1.0  0.67147  0.65629  0.56086  1.0000
  H   H569      1.0  0.67118  0.66614  0.53388  1.0000
  C   C572      1.0  0.66913  0.97723  0.75861  1.0000
  H   H570      1.0  0.93753  0.96490  0.73015  1.0000
  H   H571      1.0  0.73510  0.94835  0.75983  1.0000
  C   C573      1.0  0.56923  0.92518  0.99100  1.0000
  H   H572      1.0  0.64816  0.97536  0.74519  1.0000
  H   H573      1.0  0.59657  0.84733  0.00736  1.0000
  H   H574      1.0  0.70987  0.65338  0.64222  1.0000
  C   C574      1.0  0.88356  0.96978  0.86755  1.0000
  N   N47       1.0  0.85247  0.79217  0.51862  1.0000
  H   H575      1.0  0.59214  0.96084  0.00446  1.0000
  S   S192      1.0  0.79091  0.98031  0.72159  1.0000
  H   H576      1.0  0.76666  0.96915  0.80181  1.0000
  N   N48       1.0  0.72363  0.98283  0.79066  1.0000
  C   C575      1.0  0.94311  0.98197  0.79873  1.0000
  C   C576      1.0  0.48383  0.98173  0.81827  1.0000
