data_image0
_chemical_formula_structural       SHFeSNHCHCHCH3FeSFeS3FeS2FeS2FeSFeS3C6H4C6H4C2SHCH4CFeC2SH3CSC2H2CHC6H4SC3HNH3FeHSH2CHSCSHCH4NHCFeCH2C2HNC6H8C2FeSC2HCSC3H3CFeC2S2FeHNCH3C2HCNC2H5C2H2NH2C5H2CH3CH2C2FeCSNFeSH2SNSCFeSFeS2CFeS2FeS2FeSFeS3C6H4C6H4CHNH2C4HC6H4CHCH3C5H2C2HNHC3HFeH2C3HSHS2H3C2H6CFeC3HCHC4HCHCHCSCHCNHCHFeH3CH3SHCHCSH2CNCH4SCNH3SC2HCHC5HCHC3SFeHFeS2FeS2FeSFeS4NCHCHFeSFeSHSCFeSCSC3H2CH5C6H4C2H2C7H4C6H4C2NHCHCH3CHC2HSHCNC3H2CHC2SCH3SCSCHC2H4CNH3C2SFeC2FeH3C3HC2HSHCNH4SC2NCH4CFeH2CHSCHCHCH5CFeH2C2H3CHC2SHCSHFeSFeS2CS2H2C2H2FeS2FeS2FeSFeS3H2SFeCH3CS2CSCHC4SCH2CFeHSHCH4CFeHC7H4C6H4C6H4N2C6H3C2H2CH3C2S2C2HCH3C2SCH3FeH2C3NSH3NCHCHCH3CH2C3HC2HCFeCH4CHC2SFe2SH2C2HCNH2CFeS5FeS2FeS2FeSFeS3C6H4C6H5C2H3CSHCHFeC2HCH4CH3C7H4C2HCHC4H4NC6H8CSH2C2NHCH2C2H2CHFeCSHCH3Fe2HCSCNC2SHNSCSC2H3C2SCHCH2CH3NHSC2SCFeSHFeSCNCFeSFeS3FeS2FeS2FeSFeS3C6H4C6H5CH3C4HC6H6SH2CHC2H2NH3FeHCH2SC3HCHS2C2H2FeC2NC3FeHNC6H8NC6H8CH2C2HCFeH3CSHSH2CHCH2SCFeHCSH3SC3HCH3CFeS2FeS2FeSFeS3H2CNCHCSFeSCS2FeSHSH8C2HC6H5SH3C6H4C6H4C2SC2NSHC2HNHC2FeHC2H3C2FeCSFeNH2FeHNHCH3C2HC2SHC2NH2SH3C2SFeC4HC3HFeH2SC2SHC2HCHCHC2HCSNFeSFeS2FeS2CH3FeCFeS2FeS2FeSFeS3H2FeHC2H3SCH3SHC3H2SH2CH2CH9C6H4C6H4C6H5C2SC4FeC2H2NSHNC5SH2C2HCHCNC3H2C2H3CHCHNC6H8C3SCHC3H5FeHC3HCSHCHC2H2FeCHCHCHSCFeNCHCH2CHCSFeCSH2SFeSHFeCSCH2FeS2FeS2FeSFeS3HCH3CFeSFeS3C6H4C6H5C2HFeNC2FeHC2H2CSCH4CHCHC6H5CH3NC6H2C2H4CSC2HC4SFeC2H3CH2SCH3C2NHCHC2HC2N2H3SCH2CH2CSH2NCSC2HC2H3CNHC5H5CHC2H2CHC3HCSFeSFeCSHCH2S2HC3SFeSFeS3FeS2FeS2FeSFeS3CHC2HSC3HC6H4C6H4C6H5CH3C3HCH2FeH2FeHC2HC3HCH2SC2H3C3H2C2NCHFeH2CH4NH2SCHCH3CHCHCHCHNHSCNSH4CHCSC3H2CHNC2HFeHCHCHCSNCH2CSHFeSCFeS2FeS3H2SH2FeS2FeS2FeSFeS4H3FeSH3CHC6H4C6H4C6H4C2SHCNCH2CSC2NC2H3C2HNC7HNH7CH2C3NFeC2H3CHCHC2H3C2SCFeHFeC2H3C3HS2CSHCH2CH3C2H2FeHSHCHNCHC2HCH2CHC3FeHSC2S2FeS2FeS2FeSFeS3FeHSFeS2FeH7C2HCFeCSCHSC4H3NC2SHC7H4C6H4C6H5CHFeCSC4HCH2CS2H2CHNHC2HC2HC2H5CH2NCHC3H6CFeH2C2HFeHCHSHCHSH2N2C3HSC2NHCSC2H2SCH4CH2FeHSHCSHC2H2CHFeCFeS2FeS2FeSFeS3CH3C2FeSFeS3C6H4C6H4CFeH4C2H2CHC3HNC2HCH2C4HSNH2CH3C2H2CH2SC2NFeH4C6SHC2HCHC2H2CH2NCSH3CS2H2C5HCNH2C2HCS2HSCFeC2NH2FeCH2CNCH3C3H2C2SC3H2CFeCH2FeHSH4SCHCSCSFeSFeS3FeS2FeS2FeSFeS3C4H2CH3C6H4C6H4C6H4CHC3FeHC2H3SHC4SHC2H2NFeC2S2NSH4SHC3HNC6H3FeH5FeH3CH2CHCH2CNC6H2CH2C2SHCHCH2CHCHCHCHC2HC2H3C5HFeS2FeS2HCFeS2HFeS2FeS2FeSFeS5CHFeSH2CHC7H4C6H4C6H4C2H2CHC2SCHCH2SHFeH3C3HCHCFeC5H6CHCHSHC2HNCH3CSNC6H9FeCH2S2NFeSN2HC2HCH2NHC2H5CHC2H2C6H3CH2C2HFeHSC2SHFeS2FeS2FeSFeS3FeHSFeS2CFeC2N3C4H2CHCHCH3C2HCHC2H2SC6H4C6H4C6H4FeH4SHSCNC6H8NCSCHCH2C2FeC3H4SC3H3CHFeCH2SHFeH2CH2NHC2H2C3H2CSHC2H2SC2HS2H3SHCHCHNC2
_chemical_formula_sum              "S384 H1152 Fe192 N96 C1152"
_cell_length_a       54.3279
_cell_length_b       45.0634
_cell_length_c       75.2337
_cell_angle_alpha    90.0906
_cell_angle_beta     89.539
_cell_angle_gamma    89.922

_space_group_name_H-M_alt    "P 1"
_space_group_IT_number       1

loop_
  _space_group_symop_operation_xyz
  'x, y, z'

loop_
  _atom_site_type_symbol
  _atom_site_label
  _atom_site_symmetry_multiplicity
  _atom_site_fract_x
  _atom_site_fract_y
  _atom_site_fract_z
  _atom_site_occupancy
  S   S1        1.0  0.02586  0.26976  0.24021  1.0000
  H   H1        1.0  0.15812  0.19524  0.06444  1.0000
  Fe  Fe1       1.0  0.01913  0.27004  0.21064  1.0000
  S   S2        1.0  0.04328  0.25039  0.18861  1.0000
  N   N1        1.0  0.40089  0.48297  0.20317  1.0000
  H   H2        1.0  0.41298  0.05252  0.23138  1.0000
  C   C1        1.0  0.39366  0.05063  0.17280  1.0000
  H   H3        1.0  0.37228  0.44806  0.16920  1.0000
  C   C2        1.0  0.48440  0.12926  0.26073  1.0000
  H   H4        1.0  0.38980  0.02517  0.10745  1.0000
  C   C3        1.0  0.22329  0.03143  0.12650  1.0000
  H   H5        1.0  0.26160  0.34112  0.07342  1.0000
  H   H6        1.0  0.47324  0.11460  0.25274  1.0000
  H   H7        1.0  0.40288  0.07791  0.07900  1.0000
  Fe  Fe2       1.0  0.29092  0.06001  0.12265  1.0000
  S   S3        1.0  0.27558  0.09981  0.13767  1.0000
  Fe  Fe3       1.0  0.28565  0.49421  0.11644  1.0000
  S   S4        1.0  0.25342  0.46804  0.12773  1.0000
  S   S5        1.0  0.32990  0.06001  0.11245  1.0000
  S   S6        1.0  0.31893  0.47119  0.10562  1.0000
  Fe  Fe4       1.0  0.21316  0.30265  0.11312  1.0000
  S   S7        1.0  0.17573  0.32265  0.11022  1.0000
  S   S8        1.0  0.24855  0.32889  0.11506  1.0000
  Fe  Fe5       1.0  0.19387  0.23891  0.10951  1.0000
  S   S9        1.0  0.15457  0.25467  0.10693  1.0000
  S   S10       1.0  0.20245  0.19135  0.10128  1.0000
  Fe  Fe6       1.0  0.17045  0.28907  0.08852  1.0000
  S   S11       1.0  0.15235  0.29881  0.06215  1.0000
  Fe  Fe7       1.0  0.16329  0.28655  0.12904  1.0000
  S   S12       1.0  0.14050  0.30359  0.15256  1.0000
  S   S13       1.0  0.20891  0.27186  0.08993  1.0000
  S   S14       1.0  0.20164  0.26825  0.13317  1.0000
  C   C4        1.0  0.25197  0.42970  0.12304  1.0000
  C   C5        1.0  0.27342  0.41296  0.12065  1.0000
  C   C6        1.0  0.27199  0.38214  0.11808  1.0000
  C   C7        1.0  0.24913  0.36777  0.11778  1.0000
  C   C8        1.0  0.22758  0.38447  0.11998  1.0000
  C   C9        1.0  0.22903  0.41535  0.12266  1.0000
  H   H8        1.0  0.29119  0.42358  0.12130  1.0000
  H   H9        1.0  0.28874  0.36934  0.11650  1.0000
  H   H10       1.0  0.20987  0.37360  0.11990  1.0000
  H   H11       1.0  0.21236  0.42816  0.12464  1.0000
  C   C10       1.0  0.25745  0.12688  0.12677  1.0000
  C   C11       1.0  0.24984  0.12300  0.10921  1.0000
  C   C12       1.0  0.23336  0.14330  0.10151  1.0000
  C   C13       1.0  0.22478  0.16805  0.11111  1.0000
  C   C14       1.0  0.23293  0.17245  0.12851  1.0000
  C   C15       1.0  0.24904  0.15179  0.13634  1.0000
  H   H12       1.0  0.25620  0.10402  0.10168  1.0000
  H   H13       1.0  0.22717  0.13970  0.08805  1.0000
  H   H14       1.0  0.22632  0.19132  0.13608  1.0000
  H   H15       1.0  0.25480  0.15494  0.14994  1.0000
  C   C16       1.0  0.19547  0.29503  0.04264  1.0000
  C   C17       1.0  0.16978  0.29646  0.04230  1.0000
  S   S15       1.0  0.00325  0.31611  0.21063  1.0000
  H   H16       1.0  0.20500  0.29608  0.05514  1.0000
  C   C18       1.0  0.33837  0.51681  0.03578  1.0000
  H   H17       1.0  0.13781  0.29690  0.02550  1.0000
  H   H18       1.0  0.15031  0.23357  0.05950  1.0000
  H   H19       1.0  0.43843  0.49177  0.20774  1.0000
  H   H20       1.0  0.38342  0.07464  0.09851  1.0000
  C   C19       1.0  0.20000  0.06876  0.11202  1.0000
  Fe  Fe8       1.0  0.46747  0.03452  0.20884  1.0000
  C   C20       1.0  0.20309  0.08796  0.12646  1.0000
  C   C21       1.0  0.46508  0.26199  0.25733  1.0000
  S   S16       1.0  0.49224  0.48933  0.20522  1.0000
  H   H21       1.0  0.30167  0.36724  0.07228  1.0000
  H   H22       1.0  0.26390  0.45062  0.07733  1.0000
  H   H23       1.0  0.38827  0.07139  0.17895  1.0000
  C   C22       1.0  0.41590  0.49770  0.15304  1.0000
  S   S17       1.0  0.30897  0.47745  0.05439  1.0000
  C   C23       1.0  0.37858  0.03799  0.15964  1.0000
  C   C24       1.0  0.32652  0.05348  0.02510  1.0000
  H   H24       1.0  0.40694  0.03282  0.25177  1.0000
  H   H25       1.0  0.34652  0.49336  0.17090  1.0000
  C   C25       1.0  0.26342  0.42659  0.07620  1.0000
  H   H26       1.0  0.21040  0.36155  0.06211  1.0000
  C   C26       1.0  0.11320  0.28859  0.16210  1.0000
  C   C27       1.0  0.10141  0.30416  0.17600  1.0000
  C   C28       1.0  0.07994  0.29292  0.18421  1.0000
  C   C29       1.0  0.07013  0.26581  0.17867  1.0000
  C   C30       1.0  0.08182  0.25031  0.16471  1.0000
  C   C31       1.0  0.10322  0.26163  0.15643  1.0000
  H   H27       1.0  0.10897  0.32503  0.18049  1.0000
  H   H28       1.0  0.07116  0.30510  0.19493  1.0000
  H   H29       1.0  0.07443  0.22926  0.16035  1.0000
  H   H30       1.0  0.11212  0.24937  0.14580  1.0000
  S   S18       1.0  0.27898  0.51998  0.09150  1.0000
  C   C32       1.0  0.21690  0.36518  0.07591  1.0000
  C   C33       1.0  0.39502  0.51285  0.14676  1.0000
  C   C34       1.0  0.28535  0.41069  0.07450  1.0000
  H   H31       1.0  0.04120  0.14038  0.26847  1.0000
  N   N2        1.0  0.24052  0.38094  0.07572  1.0000
  H   H32       1.0  0.22880  0.29088  0.02714  1.0000
  H   H33       1.0  0.48927  0.21172  0.25018  1.0000
  H   H34       1.0  0.37573  0.04391  0.05299  1.0000
  Fe  Fe9       1.0  0.00686  0.31462  0.24043  1.0000
  H   H35       1.0  0.44633  0.49767  0.17148  1.0000
  S   S19       1.0  0.47128  0.44647  0.24901  1.0000
  H   H36       1.0  0.23869  0.04329  0.15194  1.0000
  H   H37       1.0  0.30284  0.42236  0.07423  1.0000
  C   C35       1.0  0.32242  0.03907  0.04139  1.0000
  H   H38       1.0  0.19597  0.11049  0.12604  1.0000
  S   S20       1.0  0.02390  0.35206  0.25698  1.0000
  C   C36       1.0  0.20894  0.29234  0.02672  1.0000
  S   S21       1.0  0.27506  0.04253  0.09739  1.0000
  H   H39       1.0  0.20263  0.37775  0.08347  1.0000
  C   C37       1.0  0.16561  0.21786  0.06229  1.0000
  H   H40       1.0  0.33016  0.07708  0.02491  1.0000
  H   H41       1.0  0.38177  0.04382  0.23790  1.0000
  H   H42       1.0  0.40743  0.44199  0.18969  1.0000
  H   H43       1.0  0.02263  0.18629  0.25604  1.0000
  N   N3        1.0  0.20971  0.04071  0.11231  1.0000
  H   H44       1.0  0.17415  0.22539  0.07485  1.0000
  C   C38       1.0  0.41548  0.03651  0.17819  1.0000
  Fe  Fe10      1.0  0.31370  0.49913  0.08133  1.0000
  C   C39       1.0  0.37827  0.02804  0.06366  1.0000
  H   H45       1.0  0.21391  0.20827  0.06488  1.0000
  H   H46       1.0  0.01696  0.05082  0.25172  1.0000
  C   C40       1.0  0.01037  0.38425  0.26687  1.0000
  C   C41       1.0  0.32050  0.49457  0.03497  1.0000
  H   H47       1.0  0.22396  0.02052  0.08892  1.0000
  N   N4        1.0  0.21328  0.35929  0.16266  1.0000
  C   C42       1.0  0.21369  0.38934  0.16528  1.0000
  C   C43       1.0  0.23472  0.34390  0.15996  1.0000
  C   C44       1.0  0.23605  0.40472  0.16557  1.0000
  C   C45       1.0  0.25741  0.35852  0.16030  1.0000
  C   C46       1.0  0.25802  0.38914  0.16308  1.0000
  C   C47       1.0  0.18959  0.34398  0.16149  1.0000
  H   H48       1.0  0.19662  0.40168  0.16672  1.0000
  H   H49       1.0  0.23435  0.32033  0.15695  1.0000
  H   H50       1.0  0.23631  0.42872  0.16695  1.0000
  H   H51       1.0  0.27426  0.34635  0.15755  1.0000
  H   H52       1.0  0.27539  0.40098  0.16258  1.0000
  H   H53       1.0  0.18157  0.34724  0.14810  1.0000
  H   H54       1.0  0.19145  0.31970  0.16381  1.0000
  H   H55       1.0  0.17628  0.35241  0.17160  1.0000
  C   C48       1.0  0.20794  0.21189  0.05130  1.0000
  C   C49       1.0  0.28468  0.37980  0.07334  1.0000
  Fe  Fe11      1.0  0.31407  0.03940  0.08780  1.0000
  S   S22       1.0  0.37562  0.49472  0.13120  1.0000
  C   C50       1.0  0.22706  0.05020  0.14104  1.0000
  C   C51       1.0  0.47284  0.39391  0.26769  1.0000
  H   H56       1.0  0.42049  0.47615  0.14757  1.0000
  C   C52       1.0  0.36124  0.49002  0.18038  1.0000
  S   S23       1.0  0.32475  0.05960  0.06132  1.0000
  C   C53       1.0  0.39568  0.46135  0.19097  1.0000
  C   C54       1.0  0.15770  0.29561  0.02586  1.0000
  C   C55       1.0  0.48680  0.41628  0.25930  1.0000
  H   H57       1.0  0.46003  0.28495  0.25342  1.0000
  H   H58       1.0  0.22409  0.42384  0.07828  1.0000
  H   H59       1.0  0.19011  0.07667  0.10050  1.0000
  C   C56       1.0  0.21673  0.07855  0.14104  1.0000
  Fe  Fe12      1.0  0.48863  0.48675  0.23510  1.0000
  C   C57       1.0  0.38698  0.50828  0.20399  1.0000
  C   C58       1.0  0.17607  0.22137  0.03063  1.0000
  S   S24       1.0  0.46869  0.03679  0.23880  1.0000
  S   S25       1.0  0.43253  0.05227  0.19588  1.0000
  Fe  Fe13      1.0  0.34043  0.50955  0.11703  1.0000
  H   H60       1.0  0.22040  0.09375  0.15191  1.0000
  N   N5        1.0  0.18371  0.21751  0.04776  1.0000
  C   C59       1.0  0.24101  0.41129  0.07672  1.0000
  H   H61       1.0  0.42797  0.45676  0.21664  1.0000
  H   H62       1.0  0.21868  0.34327  0.08257  1.0000
  H   H63       1.0  0.02645  0.25458  0.15115  1.0000
  C   C60       1.0  0.38495  0.06957  0.08407  1.0000
  C   C61       1.0  0.26196  0.36519  0.07391  1.0000
  H   H64       1.0  0.45296  0.39493  0.26724  1.0000
  C   C62       1.0  0.40102  0.03552  0.23776  1.0000
  N   N6        1.0  0.49183  0.25767  0.25685  1.0000
  C   C63       1.0  0.42278  0.48031  0.21432  1.0000
  C   C64       1.0  0.37575  0.46451  0.17944  1.0000
  H   H65       1.0  0.36975  0.08180  0.07746  1.0000
  H   H66       1.0  0.36176  0.04902  0.15575  1.0000
  H   H67       1.0  0.41970  0.49065  0.22758  1.0000
  H   H68       1.0  0.37795  0.02156  0.20781  1.0000
  H   H69       1.0  0.45570  0.24644  0.24812  1.0000
  C   C65       1.0  0.43058  0.50982  0.16663  1.0000
  C   C66       1.0  0.01243  0.17313  0.26559  1.0000
  H   H70       1.0  0.19127  0.02787  0.08838  1.0000
  H   H71       1.0  0.15689  0.22597  0.02782  1.0000
  N   N7        1.0  0.38282  0.03765  0.08058  1.0000
  H   H72       1.0  0.01277  0.29503  0.17158  1.0000
  H   H73       1.0  0.45394  0.15758  0.26828  1.0000
  C   C67       1.0  0.47350  0.15369  0.26957  1.0000
  C   C68       1.0  0.22539  0.21096  0.03752  1.0000
  C   C69       1.0  0.01155  0.51216  0.26349  1.0000
  C   C70       1.0  0.20673  0.02091  0.09699  1.0000
  C   C71       1.0  0.36682  0.51206  0.19275  1.0000
  H   H74       1.0  0.24463  0.20692  0.04041  1.0000
  H   H75       1.0  0.01402  0.48903  0.26711  1.0000
  C   C72       1.0  0.00693  0.24709  0.15146  1.0000
  H   H76       1.0  0.00439  0.23257  0.16328  1.0000
  H   H77       1.0  0.00378  0.23388  0.13922  1.0000
  H   H78       1.0  0.49952  0.30223  0.26474  1.0000
  C   C73       1.0  0.50137  0.23024  0.25306  1.0000
  H   H79       1.0  0.23776  0.45232  0.48603  1.0000
  H   H80       1.0  0.05998  0.24913  0.28692  1.0000
  C   C74       1.0  0.00997  0.12953  0.28510  1.0000
  C   C75       1.0  0.48766  0.17309  0.28001  1.0000
  Fe  Fe14      1.0  0.19703  0.51754  0.45958  1.0000
  C   C76       1.0  0.23404  0.43160  0.47918  1.0000
  S   S26       1.0  0.47216  0.28589  0.30733  1.0000
  N   N8        1.0  0.38673  0.26264  0.48566  1.0000
  Fe  Fe15      1.0  0.47518  0.28475  0.33722  1.0000
  S   S27       1.0  0.44674  0.30705  0.35528  1.0000
  H   H81       1.0  0.39019  0.25778  0.45727  1.0000
  H   H82       1.0  0.06404  0.08828  0.32945  1.0000
  S   S28       1.0  0.13196  0.06043  0.40768  1.0000
  N   N9        1.0  0.31178  0.18860  0.39754  1.0000
  S   S29       1.0  0.48952  0.23804  0.33775  1.0000
  C   C77       1.0  0.38493  0.24893  0.50183  1.0000
  Fe  Fe16      1.0  0.21543  0.05484  0.43693  1.0000
  S   S30       1.0  0.24729  0.08638  0.44184  1.0000
  Fe  Fe17      1.0  0.20461  0.48427  0.42472  1.0000
  S   S31       1.0  0.21325  0.43856  0.41354  1.0000
  S   S32       1.0  0.17690  0.06256  0.44688  1.0000
  C   C78       1.0  0.10570  0.09093  0.34634  1.0000
  Fe  Fe18      1.0  0.28742  0.24990  0.43211  1.0000
  S   S33       1.0  0.32186  0.22860  0.44183  1.0000
  S   S34       1.0  0.25697  0.22198  0.42011  1.0000
  Fe  Fe19      1.0  0.30586  0.31172  0.44128  1.0000
  S   S35       1.0  0.34200  0.29428  0.45172  1.0000
  S   S36       1.0  0.30085  0.36139  0.44482  1.0000
  Fe  Fe20      1.0  0.34226  0.26490  0.42752  1.0000
  S   S37       1.0  0.37576  0.24596  0.41282  1.0000
  Fe  Fe21      1.0  0.31866  0.25969  0.46502  1.0000
  S   S38       1.0  0.32495  0.23922  0.49210  1.0000
  S   S39       1.0  0.30773  0.28461  0.41606  1.0000
  S   S40       1.0  0.28259  0.27879  0.45632  1.0000
  C   C79       1.0  0.23855  0.41769  0.42137  1.0000
  C   C80       1.0  0.24048  0.38744  0.41694  1.0000
  C   C81       1.0  0.25973  0.36989  0.42373  1.0000
  C   C82       1.0  0.27738  0.38265  0.43481  1.0000
  C   C83       1.0  0.27573  0.41302  0.43889  1.0000
  C   C84       1.0  0.25631  0.43040  0.43234  1.0000
  H   H83       1.0  0.22689  0.37747  0.40837  1.0000
  H   H84       1.0  0.26085  0.34653  0.42047  1.0000
  H   H85       1.0  0.28934  0.42305  0.44741  1.0000
  H   H86       1.0  0.25517  0.45364  0.43575  1.0000
  C   C85       1.0  0.25222  0.18537  0.42795  1.0000
  C   C86       1.0  0.26789  0.17274  0.44051  1.0000
  C   C87       1.0  0.26554  0.14262  0.44505  1.0000
  C   C88       1.0  0.24728  0.12488  0.43732  1.0000
  C   C89       1.0  0.23092  0.13773  0.42527  1.0000
  C   C90       1.0  0.23350  0.16785  0.42053  1.0000
  H   H87       1.0  0.28217  0.18597  0.44648  1.0000
  H   H88       1.0  0.27819  0.13289  0.45443  1.0000
  H   H89       1.0  0.21682  0.12425  0.41920  1.0000
  H   H90       1.0  0.22126  0.17746  0.41084  1.0000
  C   C91       1.0  0.13319  0.03906  0.34553  1.0000
  H   H91       1.0  0.27587  0.18077  0.38733  1.0000
  N   N10       1.0  0.00513  0.30343  0.29146  1.0000
  H   H92       1.0  0.06611  0.04956  0.32478  1.0000
  H   H93       1.0  0.30617  0.11100  0.41905  1.0000
  C   C92       1.0  0.38830  0.29292  0.48466  1.0000
  C   C93       1.0  0.32454  0.26162  0.51134  1.0000
  C   C94       1.0  0.32552  0.29256  0.51020  1.0000
  C   C95       1.0  0.02869  0.31381  0.29293  1.0000
  H   H94       1.0  0.32494  0.30324  0.49734  1.0000
  C   C96       1.0  0.42665  0.28940  0.37080  1.0000
  C   C97       1.0  0.40912  0.30663  0.38008  1.0000
  C   C98       1.0  0.39315  0.29369  0.39277  1.0000
  C   C99       1.0  0.39474  0.26335  0.39649  1.0000
  C   C100      1.0  0.41231  0.24612  0.38724  1.0000
  C   C101      1.0  0.42805  0.25899  0.37438  1.0000
  H   H95       1.0  0.40783  0.33017  0.37743  1.0000
  H   H96       1.0  0.37977  0.30727  0.39976  1.0000
  H   H97       1.0  0.41366  0.22262  0.38995  1.0000
  H   H98       1.0  0.44119  0.24533  0.36723  1.0000
  C   C102      1.0  0.10785  0.02848  0.45386  1.0000
  H   H99       1.0  0.20076  0.44774  0.46750  1.0000
  C   C103      1.0  0.19012  0.06881  0.51674  1.0000
  H   H100      1.0  0.29629  0.23091  0.39217  1.0000
  H   H101      1.0  0.47163  0.35734  0.33217  1.0000
  H   H102      1.0  0.32902  0.23119  0.39492  1.0000
  C   C104      1.0  0.31346  0.21811  0.38945  1.0000
  C   C105      1.0  0.21313  0.42892  0.46858  1.0000
  C   C106      1.0  0.45761  0.39588  0.31859  1.0000
  C   C107      1.0  0.04461  0.26434  0.28844  1.0000
  C   C108      1.0  0.11153  0.04111  0.39350  1.0000
  H   H103      1.0  0.43847  0.38975  0.32055  1.0000
  H   H104      1.0  0.48014  0.46236  0.28711  1.0000
  C   C109      1.0  0.12891  0.08011  0.48964  1.0000
  C   C110      1.0  0.04877  0.29449  0.29135  1.0000
  H   H105      1.0  0.27248  0.13055  0.40041  1.0000
  N   N11       1.0  0.09867  0.06790  0.33565  1.0000
  H   H106      1.0  0.17145  0.38985  0.45620  1.0000
  C   C111      1.0  0.18469  0.05151  0.50172  1.0000
  C   C112      1.0  0.13162  0.10660  0.48026  1.0000
  C   C113      1.0  0.47624  0.37770  0.32516  1.0000
  H   H107      1.0  0.31621  0.21605  0.37487  1.0000
  Fe  Fe22      1.0  0.00777  0.06075  0.31160  1.0000
  H   H108      1.0  0.04450  0.39792  0.27882  1.0000
  H   H109      1.0  0.06739  0.30305  0.29196  1.0000
  C   C114      1.0  0.11227  0.04234  0.33497  1.0000
  C   C115      1.0  0.14020  0.06217  0.35675  1.0000
  C   C116      1.0  0.30812  0.13248  0.41265  1.0000
  H   H110      1.0  0.36738  0.23482  0.46787  1.0000
  S   S41       1.0  0.22996  0.51052  0.44188  1.0000
  H   H111      1.0  0.34720  0.19097  0.40955  1.0000
  S   S42       1.0  0.47313  0.20470  0.28981  1.0000
  S   S43       1.0  0.20353  0.03523  0.41080  1.0000
  H   H112      1.0  0.10631  0.02380  0.32684  1.0000
  H   H113      1.0  0.34394  0.14145  0.42354  1.0000
  H   H114      1.0  0.11281  0.08268  0.43982  1.0000
  C   C117      1.0  0.33081  0.17771  0.40741  1.0000
  C   C118      1.0  0.38824  0.31023  0.50014  1.0000
  H   H115      1.0  0.03212  0.33737  0.29462  1.0000
  H   H116      1.0  0.01709  0.23061  0.28457  1.0000
  H   H117      1.0  0.02693  0.44268  0.29357  1.0000
  H   H118      1.0  0.25786  0.36269  0.47235  1.0000
  H   H119      1.0  0.13781  0.50601  0.39096  1.0000
  H   H120      1.0  0.18019  0.42265  0.44385  1.0000
  C   C119      1.0  0.02293  0.14708  0.27270  1.0000
  Fe  Fe23      1.0  0.16487  0.03960  0.42168  1.0000
  C   C120      1.0  0.02055  0.25393  0.28708  1.0000
  C   C121      1.0  0.11727  0.08179  0.45384  1.0000
  C   C122      1.0  0.24506  0.38121  0.47171  1.0000
  H   H121      1.0  0.19055  0.38747  0.43629  1.0000
  C   C123      1.0  0.29121  0.17181  0.39476  1.0000
  H   H122      1.0  0.08199  0.07576  0.31061  1.0000
  C   C124      1.0  0.32916  0.14964  0.41528  1.0000
  C   C125      1.0  0.25016  0.40762  0.48065  1.0000
  C   C126      1.0  0.22404  0.37935  0.46116  1.0000
  C   C127      1.0  0.12064  0.05476  0.48076  1.0000
  H   H123      1.0  0.11576  0.49348  0.36311  1.0000
  C   C128      1.0  0.10741  0.50861  0.37258  1.0000
  H   H124      1.0  0.05914  0.05411  0.36961  1.0000
  C   C129      1.0  0.48437  0.37044  0.27687  1.0000
  H   H125      1.0  0.20069  0.08899  0.51521  1.0000
  C   C130      1.0  0.18652  0.40055  0.44853  1.0000
  S   S44       1.0  0.02372  0.09611  0.29292  1.0000
  C   C131      1.0  0.01526  0.42853  0.28564  1.0000
  H   H126      1.0  0.15570  0.05940  0.36564  1.0000
  C   C132      1.0  0.09043  0.05579  0.38725  1.0000
  N   N12       1.0  0.20857  0.40317  0.45952  1.0000
  H   H127      1.0  0.22062  0.35905  0.45383  1.0000
  C   C133      1.0  0.07499  0.04232  0.37461  1.0000
  H   H128      1.0  0.47337  0.35366  0.28343  1.0000
  Fe  Fe24      1.0  0.48976  0.24029  0.30781  1.0000
  H   H129      1.0  0.12762  0.12801  0.45480  1.0000
  H   H130      1.0  0.09487  0.11114  0.34695  1.0000
  H   H131      1.0  0.11889  0.03414  0.48810  1.0000
  C   C134      1.0  0.12648  0.08835  0.35712  1.0000
  H   H132      1.0  0.44930  0.43569  0.30412  1.0000
  H   H133      1.0  0.38881  0.33425  0.49930  1.0000
  H   H134      1.0  0.08630  0.07799  0.39189  1.0000
  S   S45       1.0  0.17211  0.48896  0.44314  1.0000
  H   H135      1.0  0.13370  0.07898  0.50361  1.0000
  C   C135      1.0  0.38603  0.24458  0.46942  1.0000
  H   H136      1.0  0.13146  0.10605  0.36620  1.0000
  C   C136      1.0  0.12553  0.10759  0.46228  1.0000
  S   S46       1.0  0.01347  0.06140  0.34119  1.0000
  H   H137      1.0  0.19112  0.05833  0.48870  1.0000
  H   H138      1.0  0.48456  0.25966  0.37670  1.0000
  C   C137      1.0  0.49421  0.45683  0.29726  1.0000
  N   N13       1.0  0.48802  0.42923  0.30659  1.0000
  C   C138      1.0  0.28916  0.14344  0.40215  1.0000
  H   H139      1.0  0.26678  0.40959  0.48845  1.0000
  H   H140      1.0  0.13852  0.12626  0.48690  1.0000
  H   H141      1.0  0.38919  0.30393  0.47187  1.0000
  H   H142      1.0  0.48611  0.31371  0.38169  1.0000
  S   S47       1.0  0.20503  0.50398  0.48791  1.0000
  C   C139      1.0  0.46386  0.42180  0.30934  1.0000
  N   N14       1.0  0.11566  0.05562  0.46298  1.0000
  H   H143      1.0  0.39971  0.22631  0.47009  1.0000
  H   H144      1.0  0.11186  0.02960  0.43934  1.0000
  H   H145      1.0  0.38238  0.22509  0.50258  1.0000
  S   S48       1.0  0.06932  0.51103  0.34879  1.0000
  C   C140      1.0  0.11993  0.51562  0.38839  1.0000
  C   C141      1.0  0.38504  0.26553  0.51757  1.0000
  H   H146      1.0  0.23755  0.02254  0.51292  1.0000
  C   C142      1.0  0.50023  0.26905  0.38354  1.0000
  H   H147      1.0  0.08780  0.02501  0.45584  1.0000
  C   C143      1.0  0.07671  0.07062  0.32456  1.0000
  C   C144      1.0  0.38665  0.29637  0.51668  1.0000
  C   C145      1.0  0.02517  0.40305  0.27726  1.0000
  C   C146      1.0  0.17107  0.02539  0.50362  1.0000
  C   C147      1.0  0.50099  0.29972  0.38637  1.0000
  H   H148      1.0  0.49552  0.47546  0.30689  1.0000
  C   C148      1.0  0.50080  0.38569  0.32249  1.0000
  H   H149      1.0  0.45803  0.25765  0.27099  1.0000
  C   C149      1.0  0.08583  0.49629  0.63095  1.0000
  C   C150      1.0  0.30334  0.38622  0.58533  1.0000
  C   C151      1.0  0.47851  0.22992  0.65691  1.0000
  S   S49       1.0  0.22452  0.04013  0.58852  1.0000
  Fe  Fe25      1.0  0.50168  0.24724  0.73217  1.0000
  H   H150      1.0  0.06087  0.19912  0.75504  1.0000
  Fe  Fe26      1.0  0.30396  0.32753  0.62238  1.0000
  S   S50       1.0  0.34311  0.32328  0.61260  1.0000
  S   S51       1.0  0.29254  0.37206  0.63422  1.0000
  Fe  Fe27      1.0  0.29152  0.26368  0.61150  1.0000
  S   S52       1.0  0.32945  0.25504  0.60050  1.0000
  S   S53       1.0  0.25847  0.23329  0.60815  1.0000
  Fe  Fe28      1.0  0.34281  0.27825  0.62540  1.0000
  S   S54       1.0  0.37359  0.25611  0.64131  1.0000
  Fe  Fe29      1.0  0.32656  0.30079  0.58879  1.0000
  S   S55       1.0  0.33637  0.31784  0.56129  1.0000
  S   S56       1.0  0.30468  0.28393  0.63709  1.0000
  S   S57       1.0  0.28767  0.30789  0.59785  1.0000
  S   S58       1.0  0.03178  0.51418  0.74258  1.0000
  N   N15       1.0  0.45202  0.26511  0.63348  1.0000
  C   C152      1.0  0.18242  0.05977  0.53374  1.0000
  H   H151      1.0  0.45275  0.19542  0.65017  1.0000
  C   C153      1.0  0.11332  0.51412  0.67944  1.0000
  H   H152      1.0  0.29614  0.15931  0.58156  1.0000
  Fe  Fe30      1.0  0.20337  0.50304  0.60715  1.0000
  S   S59       1.0  0.20738  0.45321  0.60295  1.0000
  Fe  Fe31      1.0  0.21955  0.06792  0.61307  1.0000
  S   S60       1.0  0.25197  0.09472  0.62330  1.0000
  H   H153      1.0  0.22332  0.18984  0.66757  1.0000
  S   S61       1.0  0.18558  0.09029  0.60335  1.0000
  C   C154      1.0  0.20958  0.09884  0.65823  1.0000
  Fe  Fe32      1.0  0.48920  0.29291  0.70364  1.0000
  S   S62       1.0  0.46286  0.31308  0.68338  1.0000
  C   C155      1.0  0.22290  0.12539  0.65832  1.0000
  S   S63       1.0  0.48112  0.29099  0.73306  1.0000
  C   C156      1.0  0.43833  0.28355  0.62091  1.0000
  C   C157      1.0  0.45851  0.21811  0.64778  1.0000
  C   C158      1.0  0.44546  0.23609  0.63597  1.0000
  H   H154      1.0  0.06165  0.03303  0.63155  1.0000
  H   H155      1.0  0.17430  0.07873  0.65326  1.0000
  C   C159      1.0  0.11391  0.05318  0.64932  1.0000
  H   H156      1.0  0.24591  0.17539  0.65206  1.0000
  H   H157      1.0  0.09179  0.09215  0.65428  1.0000
  H   H158      1.0  0.21358  0.49204  0.52455  1.0000
  H   H159      1.0  0.44701  0.28226  0.60753  1.0000
  H   H160      1.0  0.16258  0.02671  0.54867  1.0000
  C   C160      1.0  0.39510  0.27371  0.65554  1.0000
  C   C161      1.0  0.40082  0.30384  0.65391  1.0000
  C   C162      1.0  0.42099  0.31582  0.66318  1.0000
  C   C163      1.0  0.43537  0.29803  0.67443  1.0000
  C   C164      1.0  0.42878  0.26830  0.67685  1.0000
  C   C165      1.0  0.40884  0.25621  0.66737  1.0000
  H   H161      1.0  0.39037  0.31763  0.64493  1.0000
  H   H162      1.0  0.42582  0.33890  0.66131  1.0000
  H   H163      1.0  0.43959  0.25437  0.68551  1.0000
  H   H164      1.0  0.40448  0.23292  0.66882  1.0000
  C   C166      1.0  0.32974  0.29601  0.54245  1.0000
  C   C167      1.0  0.32776  0.26514  0.54364  1.0000
  H   H165      1.0  0.47669  0.29993  0.64062  1.0000
  H   H166      1.0  0.32898  0.25444  0.55647  1.0000
  C   C168      1.0  0.24437  0.12262  0.56965  1.0000
  C   C169      1.0  0.25756  0.19487  0.61253  1.0000
  C   C170      1.0  0.27746  0.17950  0.61980  1.0000
  C   C171      1.0  0.27556  0.14877  0.62310  1.0000
  C   C172      1.0  0.25388  0.13326  0.61903  1.0000
  C   C173      1.0  0.23409  0.14878  0.61175  1.0000
  C   C174      1.0  0.23594  0.17936  0.60851  1.0000
  H   H167      1.0  0.29421  0.19129  0.62300  1.0000
  H   H168      1.0  0.29097  0.13698  0.62879  1.0000
  H   H169      1.0  0.21731  0.13735  0.60861  1.0000
  H   H170      1.0  0.22047  0.19110  0.60286  1.0000
  C   C175      1.0  0.26735  0.39331  0.62652  1.0000
  C   C176      1.0  0.26365  0.42207  0.63331  1.0000
  C   C177      1.0  0.24513  0.44061  0.62643  1.0000
  C   C178      1.0  0.22996  0.43034  0.61283  1.0000
  C   C179      1.0  0.23311  0.40123  0.60645  1.0000
  C   C180      1.0  0.25180  0.38283  0.61319  1.0000
  H   H171      1.0  0.27551  0.43028  0.64370  1.0000
  H   H172      1.0  0.24276  0.46290  0.63154  1.0000
  H   H173      1.0  0.22130  0.39302  0.59603  1.0000
  H   H174      1.0  0.25424  0.36063  0.60801  1.0000
  C   C181      1.0  0.12215  0.47685  0.61548  1.0000
  C   C182      1.0  0.11531  0.46287  0.64552  1.0000
  N   N16       1.0  0.10840  0.47842  0.63075  1.0000
  H   H175      1.0  0.43783  0.30707  0.62539  1.0000
  C   C183      1.0  0.01063  0.05951  0.65253  1.0000
  H   H176      1.0  0.05531  0.15487  0.73592  1.0000
  C   C184      1.0  0.14363  0.45970  0.61479  1.0000
  H   H177      1.0  0.21854  0.07805  0.66154  1.0000
  H   H178      1.0  0.48119  0.37135  0.75455  1.0000
  H   H179      1.0  0.41880  0.27625  0.62000  1.0000
  C   C185      1.0  0.27177  0.46023  0.58579  1.0000
  H   H180      1.0  0.08969  0.51888  0.62563  1.0000
  C   C186      1.0  0.20503  0.51369  0.52375  1.0000
  C   C187      1.0  0.04053  0.17095  0.73746  1.0000
  H   H181      1.0  0.03725  0.07910  0.63465  1.0000
  S   S64       1.0  0.13088  0.07046  0.63191  1.0000
  H   H182      1.0  0.21372  0.14237  0.55611  1.0000
  C   C188      1.0  0.04520  0.03295  0.63983  1.0000
  N   N17       1.0  0.26572  0.17864  0.56801  1.0000
  C   C189      1.0  0.24297  0.17405  0.56082  1.0000
  C   C190      1.0  0.27822  0.15566  0.57570  1.0000
  C   C191      1.0  0.26771  0.12735  0.57669  1.0000
  H   H183      1.0  0.16840  0.43205  0.62962  1.0000
  H   H184      1.0  0.48845  0.21650  0.66645  1.0000
  C   C192      1.0  0.27710  0.20809  0.56680  1.0000
  H   H185      1.0  0.23315  0.19219  0.55460  1.0000
  C   C193      1.0  0.01785  0.16576  0.72950  1.0000
  C   C194      1.0  0.28449  0.47490  0.59922  1.0000
  S   S65       1.0  0.07304  0.50804  0.70138  1.0000
  C   C195      1.0  0.32833  0.30967  0.52571  1.0000
  H   H186      1.0  0.26307  0.22587  0.56866  1.0000
  H   H187      1.0  0.29082  0.21152  0.57750  1.0000
  H   H188      1.0  0.28626  0.21093  0.55366  1.0000
  S   S66       1.0  0.16510  0.02541  0.59164  1.0000
  C   C196      1.0  0.30950  0.43111  0.60325  1.0000
  S   S67       1.0  0.19032  0.08147  0.55231  1.0000
  C   C197      1.0  0.30355  0.46033  0.60798  1.0000
  H   H189      1.0  0.10429  0.46386  0.65761  1.0000
  C   C198      1.0  0.49423  0.04000  0.75451  1.0000
  C   C199      1.0  0.48860  0.50840  0.76000  1.0000
  H   H190      1.0  0.32373  0.41954  0.61057  1.0000
  H   H191      1.0  0.14287  0.43452  0.65730  1.0000
  H   H192      1.0  0.01506  0.14573  0.72173  1.0000
  H   H193      1.0  0.50027  0.26914  0.66155  1.0000
  C   C200      1.0  0.01397  0.13093  0.76892  1.0000
  N   N18       1.0  0.02421  0.21486  0.75143  1.0000
  H   H194      1.0  0.31313  0.47125  0.61876  1.0000
  H   H195      1.0  0.23579  0.10095  0.57061  1.0000
  H   H196      1.0  0.31060  0.37396  0.59698  1.0000
  C   C201      1.0  0.09513  0.06934  0.65801  1.0000
  C   C202      1.0  0.11808  0.02375  0.65431  1.0000
  S   S68       1.0  0.19877  0.03224  0.62807  1.0000
  Fe  Fe33      1.0  0.16463  0.05320  0.61663  1.0000
  C   C203      1.0  0.01783  0.42859  0.76851  1.0000
  C   C204      1.0  0.27829  0.43106  0.58133  1.0000
  Fe  Fe34      1.0  0.18916  0.06056  0.57961  1.0000
  H   H197      1.0  0.26792  0.41961  0.57117  1.0000
  H   H198      1.0  0.27722  0.10943  0.58342  1.0000
  H   H199      1.0  0.28700  0.37362  0.58075  1.0000
  C   C205      1.0  0.17385  0.12585  0.64845  1.0000
  C   C206      1.0  0.13704  0.44611  0.64542  1.0000
  C   C207      1.0  0.08045  0.05613  0.67138  1.0000
  H   H200      1.0  0.11674  0.48925  0.60378  1.0000
  C   C208      1.0  0.18487  0.09917  0.65338  1.0000
  C   C209      1.0  0.23192  0.14602  0.56159  1.0000
  H   H201      1.0  0.17904  0.17266  0.64477  1.0000
  S   S69       1.0  0.02882  0.10162  0.75705  1.0000
  H   H202      1.0  0.06587  0.06867  0.67778  1.0000
  C   C210      1.0  0.32537  0.24800  0.52810  1.0000
  N   N19       1.0  0.29675  0.41678  0.59018  1.0000
  H   H203      1.0  0.31757  0.38609  0.57464  1.0000
  H   H204      1.0  0.23695  0.02669  0.54594  1.0000
  H   H205      1.0  0.25633  0.47099  0.57934  1.0000
  H   H206      1.0  0.12140  0.49689  0.68754  1.0000
  S   S70       1.0  0.48458  0.20729  0.74653  1.0000
  C   C211      1.0  0.47182  0.27674  0.64220  1.0000
  C   C212      1.0  0.15131  0.44465  0.62994  1.0000
  N   N20       1.0  0.21197  0.15150  0.65346  1.0000
  C   C213      1.0  0.18774  0.15200  0.64862  1.0000
  H   H207      1.0  0.27913  0.49722  0.60315  1.0000
  H   H208      1.0  0.24224  0.12477  0.66180  1.0000
  H   H209      1.0  0.15458  0.45856  0.60267  1.0000
  H   H210      1.0  0.21994  0.19512  0.64387  1.0000
  C   C214      1.0  0.22591  0.17932  0.65434  1.0000
  Fe  Fe35      1.0  0.01386  0.06589  0.73823  1.0000
  H   H211      1.0  0.32984  0.33355  0.52471  1.0000
  H   H212      1.0  0.48994  0.08610  0.74735  1.0000
  C   C215      1.0  0.08427  0.02647  0.67608  1.0000
  H   H213      1.0  0.32474  0.22406  0.52903  1.0000
  S   S71       1.0  0.01672  0.07115  0.70843  1.0000
  C   C216      1.0  0.49188  0.38537  0.76325  1.0000
  H   H214      1.0  0.42942  0.22707  0.62935  1.0000
  C   C217      1.0  0.48528  0.25939  0.65409  1.0000
  H   H215      1.0  0.46150  0.41464  0.76956  1.0000
  C   C218      1.0  0.04344  0.19581  0.74841  1.0000
  H   H216      1.0  0.14528  0.51788  0.66214  1.0000
  H   H217      1.0  0.07151  0.48555  0.62271  1.0000
  H   H218      1.0  0.02740  0.44887  0.76509  1.0000
  H   H219      1.0  0.47560  0.03387  0.75097  1.0000
  H   H220      1.0  0.15470  0.12607  0.64441  1.0000
  C   C219      1.0  0.03149  0.05915  0.64157  1.0000
  Fe  Fe36      1.0  0.03267  0.02515  0.70824  1.0000
  H   H221      1.0  0.07839  0.49931  0.64465  1.0000
  H   H222      1.0  0.38270  0.25469  0.53034  1.0000
  C   C220      1.0  0.16874  0.03369  0.53562  1.0000
  C   C221      1.0  0.49838  0.18044  0.76070  1.0000
  H   H223      1.0  0.47270  0.49426  0.76219  1.0000
  H   H224      1.0  0.38568  0.30953  0.52879  1.0000
  H   H225      1.0  0.46405  0.15771  0.76544  1.0000
  C   C222      1.0  0.00374  0.03382  0.66156  1.0000
  H   H226      1.0  0.04000  0.25701  0.75687  1.0000
  C   C223      1.0  0.48352  0.15822  0.76837  1.0000
  C   C224      1.0  0.02773  0.24040  0.76325  1.0000
  S   S72       1.0  0.03252  0.02087  0.73813  1.0000
  H   H227      1.0  0.00997  0.25135  0.76676  1.0000
  C   C225      1.0  0.50225  0.06921  0.75245  1.0000
  S   S73       1.0  0.03520  0.27015  0.81102  1.0000
  H   H228      1.0  0.38913  0.48244  0.86506  1.0000
  Fe  Fe37      1.0  0.03365  0.26887  0.84103  1.0000
  S   S74       1.0  0.06569  0.24964  0.85681  1.0000
  Fe  Fe38      1.0  0.31073  0.06186  0.93835  1.0000
  S   S75       1.0  0.34578  0.04414  0.95049  1.0000
  S   S76       1.0  0.30630  0.11213  0.93934  1.0000
  C   C226      1.0  0.38689  0.03624  0.88317  1.0000
  S   S77       1.0  0.32808  0.48580  0.94469  1.0000
  S   S78       1.0  0.25705  0.46491  0.94516  1.0000
  H   H229      1.0  0.16704  0.30612  0.86221  1.0000
  H   H230      1.0  0.31858  0.21692  0.92010  1.0000
  C   C227      1.0  0.49811  0.31175  0.78675  1.0000
  C   C228      1.0  0.24057  0.39057  0.98446  1.0000
  H   H231      1.0  0.22039  0.34930  0.98507  1.0000
  H   H232      1.0  0.13790  0.31377  0.87250  1.0000
  Fe  Fe39      1.0  0.16633  0.28483  0.93061  1.0000
  S   S79       1.0  0.19642  0.27193  0.91146  1.0000
  S   S80       1.0  0.12921  0.30201  0.92082  1.0000
  Fe  Fe40      1.0  0.20075  0.27956  0.96289  1.0000
  S   S81       1.0  0.23269  0.26567  0.94557  1.0000
  S   S82       1.0  0.21481  0.28517  0.99099  1.0000
  Fe  Fe41      1.0  0.22053  0.30224  0.92752  1.0000
  S   S83       1.0  0.24941  0.33296  0.91573  1.0000
  Fe  Fe42      1.0  0.20562  0.23668  0.93163  1.0000
  S   S84       1.0  0.21179  0.18896  0.92284  1.0000
  S   S85       1.0  0.19007  0.31770  0.94541  1.0000
  S   S86       1.0  0.17408  0.24786  0.95011  1.0000
  H   H233      1.0  0.03346  0.25580  0.89696  1.0000
  H   H234      1.0  0.26443  0.42821  0.98115  1.0000
  S   S87       1.0  0.47937  0.45926  0.79347  1.0000
  Fe  Fe43      1.0  0.01681  0.31494  0.81342  1.0000
  C   C229      1.0  0.48013  0.05792  0.88063  1.0000
  H   H235      1.0  0.04700  0.14266  0.78296  1.0000
  H   H236      1.0  0.49699  0.07074  0.88385  1.0000
  H   H237      1.0  0.15981  0.29073  0.88382  1.0000
  C   C230      1.0  0.01818  0.25552  0.88723  1.0000
  S   S88       1.0  0.01830  0.31483  0.84335  1.0000
  S   S89       1.0  0.43472  0.04762  0.84175  1.0000
  C   C231      1.0  0.19299  0.22031  0.01652  1.0000
  S   S90       1.0  0.31445  0.03469  0.91321  1.0000
  C   C232      1.0  0.49356  0.13666  0.77984  1.0000
  H   H238      1.0  0.25174  0.32202  0.96736  1.0000
  C   C233      1.0  0.19687  0.29085  0.01032  1.0000
  C   C234      1.0  0.25458  0.34526  0.97058  1.0000
  C   C235      1.0  0.49434  0.42848  0.78318  1.0000
  C   C236      1.0  0.26421  0.18407  0.89400  1.0000
  S   S91       1.0  0.29644  0.51846  0.91305  1.0000
  C   C237      1.0  0.26310  0.21363  0.89968  1.0000
  H   H239      1.0  0.16173  0.29152  0.99730  1.0000
  H   H240      1.0  0.32899  0.04892  0.99652  1.0000
  C   C238      1.0  0.30163  0.40462  0.96262  1.0000
  Fe  Fe44      1.0  0.47409  0.03872  0.83227  1.0000
  H   H241      1.0  0.18704  0.22431  0.00298  1.0000
  S   S92       1.0  0.48629  0.03899  0.80333  1.0000
  H   H242      1.0  0.37023  0.04686  0.88795  1.0000
  C   C239      1.0  0.01792  0.17409  0.78868  1.0000
  H   H243      1.0  0.39057  0.06472  0.86022  1.0000
  H   H244      1.0  0.29643  0.12202  0.90054  1.0000
  H   H245      1.0  0.15240  0.39250  0.91182  1.0000
  H   H246      1.0  0.19715  0.40348  0.90846  1.0000
  C   C240      1.0  0.23693  0.36062  0.98054  1.0000
  Fe  Fe45      1.0  0.28848  0.49676  0.93927  1.0000
  H   H247      1.0  0.46505  0.33827  0.78551  1.0000
  C   C241      1.0  0.32586  0.03758  0.00900  1.0000
  C   C242      1.0  0.25449  0.42939  0.93540  1.0000
  C   C243      1.0  0.27264  0.41772  0.92408  1.0000
  C   C244      1.0  0.27082  0.38822  0.91795  1.0000
  C   C245      1.0  0.25093  0.37021  0.92316  1.0000
  C   C246      1.0  0.23258  0.38222  0.93414  1.0000
  C   C247      1.0  0.23427  0.41167  0.94012  1.0000
  H   H248      1.0  0.28827  0.43126  0.92028  1.0000
  H   H249      1.0  0.28502  0.37925  0.90931  1.0000
  H   H250      1.0  0.21706  0.36889  0.93810  1.0000
  H   H251      1.0  0.22010  0.42058  0.94880  1.0000
  C   C248      1.0  0.27783  0.13112  0.93808  1.0000
  C   C249      1.0  0.25749  0.11859  0.92964  1.0000
  C   C250      1.0  0.23680  0.13627  0.92580  1.0000
  C   C251      1.0  0.23606  0.16638  0.93071  1.0000
  C   C252      1.0  0.25577  0.17838  0.94014  1.0000
  C   C253      1.0  0.27664  0.16087  0.94367  1.0000
  H   H252      1.0  0.25817  0.09569  0.92530  1.0000
  H   H253      1.0  0.22156  0.12678  0.91859  1.0000
  H   H254      1.0  0.25540  0.20148  0.94403  1.0000
  H   H255      1.0  0.29227  0.17068  0.95027  1.0000
  C   C254      1.0  0.08317  0.26499  0.87448  1.0000
  C   C255      1.0  0.10296  0.24850  0.88131  1.0000
  C   C256      1.0  0.11714  0.25940  0.89552  1.0000
  C   C257      1.0  0.11155  0.28691  0.90318  1.0000
  C   C258      1.0  0.09171  0.30341  0.89639  1.0000
  C   C259      1.0  0.07768  0.29264  0.88205  1.0000
  H   H256      1.0  0.10731  0.22704  0.87561  1.0000
  H   H257      1.0  0.13224  0.24635  0.90062  1.0000
  H   H258      1.0  0.08721  0.32471  0.90223  1.0000
  H   H259      1.0  0.06260  0.30565  0.87690  1.0000
  N   N21       1.0  0.46839  0.04702  0.89691  1.0000
  N   N22       1.0  0.16848  0.33649  0.88402  1.0000
  C   C260      1.0  0.19322  0.34177  0.88259  1.0000
  C   C261      1.0  0.15392  0.35439  0.89440  1.0000
  C   C262      1.0  0.20377  0.36622  0.89109  1.0000
  C   C263      1.0  0.16396  0.37870  0.90336  1.0000
  C   C264      1.0  0.18903  0.38475  0.90155  1.0000
  C   C265      1.0  0.15784  0.31054  0.87518  1.0000
  H   H260      1.0  0.20499  0.32696  0.87496  1.0000
  H   H261      1.0  0.13445  0.34965  0.89603  1.0000
  H   H262      1.0  0.22340  0.37037  0.88990  1.0000
  C   C266      1.0  0.30384  0.17853  0.90668  1.0000
  C   C267      1.0  0.28279  0.22564  0.90903  1.0000
  H   H263      1.0  0.02911  0.18759  0.79734  1.0000
  H   H264      1.0  0.01846  0.23385  0.88012  1.0000
  C   C268      1.0  0.27568  0.36015  0.96463  1.0000
  H   H265      1.0  0.28184  0.24834  0.91386  1.0000
  H   H266      1.0  0.29752  0.46856  0.01769  1.0000
  H   H267      1.0  0.46751  0.07203  0.87269  1.0000
  C   C269      1.0  0.17119  0.29265  0.00988  1.0000
  C   C270      1.0  0.31947  0.49972  0.00268  1.0000
  S   S93       1.0  0.35934  0.49479  0.89579  1.0000
  S   S94       1.0  0.50228  0.07247  0.84046  1.0000
  C   C271      1.0  0.01164  0.40577  0.83076  1.0000
  C   C272      1.0  0.43515  0.04828  0.91814  1.0000
  H   H268      1.0  0.02388  0.41529  0.82031  1.0000
  C   C273      1.0  0.28526  0.13602  0.89145  1.0000
  H   H269      1.0  0.24662  0.22671  0.89744  1.0000
  H   H270      1.0  0.22679  0.40282  0.99197  1.0000
  H   H271      1.0  0.02187  0.27279  0.87703  1.0000
  C   C274      1.0  0.47297  0.31628  0.78391  1.0000
  C   C275      1.0  0.42282  0.50736  0.86772  1.0000
  S   S95       1.0  0.28631  0.02884  0.95226  1.0000
  C   C276      1.0  0.39853  0.04641  0.86750  1.0000
  H   H272      1.0  0.03590  0.23303  0.77600  1.0000
  H   H273      1.0  0.24841  0.17469  0.88729  1.0000
  H   H274      1.0  0.26655  0.12605  0.89127  1.0000
  Fe  Fe46      1.0  0.33643  0.51103  0.91940  1.0000
  H   H275      1.0  0.29342  0.13506  0.87790  1.0000
  H   H276      1.0  0.29822  0.42866  0.96025  1.0000
  C   C277      1.0  0.44576  0.02467  0.92729  1.0000
  C   C278      1.0  0.46896  0.26445  0.77644  1.0000
  C   C279      1.0  0.47936  0.02448  0.90608  1.0000
  N   N23       1.0  0.27905  0.38958  0.96845  1.0000
  S   S96       1.0  0.03148  0.35646  0.79953  1.0000
  H   H277      1.0  0.01047  0.42125  0.84222  1.0000
  H   H278      1.0  0.48188  0.11970  0.78557  1.0000
  H   H279      1.0  0.45790  0.24573  0.77214  1.0000
  N   N24       1.0  0.28429  0.16685  0.89770  1.0000
  C   C280      1.0  0.02801  0.14854  0.78053  1.0000
  H   H280      1.0  0.50232  0.23903  0.77734  1.0000
  C   C281      1.0  0.30336  0.20804  0.91253  1.0000
  H   H281      1.0  0.41742  0.05704  0.92238  1.0000
  C   C282      1.0  0.01689  0.38114  0.78446  1.0000
  H   H282      1.0  0.31954  0.16467  0.90994  1.0000
  H   H283      1.0  0.31609  0.40234  0.97287  1.0000
  H   H284      1.0  0.43893  0.29572  0.77602  1.0000
  C   C283      1.0  0.45836  0.29245  0.77862  1.0000
  H   H285      1.0  0.30852  0.39533  0.94981  1.0000
  H   H286      1.0  0.28909  0.34814  0.95663  1.0000
  C   C284      1.0  0.38932  0.50683  0.88974  1.0000
  C   C285      1.0  0.39947  0.49740  0.87341  1.0000
  C   C286      1.0  0.44677  0.05925  0.90285  1.0000
  H   H287      1.0  0.43789  0.07679  0.89539  1.0000
  C   C287      1.0  0.26193  0.40475  0.97837  1.0000
  C   C288      1.0  0.42052  0.03338  0.86128  1.0000
  H   H288      1.0  0.48551  0.03890  0.87201  1.0000
  C   C289      1.0  0.02907  0.40752  0.77968  1.0000
  Fe  Fe47      1.0  0.49546  0.49619  0.81080  1.0000
  C   C290      1.0  0.31130  0.48582  0.01838  1.0000
  H   H289      1.0  0.31193  0.49330  0.98997  1.0000
  H   H290      1.0  0.43030  0.50010  0.85506  1.0000
  H   H291      1.0  0.04732  0.41180  0.78473  1.0000
  H   H292      1.0  0.23115  0.21535  0.00920  1.0000
  C   C291      1.0  0.49420  0.26081  0.77926  1.0000
  H   H293      1.0  0.02060  0.38475  0.83498  1.0000
  C   C292      1.0  0.21782  0.21539  0.02003  1.0000
  C   C293      1.0  0.48076  0.40994  0.77180  1.0000
  S   S97       1.0  0.02769  0.77233  0.23587  1.0000
  Fe  Fe48      1.0  0.47358  0.53385  0.20783  1.0000
  Fe  Fe49      1.0  0.03179  0.77351  0.20599  1.0000
  S   S98       1.0  0.06996  0.76127  0.19515  1.0000
  H   H294      1.0  0.12145  0.81047  0.18654  1.0000
  H   H295      1.0  0.22759  0.72105  0.02516  1.0000
  C   C294      1.0  0.41898  0.98601  0.23328  1.0000
  C   C295      1.0  0.05068  0.57832  0.25344  1.0000
  H   H296      1.0  0.16571  0.83051  0.18239  1.0000
  C   C296      1.0  0.42206  0.95995  0.22338  1.0000
  N   N25       1.0  0.02888  0.55972  0.25627  1.0000
  H   H297      1.0  0.39942  0.57439  0.17298  1.0000
  H   H298      1.0  0.35638  0.53259  0.19300  1.0000
  C   C297      1.0  0.40709  0.99697  0.15701  1.0000
  Fe  Fe50      1.0  0.30329  0.55501  0.10313  1.0000
  S   S99       1.0  0.29641  0.60314  0.09515  1.0000
  S   S100      1.0  0.44084  0.55246  0.19241  1.0000
  S   S101      1.0  0.24965  0.96514  0.10337  1.0000
  S   S102      1.0  0.02077  0.85219  0.25264  1.0000
  S   S103      1.0  0.31932  0.99270  0.09734  1.0000
  Fe  Fe51      1.0  0.21042  0.79962  0.11546  1.0000
  S   S104      1.0  0.18031  0.80918  0.09601  1.0000
  S   S105      1.0  0.23564  0.83181  0.12978  1.0000
  Fe  Fe52      1.0  0.20162  0.73228  0.11429  1.0000
  S   S106      1.0  0.17056  0.73655  0.09487  1.0000
  S   S107      1.0  0.21399  0.68908  0.12702  1.0000
  Fe  Fe53      1.0  0.19495  0.76966  0.08089  1.0000
  S   S108      1.0  0.20751  0.76591  0.05213  1.0000
  Fe  Fe54      1.0  0.15825  0.77544  0.11175  1.0000
  S   S109      1.0  0.11827  0.78588  0.11896  1.0000
  S   S110      1.0  0.22684  0.76258  0.09937  1.0000
  S   S111      1.0  0.18747  0.76878  0.13219  1.0000
  C   C298      1.0  0.24721  0.92769  0.11035  1.0000
  C   C299      1.0  0.22929  0.90955  0.10249  1.0000
  C   C300      1.0  0.22599  0.87998  0.10802  1.0000
  C   C301      1.0  0.24027  0.86840  0.12175  1.0000
  C   C302      1.0  0.25820  0.88653  0.12965  1.0000
  C   C303      1.0  0.26181  0.91600  0.12389  1.0000
  H   H299      1.0  0.21797  0.91837  0.09198  1.0000
  H   H300      1.0  0.21229  0.86627  0.10169  1.0000
  H   H301      1.0  0.26934  0.87779  0.14029  1.0000
  H   H302      1.0  0.27561  0.92977  0.13009  1.0000
  C   C304      1.0  0.27196  0.62547  0.10338  1.0000
  C   C305      1.0  0.25886  0.61797  0.11879  1.0000
  C   C306      1.0  0.24073  0.63736  0.12562  1.0000
  C   C307      1.0  0.23525  0.66419  0.11698  1.0000
  C   C308      1.0  0.24797  0.67140  0.10133  1.0000
  C   C309      1.0  0.26639  0.65223  0.09467  1.0000
  H   H303      1.0  0.26302  0.59750  0.12566  1.0000
  H   H304      1.0  0.23099  0.63162  0.13773  1.0000
  H   H305      1.0  0.24401  0.69205  0.09461  1.0000
  H   H306      1.0  0.27647  0.65826  0.08276  1.0000
  H   H307      1.0  0.00325  0.59487  0.25186  1.0000
  C   C310      1.0  0.19441  0.78305  0.03334  1.0000
  C   C311      1.0  0.17008  0.79333  0.03315  1.0000
  H   H308      1.0  0.41124  0.93620  0.19983  1.0000
  H   H309      1.0  0.15924  0.79331  0.04528  1.0000
  H   H310      1.0  0.20848  0.69727  0.03836  1.0000
  C   C312      1.0  0.02625  0.65697  0.27012  1.0000
  S   S112      1.0  0.01401  0.81831  0.20389  1.0000
  H   H311      1.0  0.04566  0.60179  0.25068  1.0000
  C   C313      1.0  0.40862  0.95601  0.20784  1.0000
  H   H312      1.0  0.31456  0.99726  0.05400  1.0000
  Fe  Fe55      1.0  0.28119  0.99697  0.10890  1.0000
  C   C314      1.0  0.12777  0.84297  0.14818  1.0000
  C   C315      1.0  0.37549  0.99779  0.06003  1.0000
  H   H313      1.0  0.46749  0.61311  0.25932  1.0000
  C   C316      1.0  0.11707  0.83123  0.17923  1.0000
  H   H314      1.0  0.33301  0.58831  0.06398  1.0000
  H   H315      1.0  0.41234  0.97607  0.15098  1.0000
  H   H316      1.0  0.01292  0.99731  0.24822  1.0000
  H   H317      1.0  0.38211  0.97558  0.19013  1.0000
  C   C317      1.0  0.42225  0.00970  0.17011  1.0000
  H   H318      1.0  0.29176  0.56452  0.06375  1.0000
  H   H319      1.0  0.49441  0.62379  0.22927  1.0000
  H   H320      1.0  0.10838  0.84289  0.14484  1.0000
  C   C318      1.0  0.38513  0.01096  0.15177  1.0000
  C   C319      1.0  0.10449  0.77702  0.13978  1.0000
  C   C320      1.0  0.08014  0.78616  0.14332  1.0000
  C   C321      1.0  0.06903  0.78100  0.16006  1.0000
  C   C322      1.0  0.08218  0.76651  0.17342  1.0000
  C   C323      1.0  0.10640  0.75706  0.16977  1.0000
  C   C324      1.0  0.11755  0.76241  0.15310  1.0000
  H   H321      1.0  0.06987  0.79749  0.13310  1.0000
  H   H322      1.0  0.05040  0.78843  0.16268  1.0000
  H   H323      1.0  0.11669  0.74573  0.17999  1.0000
  H   H324      1.0  0.13623  0.75514  0.15057  1.0000
  C   C325      1.0  0.01537  0.68020  0.26033  1.0000
  C   C326      1.0  0.37803  0.97728  0.07377  1.0000
  H   H325      1.0  0.23171  0.00958  0.12649  1.0000
  C   C327      1.0  0.38977  0.00391  0.21258  1.0000
  H   H326      1.0  0.11678  0.85013  0.18871  1.0000
  C   C328      1.0  0.15979  0.83575  0.16903  1.0000
  C   C329      1.0  0.17756  0.84159  0.15591  1.0000
  C   C330      1.0  0.14504  0.84866  0.13472  1.0000
  C   C331      1.0  0.17006  0.84813  0.13867  1.0000
  H   H327      1.0  0.34255  0.61000  0.04526  1.0000
  H   H328      1.0  0.19706  0.84081  0.15895  1.0000
  H   H329      1.0  0.13901  0.85259  0.12120  1.0000
  H   H330      1.0  0.18366  0.85241  0.12835  1.0000
  N   N26       1.0  0.26424  0.74009  0.13964  1.0000
  C   C332      1.0  0.27067  0.71074  0.14001  1.0000
  C   C333      1.0  0.27544  0.75906  0.12791  1.0000
  C   C334      1.0  0.28836  0.69950  0.12818  1.0000
  C   C335      1.0  0.29299  0.74850  0.11574  1.0000
  C   C336      1.0  0.29938  0.71848  0.11586  1.0000
  C   C337      1.0  0.24567  0.75115  0.15225  1.0000
  H   H331      1.0  0.26141  0.69559  0.14906  1.0000
  H   H332      1.0  0.27043  0.78240  0.12763  1.0000
  H   H333      1.0  0.29275  0.67597  0.12814  1.0000
  H   H334      1.0  0.30128  0.76348  0.10613  1.0000
  H   H335      1.0  0.31261  0.70980  0.10629  1.0000
  H   H336      1.0  0.23917  0.77376  0.14865  1.0000
  H   H337      1.0  0.22929  0.73632  0.15225  1.0000
  H   H338      1.0  0.25343  0.75196  0.16583  1.0000
  C   C338      1.0  0.49427  0.70670  0.24991  1.0000
  S   S113      1.0  0.29386  0.01469  0.13530  1.0000
  H   H339      1.0  0.39211  0.52625  0.21284  1.0000
  H   H340      1.0  0.02680  0.69547  0.25287  1.0000
  C   C339      1.0  0.49319  0.68175  0.23884  1.0000
  C   C340      1.0  0.32617  0.60206  0.05278  1.0000
  N   N27       1.0  0.30962  0.58468  0.04154  1.0000
  H   H341      1.0  0.09818  0.82843  0.17389  1.0000
  C   C341      1.0  0.31064  0.58738  0.02342  1.0000
  H   H342      1.0  0.34574  0.52346  0.04849  1.0000
  H   H343      1.0  0.37541  0.95379  0.07125  1.0000
  C   C342      1.0  0.29272  0.56633  0.04939  1.0000
  C   C343      1.0  0.00574  0.57154  0.25491  1.0000
  H   H344      1.0  0.47825  0.72080  0.25180  1.0000
  H   H345      1.0  0.43896  0.99857  0.17414  1.0000
  C   C344      1.0  0.42459  0.53740  0.17405  1.0000
  H   H346      1.0  0.31609  0.62136  0.05851  1.0000
  Fe  Fe56      1.0  0.33195  0.01358  0.12309  1.0000
  C   C345      1.0  0.27689  0.54917  0.03903  1.0000
  S   S114      1.0  0.46772  0.52995  0.23745  1.0000
  H   H347      1.0  0.20293  0.99783  0.10147  1.0000
  C   C346      1.0  0.21415  0.70252  0.02448  1.0000
  H   H348      1.0  0.37346  0.55274  0.14915  1.0000
  H   H349      1.0  0.42975  0.98903  0.24521  1.0000
  H   H350      1.0  0.43519  0.94324  0.22764  1.0000
  Fe  Fe57      1.0  0.00743  0.81590  0.23345  1.0000
  Fe  Fe58      1.0  0.48690  0.99165  0.23746  1.0000
  H   H351      1.0  0.16975  0.72011  0.03603  1.0000
  C   C347      1.0  0.38940  0.54078  0.15386  1.0000
  S   S115      1.0  0.47088  0.95552  0.25574  1.0000
  C   C348      1.0  0.31775  0.00857  0.04152  1.0000
  N   N28       1.0  0.40297  0.00756  0.22784  1.0000
  C   C349      1.0  0.47862  0.62614  0.26826  1.0000
  C   C350      1.0  0.31750  0.99256  0.02544  1.0000
  S   S116      1.0  0.33817  0.53547  0.09137  1.0000
  H   H352      1.0  0.37077  0.99047  0.04673  1.0000
  N   N29       1.0  0.13525  0.83650  0.16507  1.0000
  S   S117      1.0  0.48305  0.98834  0.20769  1.0000
  C   C351      1.0  0.39219  0.97799  0.20245  1.0000
  S   S118      1.0  0.36621  0.99343  0.13575  1.0000
  C   C352      1.0  0.17149  0.71992  0.02163  1.0000
  C   C353      1.0  0.40415  0.55297  0.16740  1.0000
  H   H353      1.0  0.38532  0.97154  0.10173  1.0000
  H   H354      1.0  0.31409  0.96892  0.02562  1.0000
  H   H355      1.0  0.47620  0.67693  0.23194  1.0000
  C   C354      1.0  0.00635  0.88275  0.26367  1.0000
  C   C355      1.0  0.38355  0.98721  0.09086  1.0000
  S   S119      1.0  0.30701  0.53131  0.12951  1.0000
  C   C356      1.0  0.48480  0.92435  0.26637  1.0000
  H   H356      1.0  0.06182  0.56977  0.24210  1.0000
  C   C357      1.0  0.38594  0.01766  0.09404  1.0000
  H   H357      1.0  0.26427  0.53371  0.04534  1.0000
  H   H358      1.0  0.04608  0.65468  0.27012  1.0000
  C   C358      1.0  0.03195  0.53044  0.26051  1.0000
  H   H359      1.0  0.06202  0.57853  0.26569  1.0000
  H   H360      1.0  0.05028  0.52120  0.26193  1.0000
  H   H361      1.0  0.04014  0.89636  0.27611  1.0000
  N   N30       1.0  0.00763  0.79164  0.28270  1.0000
  H   H362      1.0  0.04313  0.80354  0.27335  1.0000
  S   S120      1.0  0.06385  0.99771  0.35040  1.0000
  C   C359      1.0  0.39111  0.70425  0.35248  1.0000
  C   C360      1.0  0.08597  0.54719  0.39721  1.0000
  S   S121      1.0  0.46887  0.78228  0.31688  1.0000
  C   C361      1.0  0.15859  0.60876  0.40245  1.0000
  Fe  Fe59      1.0  0.48044  0.77819  0.34552  1.0000
  S   S122      1.0  0.45932  0.78474  0.37160  1.0000
  H   H363      1.0  0.35584  0.83071  0.49413  1.0000
  Fe  Fe60      1.0  0.48963  0.73907  0.31291  1.0000
  S   S123      1.0  0.12476  0.54554  0.42053  1.0000
  C   C362      1.0  0.43383  0.70988  0.34413  1.0000
  N   N31       1.0  0.18203  0.58260  0.38017  1.0000
  C   C363      1.0  0.13691  0.60187  0.39352  1.0000
  Fe  Fe61      1.0  0.21667  0.55055  0.42706  1.0000
  S   S124      1.0  0.24489  0.58335  0.41662  1.0000
  Fe  Fe62      1.0  0.20418  0.99129  0.42525  1.0000
  S   S125      1.0  0.21777  0.94859  0.41228  1.0000
  S   S126      1.0  0.18571  0.56002  0.44616  1.0000
  S   S127      1.0  0.16457  0.99439  0.43406  1.0000
  Fe  Fe63      1.0  0.28276  0.74778  0.43753  1.0000
  S   S128      1.0  0.32202  0.73226  0.43525  1.0000
  S   S129      1.0  0.24887  0.71865  0.44022  1.0000
  Fe  Fe64      1.0  0.29763  0.81318  0.44279  1.0000
  S   S130      1.0  0.33790  0.80229  0.44076  1.0000
  S   S131      1.0  0.28882  0.85969  0.45239  1.0000
  Fe  Fe65      1.0  0.32746  0.77278  0.41795  1.0000
  S   S132      1.0  0.34499  0.77329  0.39024  1.0000
  Fe  Fe66      1.0  0.32881  0.76335  0.45824  1.0000
  S   S133      1.0  0.35201  0.75487  0.48261  1.0000
  S   S134      1.0  0.28737  0.78643  0.41877  1.0000
  S   S135      1.0  0.28937  0.77611  0.46158  1.0000
  C   C364      1.0  0.23517  0.92296  0.42478  1.0000
  C   C365      1.0  0.23779  0.89363  0.41865  1.0000
  C   C366      1.0  0.25368  0.87363  0.42724  1.0000
  C   C367      1.0  0.26703  0.88291  0.44205  1.0000
  C   C368      1.0  0.26406  0.91202  0.44838  1.0000
  C   C369      1.0  0.24820  0.93197  0.43979  1.0000
  H   H364      1.0  0.22770  0.88647  0.40707  1.0000
  H   H365      1.0  0.25581  0.85122  0.42228  1.0000
  H   H366      1.0  0.27440  0.91939  0.45979  1.0000
  H   H367      1.0  0.24660  0.95455  0.44451  1.0000
  C   C370      1.0  0.24774  0.68136  0.43304  1.0000
  C   C371      1.0  0.22746  0.66380  0.43797  1.0000
  C   C372      1.0  0.22626  0.63373  0.43299  1.0000
  C   C373      1.0  0.24528  0.62112  0.42287  1.0000
  C   C374      1.0  0.26547  0.63872  0.41783  1.0000
  C   C375      1.0  0.26682  0.66869  0.42301  1.0000
  H   H368      1.0  0.21268  0.67349  0.44578  1.0000
  H   H369      1.0  0.21068  0.62038  0.43703  1.0000
  H   H370      1.0  0.28024  0.62908  0.41000  1.0000
  H   H371      1.0  0.28250  0.68204  0.41914  1.0000
  H   H372      1.0  0.26784  0.79834  0.49793  1.0000
  C   C376      1.0  0.01175  0.63672  0.27986  1.0000
  H   H373      1.0  0.44808  0.71152  0.33396  1.0000
  H   H374      1.0  0.45870  0.71573  0.36608  1.0000
  H   H375      1.0  0.45011  0.65857  0.27350  1.0000
  C   C377      1.0  0.48315  0.66955  0.28777  1.0000
  C   C378      1.0  0.33671  0.75456  0.50344  1.0000
  C   C379      1.0  0.31122  0.75085  0.50450  1.0000
  C   C380      1.0  0.08411  0.52079  0.36897  1.0000
  H   H376      1.0  0.30088  0.74605  0.49268  1.0000
  C   C381      1.0  0.42729  0.78318  0.37628  1.0000
  C   C382      1.0  0.41939  0.78354  0.39413  1.0000
  C   C383      1.0  0.39424  0.78111  0.39863  1.0000
  C   C384      1.0  0.37667  0.77843  0.38526  1.0000
  C   C385      1.0  0.38450  0.77839  0.36738  1.0000
  C   C386      1.0  0.40969  0.78069  0.36288  1.0000
  H   H377      1.0  0.43287  0.78548  0.40458  1.0000
  H   H378      1.0  0.38852  0.78107  0.41244  1.0000
  H   H379      1.0  0.37104  0.77633  0.35693  1.0000
  H   H380      1.0  0.41550  0.78047  0.34910  1.0000
  H   H381      1.0  0.15783  0.62083  0.41492  1.0000
  H   H382      1.0  0.25697  0.83303  0.50729  1.0000
  S   S136      1.0  0.47054  0.70322  0.29635  1.0000
  H   H383      1.0  0.07754  0.56218  0.40672  1.0000
  H   H384      1.0  0.46847  0.86628  0.29356  1.0000
  C   C387      1.0  0.43982  0.71191  0.36209  1.0000
  H   H385      1.0  0.21133  0.58728  0.36161  1.0000
  C   C388      1.0  0.02067  0.90088  0.27480  1.0000
  C   C389      1.0  0.47000  0.90543  0.27685  1.0000
  H   H386      1.0  0.13279  0.00083  0.39211  1.0000
  H   H387      1.0  0.38271  0.71640  0.39592  1.0000
  N   N32       1.0  0.39714  0.70651  0.37006  1.0000
  H   H388      1.0  0.42599  0.71235  0.38886  1.0000
  H   H389      1.0  0.10571  0.97705  0.36977  1.0000
  H   H390      1.0  0.05557  0.54978  0.37877  1.0000
  Fe  Fe67      1.0  0.17954  0.01684  0.45836  1.0000
  H   H391      1.0  0.36015  0.71316  0.37905  1.0000
  C   C390      1.0  0.33981  0.83103  0.50283  1.0000
  H   H392      1.0  0.03979  0.76481  0.27824  1.0000
  H   H393      1.0  0.37519  0.68005  0.38727  1.0000
  S   S137      1.0  0.19391  0.52365  0.40805  1.0000
  C   C391      1.0  0.11663  0.01240  0.38743  1.0000
  C   C392      1.0  0.42116  0.71005  0.37496  1.0000
  C   C393      1.0  0.19842  0.52517  0.50712  1.0000
  H   H394      1.0  0.21648  0.98019  0.49834  1.0000
  C   C394      1.0  0.40934  0.70602  0.33925  1.0000
  H   H395      1.0  0.14322  0.01823  0.34558  1.0000
  S   S138      1.0  0.01568  0.57232  0.33909  1.0000
  S   S139      1.0  0.02659  0.60689  0.29106  1.0000
  C   C395      1.0  0.03440  0.78748  0.28268  1.0000
  C   C396      1.0  0.31623  0.82830  0.49571  1.0000
  H   H396      1.0  0.20460  0.54937  0.36820  1.0000
  H   H397      1.0  0.40460  0.70459  0.32529  1.0000
  Fe  Fe68      1.0  0.03263  0.52677  0.33744  1.0000
  C   C397      1.0  0.20578  0.57276  0.37285  1.0000
  C   C398      1.0  0.16285  0.01673  0.52056  1.0000
  N   N33       1.0  0.29597  0.82719  0.50662  1.0000
  C   C399      1.0  0.46881  0.65194  0.27635  1.0000
  C   C400      1.0  0.27155  0.82252  0.49897  1.0000
  C   C401      1.0  0.18116  0.59917  0.39543  1.0000
  Fe  Fe69      1.0  0.02847  0.01537  0.33818  1.0000
  H   H398      1.0  0.19494  0.94284  0.51668  1.0000
  N   N34       1.0  0.29383  0.89750  0.39478  1.0000
  C   C402      1.0  0.29566  0.87403  0.38326  1.0000
  C   C403      1.0  0.30729  0.89788  0.41008  1.0000
  C   C404      1.0  0.31140  0.85019  0.38690  1.0000
  C   C405      1.0  0.32310  0.87437  0.41415  1.0000
  C   C406      1.0  0.32530  0.85055  0.40239  1.0000
  C   C407      1.0  0.27805  0.92278  0.39022  1.0000
  H   H399      1.0  0.28490  0.87364  0.37119  1.0000
  H   H400      1.0  0.30546  0.91609  0.41946  1.0000
  H   H401      1.0  0.31285  0.83142  0.37786  1.0000
  H   H402      1.0  0.33322  0.87437  0.42654  1.0000
  H   H403      1.0  0.33763  0.83226  0.40528  1.0000
  H   H404      1.0  0.28655  0.93584  0.37930  1.0000
  H   H405      1.0  0.25954  0.91502  0.38605  1.0000
  H   H406      1.0  0.27494  0.93781  0.40178  1.0000
  N   N35       1.0  0.26177  0.63776  0.47415  1.0000
  C   C408      1.0  0.26842  0.61486  0.46313  1.0000
  C   C409      1.0  0.24389  0.63379  0.48683  1.0000
  C   C410      1.0  0.25666  0.58731  0.46439  1.0000
  C   C411      1.0  0.23195  0.60642  0.48859  1.0000
  C   C412      1.0  0.23836  0.58308  0.47724  1.0000
  C   C413      1.0  0.27432  0.66651  0.47291  1.0000
  H   H407      1.0  0.28249  0.61793  0.45298  1.0000
  H   H408      1.0  0.23872  0.65187  0.49564  1.0000
  H   H409      1.0  0.26148  0.56949  0.45525  1.0000
  H   H410      1.0  0.21780  0.60333  0.49868  1.0000
  H   H411      1.0  0.22913  0.56178  0.47840  1.0000
  H   H412      1.0  0.28723  0.66931  0.48415  1.0000
  H   H413      1.0  0.28485  0.66880  0.46025  1.0000
  H   H414      1.0  0.26067  0.68496  0.47312  1.0000
  C   C414      1.0  0.48012  0.88049  0.28555  1.0000
  H   H415      1.0  0.18176  0.56192  0.49347  1.0000
  H   H416      1.0  0.36985  0.76152  0.51846  1.0000
  C   C415      1.0  0.16084  0.57584  0.37131  1.0000
  C   C416      1.0  0.13800  0.58551  0.37779  1.0000
  H   H417      1.0  0.12115  0.57931  0.37105  1.0000
  C   C417      1.0  0.18726  0.55310  0.50620  1.0000
  Fe  Fe70      1.0  0.01217  0.56983  0.30930  1.0000
  H   H418      1.0  0.11919  0.60815  0.39916  1.0000
  H   H419      1.0  0.37208  0.70140  0.34860  1.0000
  H   H420      1.0  0.22050  0.57342  0.38304  1.0000
  C   C418      1.0  0.37789  0.70373  0.38374  1.0000
  S   S140      1.0  0.49899  0.73384  0.34180  1.0000
  H   H421      1.0  0.16143  0.56245  0.35932  1.0000
  S   S141      1.0  0.21900  0.01043  0.45050  1.0000
  H   H422      1.0  0.27033  0.83250  0.48548  1.0000
  H   H423      1.0  0.19792  0.60459  0.40246  1.0000
  C   C419      1.0  0.07347  0.54025  0.38135  1.0000
  H   H424      1.0  0.31430  0.82648  0.48141  1.0000
  C   C420      1.0  0.01010  0.92482  0.28431  1.0000
  H   H425      1.0  0.02142  0.93846  0.29281  1.0000
  H   H426      1.0  0.11805  0.00889  0.45901  1.0000
  S   S142      1.0  0.16441  0.00285  0.48516  1.0000
  C   C421      1.0  0.10923  0.53490  0.40083  1.0000
  Fe  Fe71      1.0  0.16341  0.53054  0.42792  1.0000
  H   H427      1.0  0.01021  0.83661  0.29134  1.0000
  C   C422      1.0  0.35006  0.75905  0.51915  1.0000
  S   S143      1.0  0.03157  0.52559  0.30744  1.0000
  H   H428      1.0  0.04177  0.79115  0.29623  1.0000
  H   H429      1.0  0.00860  0.99202  0.27187  1.0000
  H   H430      1.0  0.45056  0.91013  0.27828  1.0000
  S   S144      1.0  0.02553  0.01575  0.30831  1.0000
  C   C423      1.0  0.10125  0.99898  0.37474  1.0000
  C   C424      1.0  0.21695  0.98173  0.51275  1.0000
  C   C425      1.0  0.08058  0.01401  0.36806  1.0000
  H   H431      1.0  0.21576  0.98831  0.56388  1.0000
  C   C426      1.0  0.36839  0.82224  0.67501  1.0000
  H   H432      1.0  0.34190  0.88846  0.63456  1.0000
  H   H433      1.0  0.46131  0.57562  0.75981  1.0000
  H   H434      1.0  0.30708  0.83316  0.68162  1.0000
  C   C427      1.0  0.49934  0.75245  0.66121  1.0000
  Fe  Fe72      1.0  0.30044  0.82447  0.61254  1.0000
  S   S145      1.0  0.33200  0.81428  0.59408  1.0000
  S   S146      1.0  0.29396  0.87305  0.61978  1.0000
  Fe  Fe73      1.0  0.29261  0.75776  0.62043  1.0000
  S   S147      1.0  0.32444  0.74340  0.60318  1.0000
  S   S148      1.0  0.26382  0.72773  0.63292  1.0000
  Fe  Fe74      1.0  0.34453  0.78250  0.61544  1.0000
  S   S149      1.0  0.38461  0.79008  0.62349  1.0000
  Fe  Fe75      1.0  0.30922  0.77652  0.58374  1.0000
  S   S150      1.0  0.29512  0.76522  0.55624  1.0000
  S   S151      1.0  0.31368  0.79410  0.63421  1.0000
  S   S152      1.0  0.27660  0.78941  0.60063  1.0000
  H   H435      1.0  0.01282  0.98836  0.66702  1.0000
  H   H436      1.0  0.20576  0.52089  0.55214  1.0000
  C   C428      1.0  0.05507  0.63020  0.73487  1.0000
  N   N36       1.0  0.24831  0.68283  0.58456  1.0000
  C   C429      1.0  0.09331  0.56115  0.73317  1.0000
  H   H437      1.0  0.06085  0.55480  0.67581  1.0000
  C   C430      1.0  0.08933  0.52417  0.68331  1.0000
  S   S153      1.0  0.20527  0.95712  0.59646  1.0000
  Fe  Fe76      1.0  0.22377  0.56381  0.61689  1.0000
  S   S154      1.0  0.25953  0.58744  0.62312  1.0000
  C   C431      1.0  0.11665  0.54815  0.65448  1.0000
  S   S155      1.0  0.18957  0.58748  0.60848  1.0000
  S   S156      1.0  0.49156  0.81525  0.70459  1.0000
  Fe  Fe77      1.0  0.47576  0.76954  0.70745  1.0000
  S   S157      1.0  0.44069  0.75213  0.69439  1.0000
  H   H438      1.0  0.18030  0.92570  0.54431  1.0000
  S   S158      1.0  0.47673  0.77085  0.73745  1.0000
  H   H439      1.0  0.08476  0.57582  0.65047  1.0000
  H   H440      1.0  0.37347  0.87675  0.63320  1.0000
  H   H441      1.0  0.11892  0.54799  0.71264  1.0000
  H   H442      1.0  0.06652  0.57965  0.75111  1.0000
  H   H443      1.0  0.25614  0.72531  0.57366  1.0000
  H   H444      1.0  0.32382  0.83137  0.54662  1.0000
  H   H445      1.0  0.27919  0.75078  0.52154  1.0000
  H   H446      1.0  0.22943  0.60091  0.57784  1.0000
  C   C432      1.0  0.20064  0.52999  0.53940  1.0000
  C   C433      1.0  0.32871  0.85163  0.66014  1.0000
  H   H447      1.0  0.13245  0.01103  0.64778  1.0000
  C   C434      1.0  0.39984  0.77897  0.64325  1.0000
  C   C435      1.0  0.38974  0.75820  0.65500  1.0000
  C   C436      1.0  0.40252  0.75025  0.67056  1.0000
  C   C437      1.0  0.42525  0.76340  0.67475  1.0000
  C   C438      1.0  0.43505  0.78469  0.66320  1.0000
  C   C439      1.0  0.42261  0.79206  0.64742  1.0000
  H   H448      1.0  0.37225  0.74794  0.65201  1.0000
  H   H449      1.0  0.39475  0.73374  0.67939  1.0000
  H   H450      1.0  0.45223  0.79539  0.66640  1.0000
  H   H451      1.0  0.43052  0.80826  0.63846  1.0000
  H   H452      1.0  0.07135  0.98478  0.64128  1.0000
  S   S159      1.0  0.01736  0.56598  0.71372  1.0000
  H   H453      1.0  0.34962  0.85354  0.62419  1.0000
  H   H454      1.0  0.34807  0.76563  0.54768  1.0000
  H   H455      1.0  0.38894  0.83949  0.65286  1.0000
  C   C440      1.0  0.26301  0.68888  0.62952  1.0000
  C   C441      1.0  0.24029  0.67411  0.63045  1.0000
  C   C442      1.0  0.23892  0.64314  0.62822  1.0000
  C   C443      1.0  0.26040  0.62653  0.62551  1.0000
  C   C444      1.0  0.28316  0.64130  0.62460  1.0000
  C   C445      1.0  0.28445  0.67240  0.62634  1.0000
  H   H456      1.0  0.22365  0.68667  0.63303  1.0000
  H   H457      1.0  0.22132  0.63205  0.62908  1.0000
  H   H458      1.0  0.29987  0.62861  0.62259  1.0000
  H   H459      1.0  0.30208  0.68351  0.62579  1.0000
  C   C446      1.0  0.26928  0.89606  0.61287  1.0000
  C   C447      1.0  0.26919  0.92615  0.61791  1.0000
  C   C448      1.0  0.24982  0.94519  0.61295  1.0000
  C   C449      1.0  0.23024  0.93424  0.60294  1.0000
  C   C450      1.0  0.23038  0.90418  0.59782  1.0000
  C   C451      1.0  0.24981  0.88517  0.60272  1.0000
  H   H460      1.0  0.28415  0.93477  0.62578  1.0000
  H   H461      1.0  0.24995  0.96823  0.61700  1.0000
  H   H462      1.0  0.21524  0.89544  0.59019  1.0000
  H   H463      1.0  0.24957  0.86205  0.59884  1.0000
  C   C452      1.0  0.25541  0.71399  0.58676  1.0000
  C   C453      1.0  0.49279  0.88412  0.76295  1.0000
  S   S160      1.0  0.47966  0.85256  0.75228  1.0000
  C   C454      1.0  0.25949  0.63142  0.58154  1.0000
  C   C455      1.0  0.05274  0.98049  0.64697  1.0000
  N   N37       1.0  0.48612  0.53861  0.76006  1.0000
  S   S161      1.0  0.06463  0.00753  0.69127  1.0000
  H   H464      1.0  0.02345  0.95713  0.76717  1.0000
  C   C456      1.0  0.34259  0.83275  0.52123  1.0000
  C   C457      1.0  0.21608  0.98636  0.54951  1.0000
  H   H465      1.0  0.04286  0.96471  0.63823  1.0000
  N   N38       1.0  0.35143  0.85331  0.65222  1.0000
  H   H466      1.0  0.34283  0.80679  0.69494  1.0000
  C   C458      1.0  0.10333  0.01052  0.66761  1.0000
  C   C459      1.0  0.23477  0.62393  0.57954  1.0000
  Fe  Fe78      1.0  0.19114  0.55770  0.58459  1.0000
  H   H467      1.0  0.10651  0.98759  0.67121  1.0000
  C   C460      1.0  0.49436  0.67571  0.76137  1.0000
  C   C461      1.0  0.26600  0.66121  0.58386  1.0000
  H   H468      1.0  0.28524  0.66682  0.58564  1.0000
  H   H469      1.0  0.27341  0.61416  0.58184  1.0000
  H   H470      1.0  0.27376  0.71605  0.59307  1.0000
  C   C462      1.0  0.35431  0.86886  0.63524  1.0000
  C   C463      1.0  0.22401  0.67567  0.58256  1.0000
  Fe  Fe79      1.0  0.49521  0.81545  0.73443  1.0000
  C   C464      1.0  0.10628  0.56504  0.71728  1.0000
  S   S162      1.0  0.18481  0.57943  0.55788  1.0000
  Fe  Fe80      1.0  0.16885  0.55059  0.62225  1.0000
  N   N39       1.0  0.03848  0.00796  0.64898  1.0000
  H   H471      1.0  0.17851  0.95279  0.56181  1.0000
  H   H472      1.0  0.38403  0.81042  0.68049  1.0000
  Fe  Fe81      1.0  0.20067  0.00647  0.60225  1.0000
  H   H473      1.0  0.15223  0.99659  0.52208  1.0000
  N   N40       1.0  0.20421  0.96337  0.54137  1.0000
  H   H474      1.0  0.21000  0.69280  0.58310  1.0000
  C   C465      1.0  0.18975  0.55805  0.53850  1.0000
  H   H475      1.0  0.48257  0.68896  0.75299  1.0000
  H   H476      1.0  0.19761  0.64028  0.57849  1.0000
  H   H477      1.0  0.11135  0.59273  0.69424  1.0000
  C   C466      1.0  0.07665  0.58296  0.73880  1.0000
  C   C467      1.0  0.08502  0.61145  0.71291  1.0000
  H   H478      1.0  0.48220  0.75004  0.66860  1.0000
  C   C468      1.0  0.21688  0.64613  0.57998  1.0000
  C   C469      1.0  0.29857  0.82830  0.52469  1.0000
  S   S163      1.0  0.13194  0.56229  0.63540  1.0000
  H   H479      1.0  0.31294  0.86244  0.65417  1.0000
  C   C470      1.0  0.18308  0.56957  0.52187  1.0000
  C   C471      1.0  0.19130  0.94143  0.55237  1.0000
  N   N41       1.0  0.07299  0.60794  0.72883  1.0000
  H   H480      1.0  0.28272  0.82570  0.53343  1.0000
  H   H481      1.0  0.05832  0.65216  0.72860  1.0000
  S   S164      1.0  0.01991  0.58849  0.76640  1.0000
  H   H482      1.0  0.20481  0.92858  0.56031  1.0000
  H   H483      1.0  0.24226  0.72578  0.59573  1.0000
  H   H484      1.0  0.05619  0.63341  0.74951  1.0000
  C   C472      1.0  0.09286  0.55866  0.65861  1.0000
  C   C473      1.0  0.01797  0.00809  0.65965  1.0000
  S   S165      1.0  0.22655  0.53590  0.59214  1.0000
  Fe  Fe82      1.0  0.01110  0.55772  0.74295  1.0000
  C   C474      1.0  0.33778  0.76135  0.53569  1.0000
  C   C475      1.0  0.37111  0.83883  0.65942  1.0000
  C   C476      1.0  0.32527  0.83502  0.67566  1.0000
  C   C477      1.0  0.22835  0.00791  0.53944  1.0000
  H   H485      1.0  0.09568  0.54098  0.74083  1.0000
  C   C478      1.0  0.10199  0.59018  0.70696  1.0000
  C   C479      1.0  0.34527  0.82020  0.68310  1.0000
  C   C480      1.0  0.07923  0.54673  0.67293  1.0000
  H   H486      1.0  0.08147  0.63067  0.70466  1.0000
  Fe  Fe83      1.0  0.03542  0.52094  0.71295  1.0000
  H   H487      1.0  0.03615  0.62269  0.73167  1.0000
  H   H488      1.0  0.05565  0.97001  0.66018  1.0000
  S   S166      1.0  0.16778  0.52282  0.59742  1.0000
  C   C481      1.0  0.31212  0.75894  0.53652  1.0000
  C   C482      1.0  0.29900  0.75310  0.52094  1.0000
  S   S167      1.0  0.20327  0.52886  0.63284  1.0000
  H   H489      1.0  0.49645  0.79983  0.65917  1.0000
  C   C483      1.0  0.46181  0.55170  0.76343  1.0000
  C   C484      1.0  0.32185  0.83147  0.53226  1.0000
  H   H490      1.0  0.44745  0.54010  0.75563  1.0000
  C   C485      1.0  0.12694  0.52602  0.66510  1.0000
  H   H491      1.0  0.36082  0.83394  0.52695  1.0000
  C   C486      1.0  0.20461  0.96077  0.52323  1.0000
  H   H492      1.0  0.46566  0.64481  0.76861  1.0000
  C   C487      1.0  0.48482  0.65062  0.77027  1.0000
  C   C488      1.0  0.01241  0.93810  0.77081  1.0000
  H   H493      1.0  0.17441  0.59115  0.52114  1.0000
  C   C489      1.0  0.22873  0.00555  0.52094  1.0000
  S   S168      1.0  0.03126  0.78361  0.81500  1.0000
  N   N42       1.0  0.25384  0.92535  0.96930  1.0000
  Fe  Fe84      1.0  0.01892  0.77735  0.84343  1.0000
  S   S169      1.0  0.04097  0.76855  0.86866  1.0000
  Fe  Fe85      1.0  0.30007  0.56111  0.92834  1.0000
  S   S170      1.0  0.34052  0.55480  0.93318  1.0000
  S   S171      1.0  0.29007  0.60498  0.91525  1.0000
  Fe  Fe86      1.0  0.29307  0.99979  0.92840  1.0000
  S   S172      1.0  0.32672  0.97846  0.93938  1.0000
  S   S173      1.0  0.26186  0.97198  0.91731  1.0000
  C   C490      1.0  0.42640  0.53571  0.89488  1.0000
  H   H494      1.0  0.49669  0.01513  0.90135  1.0000
  H   H495      1.0  0.30062  0.87356  0.87646  1.0000
  H   H496      1.0  0.47570  0.93930  0.79211  1.0000
  Fe  Fe87      1.0  0.32137  0.00921  0.96256  1.0000
  C   C491      1.0  0.01905  0.63850  0.78752  1.0000
  Fe  Fe88      1.0  0.17312  0.78745  0.91415  1.0000
  S   S174      1.0  0.21185  0.76921  0.91195  1.0000
  S   S175      1.0  0.15358  0.79244  0.88748  1.0000
  Fe  Fe89      1.0  0.17740  0.79490  0.95464  1.0000
  S   S176      1.0  0.21589  0.77749  0.95487  1.0000
  S   S177      1.0  0.15833  0.80820  0.98044  1.0000
  Fe  Fe90      1.0  0.22167  0.80616  0.93083  1.0000
  S   S178      1.0  0.25707  0.83280  0.93039  1.0000
  Fe  Fe91      1.0  0.20240  0.74247  0.93625  1.0000
  S   S179      1.0  0.20756  0.69406  0.94389  1.0000
  S   S180      1.0  0.18385  0.82608  0.93165  1.0000
  S   S181      1.0  0.16302  0.75817  0.93723  1.0000
  H   H497      1.0  0.26530  0.96459  0.98261  1.0000
  H   H498      1.0  0.43676  0.55058  0.90327  1.0000
  Fe  Fe92      1.0  0.00493  0.82255  0.81466  1.0000
  H   H499      1.0  0.48166  0.83752  0.78985  1.0000
  C   C492      1.0  0.17640  0.72306  0.98499  1.0000
  C   C493      1.0  0.46473  0.79454  0.78960  1.0000
  H   H500      1.0  0.07243  0.85666  0.81217  1.0000
  H   H501      1.0  0.28229  0.90109  0.98218  1.0000
  H   H502      1.0  0.11344  0.85659  0.87534  1.0000
  S   S182      1.0  0.32163  0.98604  0.98928  1.0000
  C   C494      1.0  0.01395  0.66848  0.79166  1.0000
  H   H503      1.0  0.42685  0.98102  0.89359  1.0000
  H   H504      1.0  0.40165  0.56486  0.85576  1.0000
  H   H505      1.0  0.22715  0.77573  0.01760  1.0000
  S   S183      1.0  0.48645  0.60184  0.79218  1.0000
  H   H506      1.0  0.45306  0.74889  0.78784  1.0000
  C   C495      1.0  0.33728  0.52205  0.00348  1.0000
  C   C496      1.0  0.17294  0.80087  0.00096  1.0000
  C   C497      1.0  0.19759  0.79211  0.00148  1.0000
  H   H507      1.0  0.09623  0.88336  0.81675  1.0000
  H   H508      1.0  0.20852  0.79188  0.98953  1.0000
  S   S184      1.0  0.01958  0.86696  0.80411  1.0000
  H   H509      1.0  0.30871  0.56635  0.88545  1.0000
  H   H510      1.0  0.38031  0.61538  0.90191  1.0000
  C   C498      1.0  0.00734  0.89225  0.78816  1.0000
  H   H511      1.0  0.44735  0.99919  0.86602  1.0000
  H   H512      1.0  0.27739  0.93756  0.88236  1.0000
  C   C499      1.0  0.29707  0.88446  0.88947  1.0000
  H   H513      1.0  0.03603  0.83987  0.86990  1.0000
  H   H514      1.0  0.35961  0.54385  0.85453  1.0000
  H   H515      1.0  0.01963  0.67772  0.80426  1.0000
  H   H516      1.0  0.44636  0.80326  0.79187  1.0000
  H   H517      1.0  0.25938  0.85347  0.98175  1.0000
  H   H518      1.0  0.29657  0.57195  0.99827  1.0000
  H   H519      1.0  0.47653  0.99444  0.92835  1.0000
  H   H520      1.0  0.36550  0.94342  0.89785  1.0000
  H   H521      1.0  0.26159  0.96850  0.95882  1.0000
  C   C500      1.0  0.26016  0.93351  0.92180  1.0000
  C   C501      1.0  0.23899  0.91762  0.91700  1.0000
  C   C502      1.0  0.23744  0.88680  0.91997  1.0000
  C   C503      1.0  0.25722  0.87165  0.92758  1.0000
  C   C504      1.0  0.27833  0.88756  0.93238  1.0000
  C   C505      1.0  0.27978  0.91831  0.92955  1.0000
  H   H522      1.0  0.22375  0.92915  0.91091  1.0000
  H   H523      1.0  0.22116  0.87471  0.91607  1.0000
  H   H524      1.0  0.29374  0.87596  0.93821  1.0000
  H   H525      1.0  0.29625  0.93004  0.93315  1.0000
  C   C506      1.0  0.26759  0.62985  0.92381  1.0000
  C   C507      1.0  0.26543  0.65830  0.91630  1.0000
  C   C508      1.0  0.24746  0.67848  0.92250  1.0000
  C   C509      1.0  0.23128  0.67018  0.93616  1.0000
  C   C510      1.0  0.23340  0.64173  0.94364  1.0000
  C   C511      1.0  0.25157  0.62170  0.93759  1.0000
  H   H526      1.0  0.27779  0.66477  0.90565  1.0000
  H   H527      1.0  0.24611  0.70034  0.91668  1.0000
  H   H528      1.0  0.22089  0.63507  0.95415  1.0000
  H   H529      1.0  0.25295  0.59984  0.94341  1.0000
  C   C512      1.0  0.07250  0.77466  0.87341  1.0000
  C   C513      1.0  0.08036  0.77259  0.89115  1.0000
  C   C514      1.0  0.10504  0.77812  0.89573  1.0000
  C   C515      1.0  0.12221  0.78556  0.88254  1.0000
  C   C516      1.0  0.11447  0.78719  0.86476  1.0000
  C   C517      1.0  0.08973  0.78185  0.86020  1.0000
  H   H530      1.0  0.06715  0.76701  0.90146  1.0000
  H   H531      1.0  0.11075  0.77670  0.90945  1.0000
  H   H532      1.0  0.12765  0.79278  0.85444  1.0000
  H   H533      1.0  0.08396  0.78341  0.84650  1.0000
  H   H534      1.0  0.28765  0.94926  0.96735  1.0000
  C   C518      1.0  0.26766  0.95329  0.96956  1.0000
  C   C519      1.0  0.26399  0.90036  0.97652  1.0000
  S   S185      1.0  0.46926  0.53363  0.81733  1.0000
  C   C520      1.0  0.25110  0.87345  0.97643  1.0000
  C   C521      1.0  0.21717  0.89811  0.96217  1.0000
  C   C522      1.0  0.22756  0.87238  0.96918  1.0000
  C   C523      1.0  0.39365  0.59206  0.87867  1.0000
  Fe  Fe93      1.0  0.48453  0.53267  0.84490  1.0000
  C   C524      1.0  0.49977  0.63314  0.78133  1.0000
  C   C525      1.0  0.29491  0.57077  0.01265  1.0000
  H   H535      1.0  0.29835  0.98607  0.88219  1.0000
  H   H536      1.0  0.03936  0.92046  0.78891  1.0000
  N   N43       1.0  0.34637  0.56878  0.87675  1.0000
  S   S186      1.0  0.38416  0.00024  0.91312  1.0000
  H   H537      1.0  0.26648  0.53753  0.01230  1.0000
  N   N44       1.0  0.07678  0.86633  0.83958  1.0000
  C   C526      1.0  0.05482  0.85732  0.84674  1.0000
  C   C527      1.0  0.09766  0.86628  0.84966  1.0000
  C   C528      1.0  0.05332  0.84796  0.86444  1.0000
  C   C529      1.0  0.09678  0.85732  0.86746  1.0000
  C   C530      1.0  0.07443  0.84816  0.87486  1.0000
  S   S187      1.0  0.46543  0.54071  0.87165  1.0000
  H   H538      1.0  0.03836  0.85712  0.83868  1.0000
  H   H539      1.0  0.11518  0.87292  0.84395  1.0000
  C   C531      1.0  0.43636  0.52666  0.87841  1.0000
  C   C532      1.0  0.46847  0.76415  0.78725  1.0000
  H   H540      1.0  0.45725  0.54998  0.77782  1.0000
  C   C533      1.0  0.34621  0.94208  0.89425  1.0000
  H   H541      1.0  0.13962  0.74096  0.98503  1.0000
  C   C534      1.0  0.33350  0.96779  0.88962  1.0000
  N   N45       1.0  0.30942  0.91337  0.89006  1.0000
  C   C535      1.0  0.29684  0.93852  0.88547  1.0000
  C   C536      1.0  0.33382  0.91485  0.89436  1.0000
  C   C537      1.0  0.30863  0.96610  0.88531  1.0000
  H   H542      1.0  0.31389  0.55971  0.86221  1.0000
  H   H543      1.0  0.06438  0.89391  0.81860  1.0000
  C   C538      1.0  0.47782  0.90155  0.77424  1.0000
  C   C539      1.0  0.32151  0.00702  0.00913  1.0000
  H   H544      1.0  0.34384  0.89495  0.89796  1.0000
  H   H545      1.0  0.07361  0.84022  0.88847  1.0000
  H   H546      1.0  0.19898  0.89737  0.95634  1.0000
  C   C540      1.0  0.41882  0.99927  0.88632  1.0000
  H   H547      1.0  0.27684  0.88680  0.89141  1.0000
  C   C541      1.0  0.20821  0.78318  0.01753  1.0000
  H   H548      1.0  0.13500  0.73782  0.01789  1.0000
  N   N46       1.0  0.17244  0.71291  0.88692  1.0000
  C   C542      1.0  0.14855  0.71797  0.88217  1.0000
  C   C543      1.0  0.17767  0.69740  0.90206  1.0000
  C   C544      1.0  0.12911  0.70801  0.89289  1.0000
  C   C545      1.0  0.15868  0.68701  0.91306  1.0000
  C   C546      1.0  0.13426  0.69255  0.90848  1.0000
  C   C547      1.0  0.19234  0.72416  0.87551  1.0000
  H   H549      1.0  0.14444  0.73047  0.87024  1.0000
  H   H550      1.0  0.19659  0.69319  0.90586  1.0000
  H   H551      1.0  0.11020  0.71275  0.88924  1.0000
  H   H552      1.0  0.16300  0.67511  0.92519  1.0000
  H   H553      1.0  0.11936  0.68501  0.91704  1.0000
  H   H554      1.0  0.21078  0.72026  0.88139  1.0000
  H   H555      1.0  0.19178  0.71312  0.86232  1.0000
  H   H556      1.0  0.19021  0.74854  0.87369  1.0000
  C   C548      1.0  0.37579  0.60027  0.89119  1.0000
  C   C549      1.0  0.07770  0.87554  0.82090  1.0000
  C   C550      1.0  0.15940  0.80229  0.01696  1.0000
  S   S188      1.0  0.34669  0.54145  0.98426  1.0000
  C   C551      1.0  0.43058  0.00963  0.87074  1.0000
  H   H557      1.0  0.33831  0.59488  0.89980  1.0000
  C   C552      1.0  0.48747  0.92620  0.78348  1.0000
  C   C553      1.0  0.32161  0.55610  0.87564  1.0000
  C   C554      1.0  0.23063  0.92459  0.96237  1.0000
  H   H558      1.0  0.30363  0.86973  0.90031  1.0000
  H   H559      1.0  0.34290  0.98903  0.88953  1.0000
  H   H560      1.0  0.49410  0.53529  0.90564  1.0000
  H   H561      1.0  0.02877  0.62491  0.79702  1.0000
  H   H562      1.0  0.21747  0.85158  0.96886  1.0000
  Fe  Fe94      1.0  0.32864  0.53060  0.95800  1.0000
  H   H563      1.0  0.22261  0.94439  0.95659  1.0000
  C   C555      1.0  0.35206  0.58844  0.88998  1.0000
  C   C556      1.0  0.15175  0.73004  0.01145  1.0000
  C   C557      1.0  0.39706  0.01267  0.89270  1.0000
  H   H564      1.0  0.17877  0.72483  0.97072  1.0000
  C   C558      1.0  0.46813  0.01282  0.92135  1.0000
  S   S189      1.0  0.28851  0.54030  0.95422  1.0000
  H   H565      1.0  0.39536  0.53338  0.91309  1.0000
  C   C559      1.0  0.15433  0.73179  0.99302  1.0000
  H   H566      1.0  0.41231  0.60047  0.87962  1.0000
  C   C560      1.0  0.40292  0.52602  0.90048  1.0000
  C   C561      1.0  0.38766  0.57208  0.86522  1.0000
  H   H567      1.0  0.32420  0.60161  0.01711  1.0000
  H   H568      1.0  0.21302  0.70689  0.98914  1.0000
  Fe  Fe95      1.0  0.50046  0.56450  0.81022  1.0000
  C   C562      1.0  0.02138  0.91720  0.78318  1.0000
  H   H569      1.0  0.32243  0.53187  0.87835  1.0000
  C   C563      1.0  0.36386  0.56033  0.86457  1.0000
  H   H570      1.0  0.14036  0.80935  0.01675  1.0000
  C   C564      1.0  0.19575  0.71297  0.99554  1.0000
  H   H571      1.0  0.45857  0.89596  0.77586  1.0000
  S   S190      1.0  0.49714  0.99912  0.83940  1.0000
  C   C565      1.0  0.48482  0.81385  0.78844  1.0000
  Fe  Fe96      1.0  0.34800  0.01510  0.92614  1.0000
  N   N47       1.0  0.19311  0.71147  0.01363  1.0000
  C   C566      1.0  0.34693  0.53026  0.02004  1.0000
  H   H572      1.0  0.49519  0.72998  0.78166  1.0000
  C   C567      1.0  0.01184  0.62601  0.77119  1.0000
  H   H573      1.0  0.36080  0.54741  0.02071  1.0000
  H   H574      1.0  0.43634  0.01526  0.93874  1.0000
  C   C568      1.0  0.49211  0.75351  0.78371  1.0000
  H   H575      1.0  0.22328  0.68258  0.01876  1.0000
  C   C569      1.0  0.27809  0.55136  0.02054  1.0000
  S   S191      1.0  0.62782  0.05909  0.13890  1.0000
  Fe  Fe97      1.0  0.96670  0.29347  0.21488  1.0000
  C   C570      1.0  0.99798  0.05121  0.25628  1.0000
  S   S192      1.0  0.93332  0.31227  0.20049  1.0000
  H   H576      1.0  0.75765  0.44669  0.15529  1.0000
  H   H577      1.0  0.76731  0.19258  0.16023  1.0000
  S   S193      1.0  0.96935  0.29502  0.24477  1.0000
  Fe  Fe98      1.0  0.98791  0.25015  0.24265  1.0000
  S   S194      1.0  0.69774  0.03471  0.13770  1.0000
  H   H578      1.0  0.53411  0.20324  0.25100  1.0000
  Fe  Fe99      1.0  0.68509  0.51222  0.08561  1.0000
  C   C571      1.0  0.50706  0.28066  0.26125  1.0000
  S   S195      1.0  0.50422  0.05719  0.20534  1.0000
  C   C572      1.0  0.64804  0.44590  0.14752  1.0000
  H   H579      1.0  0.74450  0.48265  0.15317  1.0000
  H   H580      1.0  0.98402  0.33745  0.17512  1.0000
  Fe  Fe100     1.0  0.83915  0.26630  0.12280  1.0000
  S   S196      1.0  0.80350  0.28475  0.13382  1.0000
  S   S197      1.0  0.87303  0.25078  0.13810  1.0000
  Fe  Fe101     1.0  0.81753  0.25909  0.08514  1.0000
  S   S198      1.0  0.78075  0.27719  0.09336  1.0000
  S   S199      1.0  0.82268  0.23736  0.05818  1.0000
  Fe  Fe102     1.0  0.80229  0.31143  0.10843  1.0000
  S   S200      1.0  0.79443  0.36057  0.10432  1.0000
  Fe  Fe103     1.0  0.78499  0.24891  0.11768  1.0000
  S   S201      1.0  0.75280  0.22113  0.12757  1.0000
  S   S202      1.0  0.83930  0.29511  0.09836  1.0000
  S   S203      1.0  0.82040  0.22865  0.10862  1.0000
  H   H581      1.0  0.52349  0.43165  0.25363  1.0000
  C   C573      1.0  0.56916  0.04132  0.17125  1.0000
  H   H582      1.0  0.79399  0.15392  0.14655  1.0000
  H   H583      1.0  0.82275  0.25812  0.18768  1.0000
  H   H584      1.0  0.56724  0.05747  0.23575  1.0000
  C   C574      1.0  0.60544  0.03962  0.15165  1.0000
  Fe  Fe104     1.0  0.69928  0.48383  0.12089  1.0000
  S   S204      1.0  0.70871  0.44129  0.13538  1.0000
  Fe  Fe105     1.0  0.71295  0.05393  0.11235  1.0000
  S   S205      1.0  0.74687  0.08321  0.10970  1.0000
  S   S206      1.0  0.66340  0.48842  0.10672  1.0000
  S   S207      1.0  0.67593  0.06074  0.09978  1.0000
  C   C575      1.0  0.75129  0.18276  0.12259  1.0000
  C   C576      1.0  0.73047  0.16637  0.12785  1.0000
  C   C577      1.0  0.72864  0.13588  0.12386  1.0000
  C   C578      1.0  0.74786  0.12147  0.11485  1.0000
  C   C579      1.0  0.76875  0.13780  0.10976  1.0000
  C   C580      1.0  0.77035  0.16833  0.11344  1.0000
  H   H585      1.0  0.71559  0.17735  0.13491  1.0000
  H   H586      1.0  0.71247  0.12350  0.12786  1.0000
  H   H587      1.0  0.78366  0.12685  0.10273  1.0000
  H   H588      1.0  0.78635  0.18062  0.10916  1.0000
  C   C581      1.0  0.76768  0.37926  0.11182  1.0000
  C   C582      1.0  0.75677  0.37292  0.12829  1.0000
  C   C583      1.0  0.73807  0.39152  0.13514  1.0000
  C   C584      1.0  0.73008  0.41641  0.12554  1.0000
  C   C585      1.0  0.74028  0.42198  0.10876  1.0000
  C   C586      1.0  0.75907  0.40356  0.10199  1.0000
  H   H589      1.0  0.76339  0.35438  0.13603  1.0000
  H   H590      1.0  0.73020  0.38696  0.14810  1.0000
  H   H591      1.0  0.73413  0.44082  0.10112  1.0000
  H   H592      1.0  0.76739  0.40859  0.08923  1.0000
  H   H593      1.0  0.57791  0.09106  0.22587  1.0000
  C   C587      1.0  0.83380  0.24991  0.17620  1.0000
  C   C588      1.0  0.52678  0.22529  0.25354  1.0000
  H   H594      1.0  0.78767  0.19674  0.03999  1.0000
  Fe  Fe106     1.0  0.66072  0.03823  0.12449  1.0000
  N   N48       1.0  0.62166  0.44882  0.15140  1.0000
  C   C589      1.0  0.82178  0.25908  0.03865  1.0000
  C   C590      1.0  0.82042  0.29003  0.03945  1.0000
  Fe  Fe107     1.0  0.52746  0.51464  0.21022  1.0000
  H   H595      1.0  0.81984  0.30111  0.05221  1.0000
  C   C591      1.0  0.60774  0.04149  0.04156  1.0000
  C   C592      1.0  0.62656  0.05031  0.19346  1.0000
  H   H596      1.0  0.95286  0.10086  0.26646  1.0000
  H   H597      1.0  0.65884  0.08571  0.02685  1.0000
  C   C593      1.0  0.58173  0.46680  0.14302  1.0000
  S   S208      1.0  0.56505  0.50251  0.19830  1.0000
  C   C594      1.0  0.95227  0.29668  0.14505  1.0000
  H   H598      1.0  0.56215  0.24498  0.25869  1.0000
  H   H599      1.0  0.77448  0.47864  0.16336  1.0000
  H   H600      1.0  0.62424  0.42975  0.17729  1.0000
  H   H601      1.0  0.85767  0.20470  0.16077  1.0000
  C   C595      1.0  0.60818  0.06589  0.20270  1.0000
  H   H602      1.0  0.60386  0.06175  0.04887  1.0000
  C   C596      1.0  0.95022  0.05331  0.26947  1.0000
  H   H603      1.0  0.61843  0.49996  0.06296  1.0000
  C   C597      1.0  0.91608  0.29426  0.18372  1.0000
  C   C598      1.0  0.92139  0.26531  0.17817  1.0000
  C   C599      1.0  0.90798  0.25239  0.16419  1.0000
  C   C600      1.0  0.88916  0.26823  0.15563  1.0000
  C   C601      1.0  0.88369  0.29708  0.16128  1.0000
  C   C602      1.0  0.89710  0.30998  0.17526  1.0000
  H   H604      1.0  0.93598  0.25300  0.18454  1.0000
  H   H605      1.0  0.91232  0.23003  0.15993  1.0000
  H   H606      1.0  0.86930  0.30954  0.15479  1.0000
  H   H607      1.0  0.89290  0.33243  0.17946  1.0000
  H   H608      1.0  0.65728  0.46773  0.14906  1.0000
  C   C603      1.0  0.79961  0.45421  0.11174  1.0000
  H   H609      1.0  0.61443  0.47125  0.12704  1.0000
  H   H610      1.0  0.54389  0.39036  0.26972  1.0000
  H   H611      1.0  0.83954  0.16046  0.14654  1.0000
  N   N49       1.0  0.76465  0.18044  0.06081  1.0000
  C   C604      1.0  0.75994  0.20744  0.06846  1.0000
  C   C605      1.0  0.75033  0.15638  0.06489  1.0000
  C   C606      1.0  0.74003  0.21107  0.08017  1.0000
  C   C607      1.0  0.73018  0.15926  0.07647  1.0000
  C   C608      1.0  0.72496  0.18685  0.08405  1.0000
  C   C609      1.0  0.78595  0.17713  0.04888  1.0000
  H   H612      1.0  0.80963  0.43560  0.10595  1.0000
  H   H613      1.0  0.75452  0.13470  0.05934  1.0000
  C   C610      1.0  0.97985  0.31965  0.16590  1.0000
  C   C611      1.0  0.57252  0.06783  0.22286  1.0000
  H   H614      1.0  0.97200  0.51020  0.26498  1.0000
  H   H615      1.0  0.63827  0.06159  0.18385  1.0000
  H   H616      1.0  0.58013  0.43733  0.18451  1.0000
  H   H617      1.0  0.65722  0.42977  0.15646  1.0000
  C   C612      1.0  0.79791  0.22010  0.16805  1.0000
  S   S209      1.0  0.98215  0.24742  0.21305  1.0000
  C   C613      1.0  0.96201  0.07961  0.26463  1.0000
  C   C614      1.0  0.58735  0.44344  0.17152  1.0000
  H   H618      1.0  0.66622  0.05870  0.05515  1.0000
  C   C615      1.0  0.79739  0.48089  0.10249  1.0000
  C   C616      1.0  0.50971  0.12405  0.26209  1.0000
  C   C617      1.0  0.98877  0.18204  0.27084  1.0000
  C   C618      1.0  0.78720  0.19484  0.16058  1.0000
  S   S210      1.0  0.72128  0.50429  0.09888  1.0000
  Fe  Fe108     1.0  0.50638  0.05632  0.23526  1.0000
  C   C619      1.0  0.83783  0.20195  0.16091  1.0000
  C   C620      1.0  0.66933  0.04769  0.04255  1.0000
  H   H619      1.0  0.70981  0.18926  0.09344  1.0000
  H   H620      1.0  0.80308  0.17552  0.05682  1.0000
  H   H621      1.0  0.57020  0.47874  0.13374  1.0000
  C   C621      1.0  0.58636  0.05565  0.16005  1.0000
  H   H622      1.0  0.65116  0.43783  0.13371  1.0000
  H   H623      1.0  0.71913  0.14002  0.07994  1.0000
  S   S211      1.0  0.67816  0.49600  0.05765  1.0000
  C   C622      1.0  0.80220  0.17317  0.15285  1.0000
  H   H624      1.0  0.55291  0.46163  0.16267  1.0000
  H   H625      1.0  0.78602  0.23740  0.17334  1.0000
  H   H626      1.0  0.58506  0.07937  0.15805  1.0000
  C   C623      1.0  0.78800  0.45114  0.12831  1.0000
  C   C624      1.0  0.98542  0.39125  0.26500  1.0000
  N   N50       1.0  0.82296  0.22310  0.16848  1.0000
  H   H627      1.0  0.85277  0.24565  0.18105  1.0000
  C   C625      1.0  0.66513  0.06293  0.02652  1.0000
  H   H628      1.0  0.96365  0.25417  0.13512  1.0000
  C   C626      1.0  0.96860  0.27274  0.14354  1.0000
  C   C627      1.0  0.95796  0.32019  0.15637  1.0000
  H   H629      1.0  0.55611  0.06817  0.21419  1.0000
  C   C628      1.0  0.82769  0.17679  0.15289  1.0000
  C   C629      1.0  0.99589  0.29552  0.16394  1.0000
  N   N51       1.0  0.99024  0.27260  0.15275  1.0000
  N   N52       1.0  0.77429  0.47387  0.13533  1.0000
  H   H630      1.0  0.78438  0.15722  0.04025  1.0000
  H   H631      1.0  0.78934  0.43003  0.13517  1.0000
  H   H632      1.0  0.55477  0.05396  0.17780  1.0000
  S   S212      1.0  0.52460  0.09427  0.25064  1.0000
  C   C630      1.0  0.61231  0.43953  0.16740  1.0000
  H   H633      1.0  0.99545  0.09894  0.25436  1.0000
  H   H634      1.0  0.97379  0.37717  0.25699  1.0000
  C   C631      1.0  0.60678  0.46254  0.13933  1.0000
  H   H635      1.0  0.82383  0.22104  0.02126  1.0000
  H   H636      1.0  0.83483  0.26759  0.16594  1.0000
  C   C632      1.0  0.57200  0.45713  0.15922  1.0000
  S   S213      1.0  0.52491  0.50890  0.24000  1.0000
  H   H637      1.0  0.73668  0.23233  0.08657  1.0000
  H   H638      1.0  0.60602  0.08945  0.20027  1.0000
  N   N53       1.0  0.59251  0.05141  0.21407  1.0000
  C   C633      1.0  0.76227  0.47035  0.15271  1.0000
  S   S214      1.0  0.97475  0.21513  0.26276  1.0000
  C   C634      1.0  0.60635  0.51320  0.17801  1.0000
  C   C635      1.0  0.51248  0.41466  0.26001  1.0000
  H   H639      1.0  0.93489  0.29649  0.13802  1.0000
  C   C636      1.0  0.77253  0.50036  0.12656  1.0000
  C   C637      1.0  0.68311  0.51855  0.03886  1.0000
  H   H640      1.0  0.61598  0.50105  0.18823  1.0000
  H   H641      1.0  0.77823  0.03109  0.09865  1.0000
  H   H642      1.0  0.63861  0.51750  0.16113  1.0000
  C   C638      1.0  0.82029  0.30674  0.02366  1.0000
  N   N54       1.0  0.98612  0.02546  0.26071  1.0000
  H   H643      1.0  0.94500  0.33830  0.15827  1.0000
  C   C639      1.0  0.96262  0.02626  0.26739  1.0000
  C   C640      1.0  0.98595  0.07856  0.25784  1.0000
  C   C641      1.0  0.52400  0.39120  0.26917  1.0000
  C   C642      1.0  0.78394  0.50424  0.10999  1.0000
  C   C643      1.0  0.53258  0.27659  0.26167  1.0000
  H   H644      1.0  0.63002  0.03258  0.07405  1.0000
  H   H645      1.0  0.63147  0.50255  0.03190  1.0000
  H   H646      1.0  0.77174  0.22630  0.06563  1.0000
  H   H647      1.0  0.81964  0.33070  0.02440  1.0000
  H   H648      1.0  0.80590  0.48338  0.08949  1.0000
  C   C644      1.0  0.54245  0.24865  0.25790  1.0000
  H   H649      1.0  0.76402  0.03124  0.12988  1.0000
  C   C645      1.0  0.82260  0.24496  0.02198  1.0000
  C   C646      1.0  0.68281  0.50533  0.02195  1.0000
  H   H650      1.0  0.76189  0.51856  0.13217  1.0000
  H   H651      1.0  0.54453  0.29482  0.26545  1.0000
  C   C647      1.0  0.59422  0.02135  0.21623  1.0000
  H   H652      1.0  0.59757  0.02351  0.07584  1.0000
  C   C648      1.0  0.58102  0.51898  0.18013  1.0000
  C   C649      1.0  0.60749  0.04211  0.02296  1.0000
  C   C650      1.0  0.71419  0.09672  0.44910  1.0000
  H   H653      1.0  0.89482  0.45016  0.36200  1.0000
  C   C651      1.0  0.92148  0.46428  0.34234  1.0000
  S   S215      1.0  0.87835  0.49769  0.41180  1.0000
  Fe  Fe109     1.0  0.97626  0.03908  0.34319  1.0000
  S   S216      1.0  0.79045  0.03079  0.42153  1.0000
  Fe  Fe110     1.0  0.52717  0.25903  0.33587  1.0000
  C   C652      1.0  0.97584  0.16451  0.28326  1.0000
  S   S217      1.0  0.55706  0.23826  0.35287  1.0000
  H   H654      1.0  0.74416  0.32655  0.49019  1.0000
  C   C653      1.0  0.69330  0.33815  0.48925  1.0000
  H   H655      1.0  0.79211  0.24087  0.43229  1.0000
  H   H656      1.0  0.88231  0.45159  0.48753  1.0000
  S   S218      1.0  0.52825  0.25811  0.30592  1.0000
  S   S219      1.0  0.78777  0.02067  0.46465  1.0000
  H   H657      1.0  0.93292  0.02706  0.42932  1.0000
  C   C654      1.0  0.88977  0.04646  0.39558  1.0000
  C   C655      1.0  0.92910  0.48752  0.33140  1.0000
  C   C656      1.0  0.00090  0.27393  0.28841  1.0000
  S   S220      1.0  0.83206  0.48222  0.49227  1.0000
  Fe  Fe111     1.0  0.79047  0.49214  0.43368  1.0000
  S   S221      1.0  0.75944  0.46363  0.42292  1.0000
  Fe  Fe112     1.0  0.79879  0.05743  0.44606  1.0000
  S   S222      1.0  0.78454  0.10224  0.45546  1.0000
  S   S223      1.0  0.82670  0.47288  0.44150  1.0000
  S   S224      1.0  0.83923  0.04556  0.44618  1.0000
  Fe  Fe113     1.0  0.67284  0.26020  0.45963  1.0000
  S   S225      1.0  0.71310  0.25528  0.45371  1.0000
  S   S226      1.0  0.65607  0.25154  0.48680  1.0000
  Fe  Fe114     1.0  0.66117  0.28259  0.42222  1.0000
  S   S227      1.0  0.70107  0.28018  0.41380  1.0000
  S   S228      1.0  0.63177  0.30379  0.40477  1.0000
  Fe  Fe115     1.0  0.70119  0.23591  0.42776  1.0000
  S   S229      1.0  0.71965  0.19666  0.41393  1.0000
  Fe  Fe116     1.0  0.70972  0.29988  0.44052  1.0000
  S   S230      1.0  0.74038  0.33107  0.44912  1.0000
  S   S231      1.0  0.66069  0.23716  0.43454  1.0000
  S   S232      1.0  0.67001  0.30582  0.44799  1.0000
  C   C657      1.0  0.67444  0.25750  0.50573  1.0000
  H   H658      1.0  0.77571  0.50183  0.49873  1.0000
  C   C658      1.0  0.69922  0.26538  0.50402  1.0000
  C   C659      1.0  0.92288  0.04398  0.37326  1.0000
  H   H659      1.0  0.70763  0.26682  0.49102  1.0000
  S   S233      1.0  0.52570  0.34096  0.28985  1.0000
  C   C660      1.0  0.51006  0.36907  0.27775  1.0000
  C   C661      1.0  0.77717  0.51596  0.51037  1.0000
  C   C662      1.0  0.71932  0.02346  0.41367  1.0000
  H   H660      1.0  0.82646  0.04867  0.49474  1.0000
  C   C663      1.0  0.75415  0.42690  0.43047  1.0000
  C   C664      1.0  0.76920  0.41366  0.44322  1.0000
  C   C665      1.0  0.76463  0.38435  0.44880  1.0000
  C   C666      1.0  0.74493  0.36801  0.44179  1.0000
  C   C667      1.0  0.72980  0.38120  0.42909  1.0000
  C   C668      1.0  0.73444  0.41051  0.42345  1.0000
  H   H661      1.0  0.78441  0.42600  0.44871  1.0000
  H   H662      1.0  0.77652  0.37429  0.45856  1.0000
  H   H663      1.0  0.71456  0.36889  0.42358  1.0000
  H   H664      1.0  0.72268  0.42061  0.41361  1.0000
  C   C669      1.0  0.76713  0.12839  0.44338  1.0000
  C   C670      1.0  0.75668  0.15250  0.45260  1.0000
  C   C671      1.0  0.74175  0.17323  0.44381  1.0000
  C   C672      1.0  0.73757  0.17041  0.42559  1.0000
  C   C673      1.0  0.74823  0.14648  0.41628  1.0000
  C   C674      1.0  0.76283  0.12538  0.42516  1.0000
  H   H665      1.0  0.75986  0.15490  0.46671  1.0000
  H   H666      1.0  0.73353  0.19140  0.45116  1.0000
  H   H667      1.0  0.74514  0.14420  0.40215  1.0000
  H   H668      1.0  0.77081  0.10691  0.41793  1.0000
  C   C675      1.0  0.61204  0.28512  0.38976  1.0000
  C   C676      1.0  0.59609  0.30194  0.37909  1.0000
  C   C677      1.0  0.57955  0.28802  0.36738  1.0000
  C   C678      1.0  0.57878  0.25705  0.36628  1.0000
  C   C679      1.0  0.59483  0.24024  0.37685  1.0000
  C   C680      1.0  0.61137  0.25416  0.38855  1.0000
  H   H669      1.0  0.59654  0.32591  0.37991  1.0000
  H   H670      1.0  0.56730  0.30122  0.35934  1.0000
  H   H671      1.0  0.59440  0.21627  0.37608  1.0000
  H   H672      1.0  0.62354  0.24096  0.39667  1.0000
  H   H673      1.0  0.74726  0.32197  0.38143  1.0000
  C   C681      1.0  0.99032  0.43554  0.28375  1.0000
  H   H674      1.0  0.76449  0.33411  0.41109  1.0000
  H   H675      1.0  0.74273  0.26903  0.37241  1.0000
  H   H676      1.0  0.77708  0.29371  0.43121  1.0000
  C   C682      1.0  0.66916  0.33191  0.49470  1.0000
  C   C683      1.0  0.53999  0.29372  0.40107  1.0000
  C   C684      1.0  0.77022  0.28817  0.41811  1.0000
  H   H677      1.0  0.69783  0.33805  0.47518  1.0000
  C   C685      1.0  0.83267  0.03920  0.50713  1.0000
  H   H678      1.0  0.87206  0.49761  0.36171  1.0000
  H   H679      1.0  0.52557  0.41734  0.31085  1.0000
  Fe  Fe117     1.0  0.51068  0.30356  0.30740  1.0000
  H   H680      1.0  0.74870  0.35601  0.50614  1.0000
  H   H681      1.0  0.93187  0.44371  0.34253  1.0000
  Fe  Fe118     1.0  0.82384  0.50239  0.46543  1.0000
  H   H682      1.0  0.55599  0.30307  0.40760  1.0000
  C   C686      1.0  0.72608  0.07069  0.45423  1.0000
  C   C687      1.0  0.70434  0.09887  0.43208  1.0000
  H   H683      1.0  0.75548  0.22922  0.39296  1.0000
  C   C688      1.0  0.77465  0.23556  0.42542  1.0000
  C   C689      1.0  0.75342  0.30432  0.39015  1.0000
  C   C690      1.0  0.76311  0.31117  0.40676  1.0000
  H   H684      1.0  0.73477  0.06932  0.46714  1.0000
  C   C691      1.0  0.70577  0.34279  0.51932  1.0000
  H   H685      1.0  0.71339  0.11559  0.45807  1.0000
  H   H686      1.0  0.69586  0.11947  0.42780  1.0000
  S   S234      1.0  0.51285  0.30567  0.33730  1.0000
  C   C692      1.0  0.53857  0.26313  0.39808  1.0000
  C   C693      1.0  0.91182  0.05760  0.38817  1.0000
  H   H687      1.0  0.95758  0.17123  0.28750  1.0000
  H   H688      1.0  0.88169  0.05686  0.40721  1.0000
  H   H689      1.0  0.88527  0.50130  0.49637  1.0000
  C   C694      1.0  0.83727  0.50540  0.51072  1.0000
  C   C695      1.0  0.93463  0.51843  0.37812  1.0000
  C   C696      1.0  0.89218  0.50734  0.48331  1.0000
  H   H690      1.0  0.92307  0.48112  0.39406  1.0000
  H   H691      1.0  0.77719  0.21389  0.41853  1.0000
  C   C697      1.0  0.70632  0.07468  0.42046  1.0000
  C   C698      1.0  0.51785  0.21914  0.38608  1.0000
  N   N55       1.0  0.71122  0.34340  0.50152  1.0000
  C   C699      1.0  0.52389  0.14351  0.27250  1.0000
  H   H692      1.0  0.89956  0.43998  0.46821  1.0000
  Fe  Fe119     1.0  0.84397  0.51188  0.42746  1.0000
  H   H693      1.0  0.97607  0.12520  0.29984  1.0000
  H   H694      1.0  0.64506  0.32513  0.51718  1.0000
  C   C700      1.0  0.75093  0.27466  0.38508  1.0000
  H   H695      1.0  0.51550  0.37141  0.32713  1.0000
  H   H696      1.0  0.96829  0.31432  0.29902  1.0000
  H   H697      1.0  0.97892  0.32983  0.27818  1.0000
  H   H698      1.0  0.73717  0.36437  0.48437  1.0000
  N   N56       1.0  0.89375  0.48660  0.47004  1.0000
  H   H699      1.0  0.55360  0.24910  0.40246  1.0000
  H   H700      1.0  0.75977  0.23282  0.43548  1.0000
  S   S235      1.0  0.99640  0.50240  0.34053  1.0000
  C   C701      1.0  0.51295  0.16780  0.28148  1.0000
  H   H701      1.0  0.90285  0.47809  0.44288  1.0000
  C   C702      1.0  0.75820  0.25223  0.39677  1.0000
  H   H702      1.0  0.54346  0.13967  0.27371  1.0000
  H   H703      1.0  0.73684  0.02669  0.44640  1.0000
  H   H704      1.0  0.65519  0.32645  0.48499  1.0000
  C   C703      1.0  0.90207  0.49440  0.45350  1.0000
  H   H705      1.0  0.78893  0.46041  0.51847  1.0000
  C   C704      1.0  0.88785  0.49479  0.35292  1.0000
  H   H706      1.0  0.52218  0.33590  0.39709  1.0000
  C   C705      1.0  0.98631  0.13840  0.29033  1.0000
  H   H707      1.0  0.51201  0.45474  0.28995  1.0000
  C   C706      1.0  0.90068  0.46785  0.35316  1.0000
  H   H708      1.0  0.52411  0.18249  0.28944  1.0000
  N   N57       1.0  0.71769  0.04903  0.42571  1.0000
  H   H709      1.0  0.86791  0.45215  0.46619  1.0000
  S   S236      1.0  0.96954  0.04175  0.31365  1.0000
  C   C707      1.0  0.72756  0.04687  0.44233  1.0000
  N   N58       1.0  0.76793  0.25917  0.41298  1.0000
  S   S237      1.0  0.97678  0.46757  0.29381  1.0000
  H   H710      1.0  0.69887  0.07672  0.40720  1.0000
  H   H711      1.0  0.71129  0.02813  0.40044  1.0000
  H   H712      1.0  0.95031  0.50697  0.37237  1.0000
  H   H713      1.0  0.94533  0.48505  0.32303  1.0000
  C   C708      1.0  0.89825  0.51811  0.39760  1.0000
  H   H714      1.0  0.73207  0.27890  0.51766  1.0000
  C   C709      1.0  0.66344  0.33122  0.51279  1.0000
  S   S238      1.0  0.95202  0.05689  0.36578  1.0000
  C   C710      1.0  0.71305  0.27220  0.51917  1.0000
  C   C711      1.0  0.52113  0.31210  0.39507  1.0000
  C   C712      1.0  0.88558  0.45604  0.47316  1.0000
  H   H715      1.0  0.92063  0.07656  0.39423  1.0000
  H   H716      1.0  0.98921  0.34521  0.29885  1.0000
  C   C713      1.0  0.73661  0.34786  0.49536  1.0000
  H   H717      1.0  0.98228  0.26574  0.28670  1.0000
  N   N59       1.0  0.51908  0.25125  0.38912  1.0000
  C   C714      1.0  0.91912  0.50383  0.39040  1.0000
  C   C715      1.0  0.87850  0.02160  0.38805  1.0000
  H   H718      1.0  0.53657  0.20905  0.38592  1.0000
  Fe  Fe120     1.0  0.99454  0.50420  0.31062  1.0000
  H   H719      1.0  0.50994  0.21428  0.37281  1.0000
  C   C716      1.0  0.98433  0.32419  0.29197  1.0000
  H   H720      1.0  0.93180  0.05387  0.27513  1.0000
  C   C717      1.0  0.97550  0.41671  0.27339  1.0000
  H   H721      1.0  0.50646  0.20846  0.39657  1.0000
  C   C718      1.0  0.50640  0.41172  0.31318  1.0000
  S   S239      1.0  0.78620  0.51901  0.45873  1.0000
  N   N60       1.0  0.89571  0.51764  0.34234  1.0000
  C   C719      1.0  0.91590  0.51418  0.33154  1.0000
  H   H722      1.0  0.96540  0.02421  0.40603  1.0000
  H   H723      1.0  0.95621  0.42192  0.27177  1.0000
  C   C720      1.0  0.61967  0.33729  0.65328  1.0000
  S   S240      1.0  0.53149  0.34730  0.75661  1.0000
  H   H724      1.0  0.82474  0.39855  0.59242  1.0000
  Fe  Fe121     1.0  0.97979  0.04830  0.70764  1.0000
  S   S241      1.0  0.94977  0.06768  0.69002  1.0000
  C   C721      1.0  0.89623  0.46687  0.69975  1.0000
  Fe  Fe122     1.0  0.79369  0.04545  0.61745  1.0000
  S   S242      1.0  0.83246  0.06055  0.61191  1.0000
  S   S243      1.0  0.76096  0.07282  0.62693  1.0000
  Fe  Fe123     1.0  0.80266  0.49309  0.60071  1.0000
  S   S244      1.0  0.84309  0.49719  0.59485  1.0000
  S   S245      1.0  0.78408  0.45305  0.58827  1.0000
  S   S246      1.0  0.52511  0.31754  0.70725  1.0000
  H   H725      1.0  0.78539  0.33951  0.64008  1.0000
  H   H726      1.0  0.92651  0.44112  0.71027  1.0000
  S   S247      1.0  0.83230  0.06310  0.55917  1.0000
  H   H727      1.0  0.58087  0.33949  0.65976  1.0000
  H   H728      1.0  0.97830  0.12532  0.75720  1.0000
  Fe  Fe124     1.0  0.67325  0.26910  0.61488  1.0000
  S   S248      1.0  0.70398  0.27239  0.63470  1.0000
  S   S249      1.0  0.63214  0.26688  0.62141  1.0000
  Fe  Fe125     1.0  0.70759  0.27948  0.58302  1.0000
  S   S250      1.0  0.74022  0.28452  0.60079  1.0000
  S   S251      1.0  0.71922  0.28527  0.55423  1.0000
  Fe  Fe126     1.0  0.72575  0.24448  0.61516  1.0000
  S   S252      1.0  0.75817  0.21370  0.62026  1.0000
  Fe  Fe127     1.0  0.71603  0.31177  0.61846  1.0000
  S   S253      1.0  0.72757  0.35406  0.63248  1.0000
  S   S254      1.0  0.69414  0.23791  0.59636  1.0000
  S   S255      1.0  0.68432  0.31021  0.59968  1.0000
  S   S256      1.0  0.53795  0.26865  0.73789  1.0000
  H   H729      1.0  0.82547  0.44018  0.61217  1.0000
  H   H730      1.0  0.64464  0.24957  0.52420  1.0000
  H   H731      1.0  0.84533  0.42321  0.62837  1.0000
  Fe  Fe128     1.0  0.54268  0.27249  0.70816  1.0000
  S   S257      1.0  0.58200  0.26364  0.69842  1.0000
  H   H732      1.0  0.75825  0.46381  0.52803  1.0000
  H   H733      1.0  0.94836  0.49875  0.67907  1.0000
  H   H734      1.0  0.88411  0.03701  0.70023  1.0000
  C   C722      1.0  0.98937  0.13865  0.76604  1.0000
  H   H735      1.0  0.77567  0.02353  0.54208  1.0000
  C   C723      1.0  0.61836  0.26440  0.64284  1.0000
  C   C724      1.0  0.59268  0.26776  0.64458  1.0000
  C   C725      1.0  0.58110  0.26709  0.66143  1.0000
  C   C726      1.0  0.59513  0.26276  0.67673  1.0000
  C   C727      1.0  0.62074  0.25891  0.67494  1.0000
  C   C728      1.0  0.63234  0.25991  0.65813  1.0000
  H   H736      1.0  0.58172  0.27113  0.63281  1.0000
  H   H737      1.0  0.56140  0.27006  0.66261  1.0000
  H   H738      1.0  0.63173  0.25540  0.68668  1.0000
  H   H739      1.0  0.65206  0.25704  0.65699  1.0000
  C   C729      1.0  0.76622  0.42736  0.60054  1.0000
  C   C730      1.0  0.75746  0.40186  0.59191  1.0000
  C   C731      1.0  0.74498  0.37962  0.60148  1.0000
  C   C732      1.0  0.74107  0.38280  0.61978  1.0000
  C   C733      1.0  0.74918  0.40872  0.62832  1.0000
  C   C734      1.0  0.76176  0.43094  0.61875  1.0000
  H   H740      1.0  0.76079  0.39897  0.57782  1.0000
  H   H741      1.0  0.73875  0.35978  0.59476  1.0000
  H   H742      1.0  0.74603  0.41142  0.64245  1.0000
  H   H743      1.0  0.76816  0.45067  0.62548  1.0000
  C   C735      1.0  0.76040  0.11202  0.62525  1.0000
  C   C736      1.0  0.73776  0.12712  0.62647  1.0000
  C   C737      1.0  0.73663  0.15826  0.62479  1.0000
  C   C738      1.0  0.75825  0.17456  0.62221  1.0000
  C   C739      1.0  0.78086  0.15946  0.62107  1.0000
  C   C740      1.0  0.78194  0.12834  0.62243  1.0000
  H   H744      1.0  0.72101  0.11466  0.62872  1.0000
  H   H745      1.0  0.71913  0.16965  0.62581  1.0000
  H   H746      1.0  0.79769  0.17191  0.61914  1.0000
  H   H747      1.0  0.79947  0.11702  0.62153  1.0000
  C   C741      1.0  0.67761  0.26282  0.53798  1.0000
  C   C742      1.0  0.70219  0.27156  0.53614  1.0000
  S   S258      1.0  0.50743  0.24791  0.70235  1.0000
  H   H748      1.0  0.66905  0.26234  0.55102  1.0000
  C   C743      1.0  0.93401  0.51174  0.67291  1.0000
  N   N61       1.0  0.64297  0.33348  0.65963  1.0000
  C   C744      1.0  0.89461  0.51758  0.70834  1.0000
  H   H749      1.0  0.96391  0.39267  0.76140  1.0000
  H   H750      1.0  0.51357  0.47124  0.75787  1.0000
  C   C745      1.0  0.52350  0.18085  0.76466  1.0000
  S   S259      1.0  0.80639  0.50882  0.62894  1.0000
  C   C746      1.0  0.91134  0.06431  0.66652  1.0000
  C   C747      1.0  0.89483  0.04983  0.65501  1.0000
  N   N62       1.0  0.81547  0.39626  0.61999  1.0000
  C   C748      1.0  0.59940  0.33750  0.66488  1.0000
  C   C749      1.0  0.91723  0.49813  0.66121  1.0000
  H   H751      1.0  0.90912  0.08779  0.66910  1.0000
  H   H752      1.0  0.88003  0.06212  0.64888  1.0000
  H   H753      1.0  0.67780  0.33515  0.53934  1.0000
  C   C750      1.0  0.60309  0.33353  0.68305  1.0000
  C   C751      1.0  0.66375  0.33327  0.64708  1.0000
  H   H754      1.0  0.78744  0.31946  0.60941  1.0000
  N   N63       1.0  0.76296  0.16665  0.57661  1.0000
  C   C752      1.0  0.78721  0.16265  0.57212  1.0000
  C   C753      1.0  0.74864  0.14289  0.58127  1.0000
  C   C754      1.0  0.79786  0.13437  0.57266  1.0000
  C   C755      1.0  0.75873  0.11434  0.58201  1.0000
  C   C756      1.0  0.78351  0.11019  0.57777  1.0000
  C   C757      1.0  0.75211  0.19643  0.57578  1.0000
  C   C758      1.0  0.82951  0.05503  0.52312  1.0000
  H   H755      1.0  0.72949  0.14604  0.58502  1.0000
  N   N64       1.0  0.54157  0.05591  0.76455  1.0000
  H   H756      1.0  0.74767  0.09572  0.58653  1.0000
  H   H757      1.0  0.79173  0.08835  0.57867  1.0000
  H   H758      1.0  0.74642  0.20167  0.56199  1.0000
  H   H759      1.0  0.73582  0.19830  0.58475  1.0000
  H   H760      1.0  0.76538  0.21346  0.58046  1.0000
  H   H761      1.0  0.62978  0.32539  0.70344  1.0000
  H   H762      1.0  0.81507  0.43700  0.63454  1.0000
  C   C759      1.0  0.82593  0.42548  0.62402  1.0000
  H   H763      1.0  0.80357  0.38861  0.64669  1.0000
  H   H764      1.0  0.88889  0.44838  0.69224  1.0000
  C   C760      1.0  0.92721  0.48636  0.71935  1.0000
  C   C761      1.0  0.84119  0.51050  0.54280  1.0000
  C   C762      1.0  0.00195  0.21012  0.74352  1.0000
  N   N65       1.0  0.77871  0.50375  0.52697  1.0000
  Fe  Fe129     1.0  0.82734  0.03864  0.58521  1.0000
  C   C763      1.0  0.91278  0.02115  0.71722  1.0000
  C   C764      1.0  0.53393  0.02719  0.76646  1.0000
  H   H765      1.0  0.79850  0.18144  0.56830  1.0000
  H   H766      1.0  0.81716  0.13105  0.56931  1.0000
  H   H767      1.0  0.78513  0.46422  0.54202  1.0000
  C   C765      1.0  0.91572  0.51402  0.71864  1.0000
  H   H768      1.0  0.86207  0.48246  0.67723  1.0000
  C   C766      1.0  0.83844  0.49262  0.52766  1.0000
  H   H769      1.0  0.56965  0.08838  0.76919  1.0000
  C   C767      1.0  0.62691  0.32957  0.68941  1.0000
  C   C768      1.0  0.80697  0.35739  0.59899  1.0000
  H   H770      1.0  0.78215  0.51182  0.55480  1.0000
  H   H771      1.0  0.66054  0.31647  0.63653  1.0000
  H   H772      1.0  0.82094  0.07671  0.52293  1.0000
  C   C769      1.0  0.79482  0.35191  0.62970  1.0000
  C   C770      1.0  0.80495  0.37981  0.63330  1.0000
  S   S260      1.0  0.97861  0.45023  0.74872  1.0000
  C   C771      1.0  0.91744  0.46258  0.70988  1.0000
  Fe  Fe130     1.0  0.51812  0.31258  0.73658  1.0000
  H   H773      1.0  0.84150  0.50047  0.55583  1.0000
  Fe  Fe131     1.0  0.99570  0.49228  0.73670  1.0000
  C   C772      1.0  0.68177  0.33694  0.52521  1.0000
  C   C773      1.0  0.93040  0.04860  0.67490  1.0000
  H   H774      1.0  0.61662  0.33918  0.63908  1.0000
  H   H775      1.0  0.98051  0.18114  0.72677  1.0000
  H   H776      1.0  0.66520  0.32609  0.68247  1.0000
  C   C774      1.0  0.89829  0.51460  0.65318  1.0000
  C   C775      1.0  0.64680  0.32972  0.67745  1.0000
  C   C776      1.0  0.79583  0.34071  0.61243  1.0000
  H   H777      1.0  0.58745  0.33225  0.69212  1.0000
  S   S261      1.0  0.00036  0.49607  0.70695  1.0000
  S   S262      1.0  0.87592  0.49565  0.64027  1.0000
  C   C777      1.0  0.81681  0.38528  0.60303  1.0000
  S   S263      1.0  0.97574  0.04648  0.73749  1.0000
  H   H778      1.0  0.80732  0.34916  0.58544  1.0000
  C   C778      1.0  0.98214  0.39691  0.76648  1.0000
  H   H779      1.0  0.94385  0.48339  0.72705  1.0000
  H   H780      1.0  0.72011  0.34548  0.52913  1.0000
  C   C779      1.0  0.83712  0.04282  0.53934  1.0000
  H   H781      1.0  0.68144  0.32760  0.65359  1.0000
  H   H782      1.0  0.66595  0.35540  0.64078  1.0000
  H   H783      1.0  0.91784  0.04317  0.72178  1.0000
  C   C780      1.0  0.99422  0.42350  0.76191  1.0000
  C   C781      1.0  0.51171  0.49523  0.75756  1.0000
  H   H784      1.0  0.91882  0.47463  0.65848  1.0000
  H   H785      1.0  0.98648  0.22467  0.74636  1.0000
  Fe  Fe132     1.0  0.84654  0.51635  0.62244  1.0000
  H   H786      1.0  0.98759  0.03400  0.67012  1.0000
  S   S264      1.0  0.78812  0.02644  0.59034  1.0000
  H   H787      1.0  0.53523  0.19764  0.75880  1.0000
  C   C782      1.0  0.51674  0.37895  0.76609  1.0000
  H   H788      1.0  0.83669  0.46883  0.52915  1.0000
  N   N66       1.0  0.88525  0.49421  0.69895  1.0000
  C   C783      1.0  0.52622  0.07673  0.75737  1.0000
  H   H789      1.0  0.53222  0.09954  0.75587  1.0000
  C   C784      1.0  0.77762  0.47142  0.52899  1.0000
  C   C785      1.0  0.56635  0.06409  0.77035  1.0000
  H   H790      1.0  0.99981  0.07963  0.65415  1.0000
  C   C786      1.0  0.66379  0.25574  0.52278  1.0000
  H   H791      1.0  0.55047  0.50322  0.75375  1.0000
  H   H792      1.0  0.58044  0.05212  0.76234  1.0000
  C   C787      1.0  0.53239  0.51319  0.75529  1.0000
  H   H793      1.0  0.84629  0.49490  0.69721  1.0000
  C   C788      1.0  0.99844  0.18554  0.73242  1.0000
  C   C789      1.0  0.86273  0.49823  0.68861  1.0000
  C   C790      1.0  0.57290  0.03542  0.88061  1.0000
  Fe  Fe133     1.0  0.98099  0.29319  0.84232  1.0000
  H   H794      1.0  0.55302  0.15974  0.77899  1.0000
  S   S265      1.0  0.95235  0.31530  0.86026  1.0000
  C   C791      1.0  0.82870  0.14996  0.91220  1.0000
  C   C792      1.0  0.66807  0.04845  0.01008  1.0000
  S   S266      1.0  0.97861  0.29633  0.81253  1.0000
  S   S267      1.0  0.65314  0.05266  0.89737  1.0000
  Fe  Fe134     1.0  0.84042  0.27530  0.92428  1.0000
  S   S268      1.0  0.80499  0.28337  0.90983  1.0000
  S   S269      1.0  0.87211  0.25224  0.90962  1.0000
  Fe  Fe135     1.0  0.81776  0.29553  0.95989  1.0000
  S   S270      1.0  0.78071  0.30378  0.94784  1.0000
  S   S271      1.0  0.82162  0.31470  0.98758  1.0000
  Fe  Fe136     1.0  0.78700  0.26094  0.93319  1.0000
  S   S272      1.0  0.75464  0.23105  0.92707  1.0000
  Fe  Fe137     1.0  0.80187  0.32536  0.92586  1.0000
  S   S273      1.0  0.79147  0.36994  0.91412  1.0000
  S   S274      1.0  0.82240  0.25050  0.94707  1.0000
  S   S275      1.0  0.83895  0.31933  0.93836  1.0000
  Fe  Fe138     1.0  0.69822  0.49875  0.93992  1.0000
  H   H795      1.0  0.58656  0.50032  0.91368  1.0000
  S   S276      1.0  0.70450  0.44957  0.94521  1.0000
  Fe  Fe139     1.0  0.72064  0.06403  0.94181  1.0000
  S   S277      1.0  0.68264  0.08337  0.94258  1.0000
  S   S278      1.0  0.75555  0.09196  0.94105  1.0000
  Fe  Fe140     1.0  0.67594  0.05059  0.96471  1.0000
  H   H796      1.0  0.75397  0.35945  0.88576  1.0000
  H   H797      1.0  0.84160  0.13415  0.91772  1.0000
  H   H798      1.0  0.75419  0.45857  0.96878  1.0000
  H   H799      1.0  0.93902  0.35304  0.82919  1.0000
  H   H800      1.0  0.79046  0.36569  0.99185  1.0000
  H   H801      1.0  0.50942  0.33044  0.79069  1.0000
  H   H802      1.0  0.52994  0.43623  0.79457  1.0000
  C   C793      1.0  0.79916  0.10951  0.90863  1.0000
  C   C794      1.0  0.62188  0.04670  0.89158  1.0000
  H   H803      1.0  0.80352  0.36485  0.95427  1.0000
  C   C795      1.0  0.71708  0.35236  0.90787  1.0000
  Fe  Fe141     1.0  0.67219  0.04608  0.92408  1.0000
  C   C796      1.0  0.61484  0.05081  0.87379  1.0000
  S   S279      1.0  0.54254  0.03270  0.81895  1.0000
  C   C797      1.0  0.95397  0.41338  0.80422  1.0000
  H   H804      1.0  0.53894  0.27871  0.80109  1.0000
  S   S280      1.0  0.71459  0.03339  0.96508  1.0000
  C   C798      1.0  0.99363  0.18249  0.78522  1.0000
  C   C799      1.0  0.95084  0.27048  0.91490  1.0000
  C   C800      1.0  0.71830  0.29908  0.92623  1.0000
  C   C801      1.0  0.74982  0.33547  0.88759  1.0000
  H   H805      1.0  0.68857  0.36553  0.92647  1.0000
  H   H806      1.0  0.73767  0.43641  0.99661  1.0000
  H   H807      1.0  0.74670  0.28681  0.90766  1.0000
  N   N67       1.0  0.73350  0.33075  0.90293  1.0000
  C   C802      1.0  0.82119  0.29266  0.00699  1.0000
  C   C803      1.0  0.82214  0.26167  0.00619  1.0000
  S   S281      1.0  0.98101  0.21670  0.79299  1.0000
  H   H808      1.0  0.82295  0.25063  0.99342  1.0000
  C   C804      1.0  0.51867  0.13710  0.78381  1.0000
  C   C805      1.0  0.75429  0.19294  0.93274  1.0000
  C   C806      1.0  0.73397  0.17559  0.92784  1.0000
  C   C807      1.0  0.73370  0.14481  0.93100  1.0000
  C   C808      1.0  0.75383  0.13105  0.93901  1.0000
  C   C809      1.0  0.77403  0.14847  0.94415  1.0000
  C   C810      1.0  0.77423  0.17932  0.94112  1.0000
  H   H809      1.0  0.71846  0.18591  0.92136  1.0000
  H   H810      1.0  0.71812  0.13163  0.92686  1.0000
  H   H811      1.0  0.78966  0.13801  0.95038  1.0000
  H   H812      1.0  0.78996  0.19242  0.94499  1.0000
  C   C811      1.0  0.72917  0.42828  0.93658  1.0000
  C   C812      1.0  0.73315  0.39972  0.94344  1.0000
  C   C813      1.0  0.75248  0.38187  0.93694  1.0000
  C   C814      1.0  0.76774  0.39223  0.92326  1.0000
  C   C815      1.0  0.76379  0.42081  0.91640  1.0000
  C   C816      1.0  0.74469  0.43890  0.92313  1.0000
  H   H813      1.0  0.72129  0.39144  0.95394  1.0000
  H   H814      1.0  0.75526  0.35995  0.94235  1.0000
  H   H815      1.0  0.77555  0.42902  0.90582  1.0000
  H   H816      1.0  0.74180  0.46088  0.91775  1.0000
  C   C817      1.0  0.92874  0.29716  0.87254  1.0000
  C   C818      1.0  0.91215  0.31445  0.88262  1.0000
  C   C819      1.0  0.89424  0.30103  0.89362  1.0000
  C   C820      1.0  0.89281  0.27011  0.89473  1.0000
  C   C821      1.0  0.90917  0.25279  0.88445  1.0000
  C   C822      1.0  0.92702  0.26622  0.87337  1.0000
  H   H817      1.0  0.91334  0.33839  0.88210  1.0000
  H   H818      1.0  0.88183  0.31463  0.90148  1.0000
  H   H819      1.0  0.90822  0.22885  0.88521  1.0000
  H   H820      1.0  0.93968  0.25263  0.86572  1.0000
  H   H821      1.0  0.54199  0.26020  0.77983  1.0000
  C   C823      1.0  0.73400  0.30420  0.91173  1.0000
  H   H822      1.0  0.75608  0.38963  0.00824  1.0000
  Fe  Fe142     1.0  0.52610  0.03292  0.84645  1.0000
  C   C824      1.0  0.59052  0.04520  0.86832  1.0000
  S   S282      1.0  0.65793  0.06588  0.99046  1.0000
  C   C825      1.0  0.53500  0.28046  0.78668  1.0000
  C   C826      1.0  0.52876  0.50754  0.88455  1.0000
  C   C827      1.0  0.76333  0.39976  0.99621  1.0000
  C   C828      1.0  0.51924  0.42221  0.78588  1.0000
  H   H823      1.0  0.58539  0.04855  0.85460  1.0000
  C   C829      1.0  0.60428  0.03685  0.90389  1.0000
  H   H824      1.0  0.92193  0.38522  0.80536  1.0000
  H   H825      1.0  0.95619  0.31653  0.90826  1.0000
  C   C830      1.0  0.76252  0.43863  0.97421  1.0000
  S   S283      1.0  0.57647  0.51678  0.83978  1.0000
  S   S284      1.0  0.53275  0.10957  0.79734  1.0000
  H   H826      1.0  0.98939  0.21481  0.90239  1.0000
  H   H827      1.0  0.77095  0.15400  0.89665  1.0000
  C   C831      1.0  0.94964  0.37155  0.82397  1.0000
  H   H828      1.0  0.68276  0.51246  0.99356  1.0000
  N   N68       1.0  0.50851  0.28446  0.78397  1.0000
  H   H829      1.0  0.96047  0.17049  0.77140  1.0000
  C   C832      1.0  0.96366  0.29422  0.90740  1.0000
  C   C833      1.0  0.75309  0.42602  0.98974  1.0000
  H   H830      1.0  0.80323  0.10123  0.92222  1.0000
  C   C834      1.0  0.81155  0.38365  0.96177  1.0000
  C   C835      1.0  0.70182  0.32119  0.93157  1.0000
  H   H831      1.0  0.54539  0.29954  0.78098  1.0000
  C   C836      1.0  0.57007  0.50167  0.90565  1.0000
  C   C837      1.0  0.56780  0.48413  0.89046  1.0000
  H   H832      1.0  0.77911  0.10584  0.90662  1.0000
  H   H833      1.0  0.74121  0.32660  0.87536  1.0000
  H   H834      1.0  0.98849  0.43633  0.80552  1.0000
  H   H835      1.0  0.98378  0.35562  0.78122  1.0000
  H   H836      1.0  0.98045  0.36307  0.84083  1.0000
  C   C838      1.0  0.98559  0.28885  0.89804  1.0000
  H   H837      1.0  0.68972  0.31756  0.94291  1.0000
  H   H838      1.0  0.82093  0.39853  0.95210  1.0000
  N   N69       1.0  0.80578  0.14094  0.90707  1.0000
  C   C839      1.0  0.78939  0.16091  0.90024  1.0000
  H   H839      1.0  0.76790  0.32441  0.88962  1.0000
  C   C840      1.0  0.79580  0.19083  0.89846  1.0000
  C   C841      1.0  0.83573  0.17971  0.91054  1.0000
  C   C842      1.0  0.81917  0.20018  0.90358  1.0000
  H   H840      1.0  0.82573  0.37470  0.97092  1.0000
  H   H841      1.0  0.78249  0.20680  0.89361  1.0000
  H   H842      1.0  0.85384  0.18706  0.91469  1.0000
  H   H843      1.0  0.82445  0.22327  0.90230  1.0000
  H   H844      1.0  0.80950  0.09610  0.89869  1.0000
  H   H845      1.0  0.94998  0.22314  0.91857  1.0000
  C   C843      1.0  0.70106  0.34797  0.92230  1.0000
  Fe  Fe143     1.0  0.99696  0.25109  0.81221  1.0000
  H   H846      1.0  0.71675  0.37351  0.90100  1.0000
  H   H847      1.0  0.71905  0.27809  0.93330  1.0000
  C   C844      1.0  0.53354  0.15929  0.77612  1.0000
  C   C845      1.0  0.99338  0.37582  0.77770  1.0000
  H   H848      1.0  0.62829  0.05844  0.86415  1.0000
  Fe  Fe144     1.0  0.51624  0.06988  0.81233  1.0000
  H   H849      1.0  0.60389  0.06264  0.01591  1.0000
  C   C846      1.0  0.94005  0.38967  0.81069  1.0000
  H   H850      1.0  0.94695  0.42736  0.79366  1.0000
  S   S285      1.0  0.99631  0.24679  0.84212  1.0000
  H   H851      1.0  0.62163  0.50017  0.85658  1.0000
  C   C847      1.0  0.53030  0.39751  0.77745  1.0000
  H   H852      1.0  0.78874  0.43415  0.95289  1.0000
  S   S286      1.0  0.71113  0.02877  0.92170  1.0000
  H   H853      1.0  0.93338  0.27425  0.92169  1.0000
  H   H854      1.0  0.58248  0.46903  0.88658  1.0000
  N   N70       1.0  0.98700  0.40006  0.82373  1.0000
  N   N71       1.0  0.79203  0.39898  0.97173  1.0000
  C   C848      1.0  0.78209  0.42470  0.96528  1.0000
  C   C849      1.0  0.78283  0.38637  0.98692  1.0000
  C   C850      1.0  0.97752  0.41836  0.81099  1.0000
  H   H855      1.0  0.54953  0.39272  0.77979  1.0000
  S   S287      1.0  0.54202  0.02788  0.87438  1.0000
  C   C851      1.0  0.54703  0.48701  0.87982  1.0000
  C   C852      1.0  0.97322  0.37724  0.83047  1.0000
  N   N72       1.0  0.99455  0.26060  0.89629  1.0000
  H   H856      1.0  0.51270  0.50991  0.87619  1.0000
  C   C853      1.0  0.96010  0.24175  0.91303  1.0000
  S   S288      1.0  0.50828  0.49279  0.83911  1.0000
  C   C854      1.0  0.98222  0.23719  0.90374  1.0000
  C   C855      1.0  0.57993  0.03125  0.89842  1.0000
  H   H857      1.0  0.56644  0.02373  0.90804  1.0000
  H   H858      1.0  0.60945  0.03353  0.91760  1.0000
  S   S289      1.0  0.66233  0.51761  0.95039  1.0000
  C   C856      1.0  0.97932  0.16432  0.77410  1.0000
  H   H859      1.0  0.56856  0.05849  0.78465  1.0000
  H   H860      1.0  0.99511  0.30739  0.89191  1.0000
  H   H861      1.0  0.54548  0.47414  0.86767  1.0000
  H   H862      1.0  0.64171  0.51589  0.88467  1.0000
  C   C857      1.0  0.61325  0.51735  0.86468  1.0000
  H   H863      1.0  0.68145  0.48145  0.02078  1.0000
  H   H864      1.0  0.57193  0.55574  0.14114  1.0000
  Fe  Fe145     1.0  0.97827  0.79289  0.20126  1.0000
  H   H865      1.0  0.60368  0.52281  0.02656  1.0000
  S   S290      1.0  0.95271  0.80908  0.17923  1.0000
  H   H866      1.0  0.87919  0.80723  0.14169  1.0000
  C   C858      1.0  0.87872  0.77102  0.16030  1.0000
  S   S291      1.0  0.97051  0.79363  0.23080  1.0000
  H   H867      1.0  0.91862  0.82801  0.15273  1.0000
  C   C859      1.0  0.89681  0.73533  0.12136  1.0000
  C   C860      1.0  0.61927  0.53802  0.08013  1.0000
  H   H868      1.0  0.77632  0.75629  0.02538  1.0000
  H   H869      1.0  0.91939  0.72549  0.14389  1.0000
  C   C861      1.0  0.76539  0.83047  0.03625  1.0000
  H   H870      1.0  0.68577  0.59092  0.02598  1.0000
  Fe  Fe146     1.0  0.68064  0.01442  0.08917  1.0000
  C   C862      1.0  0.78039  0.01129  0.10672  1.0000
  Fe  Fe147     1.0  0.82967  0.76865  0.12797  1.0000
  S   S292      1.0  0.78982  0.78245  0.13051  1.0000
  S   S293      1.0  0.85120  0.75459  0.15244  1.0000
  Fe  Fe148     1.0  0.82686  0.76558  0.08740  1.0000
  S   S294      1.0  0.78697  0.77787  0.08726  1.0000
  S   S295      1.0  0.85016  0.76113  0.06242  1.0000
  Fe  Fe149     1.0  0.79734  0.81257  0.10724  1.0000
  S   S296      1.0  0.78539  0.85879  0.09880  1.0000
  Fe  Fe150     1.0  0.78298  0.74652  0.11026  1.0000
  S   S297      1.0  0.74907  0.71740  0.11348  1.0000
  S   S298      1.0  0.83784  0.80167  0.10635  1.0000
  S   S299      1.0  0.82224  0.73123  0.10886  1.0000
  C   C863      1.0  0.78445  0.96089  0.12757  1.0000
  H   H871      1.0  0.80000  0.93967  0.10430  1.0000
  H   H872      1.0  0.88290  0.71902  0.12481  1.0000
  H   H873      1.0  0.87791  0.75047  0.09792  1.0000
  C   C864      1.0  0.53596  0.69355  0.25740  1.0000
  C   C865      1.0  0.62216  0.56872  0.08109  1.0000
  Fe  Fe151     1.0  0.70041  0.99029  0.12402  1.0000
  S   S300      1.0  0.71530  0.95034  0.13884  1.0000
  Fe  Fe152     1.0  0.71418  0.54778  0.11285  1.0000
  S   S301      1.0  0.74851  0.57617  0.11591  1.0000
  S   S302      1.0  0.66231  0.99240  0.11267  1.0000
  S   S303      1.0  0.67940  0.55730  0.09777  1.0000
  C   C866      1.0  0.74921  0.67811  0.11232  1.0000
  C   C867      1.0  0.72682  0.66280  0.11422  1.0000
  C   C868      1.0  0.72625  0.63156  0.11478  1.0000
  C   C869      1.0  0.74816  0.61532  0.11365  1.0000
  C   C870      1.0  0.77056  0.63061  0.11162  1.0000
  C   C871      1.0  0.77109  0.66186  0.11079  1.0000
  H   H874      1.0  0.70981  0.67518  0.11543  1.0000
  H   H875      1.0  0.70890  0.62008  0.11642  1.0000
  H   H876      1.0  0.78760  0.61823  0.11071  1.0000
  H   H877      1.0  0.78844  0.67337  0.10935  1.0000
  C   C872      1.0  0.76372  0.88174  0.10987  1.0000
  C   C873      1.0  0.75819  0.87841  0.12795  1.0000
  C   C874      1.0  0.74268  0.89909  0.13659  1.0000
  C   C875      1.0  0.73246  0.92302  0.12721  1.0000
  C   C876      1.0  0.73743  0.92577  0.10902  1.0000
  C   C877      1.0  0.75312  0.90533  0.10044  1.0000
  H   H878      1.0  0.76633  0.86038  0.13535  1.0000
  H   H879      1.0  0.73886  0.89677  0.15066  1.0000
  H   H880      1.0  0.72954  0.94392  0.10161  1.0000
  H   H881      1.0  0.75724  0.90804  0.08645  1.0000
  C   C878      1.0  0.68474  0.54942  0.04029  1.0000
  Fe  Fe153     1.0  0.99143  0.75006  0.23127  1.0000
  H   H882      1.0  0.62131  0.99629  0.14779  1.0000
  H   H883      1.0  0.68498  0.55978  0.05327  1.0000
  H   H884      1.0  0.58087  0.00957  0.22436  1.0000
  H   H885      1.0  0.51650  0.73125  0.26836  1.0000
  C   C879      1.0  0.83428  0.76080  0.04198  1.0000
  C   C880      1.0  0.80874  0.75740  0.04161  1.0000
  H   H886      1.0  0.62182  0.57978  0.09394  1.0000
  H   H887      1.0  0.79862  0.75357  0.05377  1.0000
  C   C881      1.0  0.84721  0.76465  0.02588  1.0000
  H   H888      1.0  0.95394  0.75371  0.15263  1.0000
  C   C882      1.0  0.74985  0.74346  0.15998  1.0000
  C   C883      1.0  0.98119  0.88886  0.26219  1.0000
  C   C884      1.0  0.79491  0.66689  0.15438  1.0000
  H   H889      1.0  0.74552  0.82856  0.03559  1.0000
  N   N73       1.0  0.51294  0.66304  0.23725  1.0000
  C   C885      1.0  0.76934  0.66448  0.15369  1.0000
  C   C886      1.0  0.79040  0.98544  0.09939  1.0000
  H   H890      1.0  0.55251  0.69745  0.26502  1.0000
  C   C887      1.0  0.89134  0.75741  0.17437  1.0000
  H   H891      1.0  0.88380  0.73765  0.18047  1.0000
  H   H892      1.0  0.92342  0.75818  0.19130  1.0000
  C   C888      1.0  0.91103  0.80826  0.15881  1.0000
  C   C889      1.0  0.88868  0.79654  0.15253  1.0000
  C   C890      1.0  0.92374  0.79456  0.17282  1.0000
  C   C891      1.0  0.91379  0.76902  0.18057  1.0000
  H   H893      1.0  0.86703  0.76700  0.02604  1.0000
  S   S304      1.0  0.71864  0.00908  0.09987  1.0000
  N   N74       1.0  0.61400  0.01611  0.05042  1.0000
  H   H894      1.0  0.82554  0.69690  0.15762  1.0000
  H   H895      1.0  0.51013  0.64363  0.21157  1.0000
  C   C892      1.0  0.93176  0.77823  0.11360  1.0000
  H   H896      1.0  0.54932  0.53935  0.16828  1.0000
  H   H897      1.0  0.76156  0.96386  0.15800  1.0000
  H   H898      1.0  0.61668  0.52524  0.09220  1.0000
  C   C893      1.0  0.98494  0.55399  0.25804  1.0000
  C   C894      1.0  0.79265  0.96011  0.10990  1.0000
  H   H899      1.0  0.80636  0.64742  0.15233  1.0000
  H   H900      1.0  0.78191  0.52513  0.10294  1.0000
  C   C895      1.0  0.51109  0.63686  0.22573  1.0000
  H   H901      1.0  0.74326  0.74979  0.14654  1.0000
  H   H902      1.0  0.52704  0.62161  0.22736  1.0000
  S   S305      1.0  0.62158  0.54686  0.12876  1.0000
  C   C896      1.0  0.76538  0.98665  0.15300  1.0000
  C   C897      1.0  0.61548  0.01673  0.06988  1.0000
  N   N75       1.0  0.80462  0.83443  0.02144  1.0000
  Fe  Fe154     1.0  0.50436  0.55249  0.24017  1.0000
  H   H903      1.0  0.75993  0.76265  0.16567  1.0000
  H   H904      1.0  0.76636  0.83025  0.06494  1.0000
  H   H905      1.0  0.96668  0.56366  0.25742  1.0000
  H   H906      1.0  0.79920  0.74098  0.16144  1.0000
  C   C898      1.0  0.80265  0.83331  0.05337  1.0000
  C   C899      1.0  0.91747  0.73918  0.13213  1.0000
  C   C900      1.0  0.62013  0.52393  0.06356  1.0000
  C   C901      1.0  0.60681  0.53735  0.14911  1.0000
  C   C902      1.0  0.75485  0.68999  0.15562  1.0000
  C   C903      1.0  0.57084  0.01071  0.17410  1.0000
  S   S306      1.0  0.99666  0.74802  0.20147  1.0000
  H   H907      1.0  0.94532  0.79514  0.11050  1.0000
  C   C904      1.0  0.79614  0.75860  0.02543  1.0000
  C   C905      1.0  0.98976  0.68339  0.26008  1.0000
  H   H908      1.0  0.96990  0.87517  0.25370  1.0000
  C   C906      1.0  0.77228  0.01122  0.12441  1.0000
  H   H909      1.0  0.76079  0.64324  0.15084  1.0000
  C   C907      1.0  0.80565  0.69457  0.15727  1.0000
  C   C908      1.0  0.58166  0.54397  0.15146  1.0000
  H   H910      1.0  0.73363  0.73905  0.16865  1.0000
  H   H911      1.0  0.64209  0.00719  0.18808  1.0000
  C   C909      1.0  0.58953  0.99459  0.16532  1.0000
  H   H912      1.0  0.62590  0.97108  0.04812  1.0000
  H   H913      1.0  0.81186  0.83353  0.06613  1.0000
  N   N76       1.0  0.76551  0.71702  0.15858  1.0000
  C   C910      1.0  0.79059  0.71954  0.15938  1.0000
  S   S307      1.0  0.55121  0.99187  0.18932  1.0000
  H   H914      1.0  0.73507  0.68821  0.15407  1.0000
  H   H915      1.0  0.96047  0.78781  0.14173  1.0000
  H   H916      1.0  0.68497  0.98041  0.02532  1.0000
  C   C911      1.0  0.61982  0.99083  0.04117  1.0000
  S   S308      1.0  0.67530  0.99572  0.06156  1.0000
  S   S309      1.0  0.50915  0.55949  0.21067  1.0000
  H   H917      1.0  0.78570  0.94084  0.13549  1.0000
  H   H918      1.0  0.74762  0.99889  0.15407  1.0000
  C   C912      1.0  0.95650  0.76392  0.13928  1.0000
  C   C913      1.0  0.77706  0.83128  0.05269  1.0000
  C   C914      1.0  0.91137  0.77487  0.10249  1.0000
  C   C915      1.0  0.89384  0.75323  0.10642  1.0000
  C   C916      1.0  0.50992  0.91795  0.26470  1.0000
  H   H919      1.0  0.90905  0.78895  0.09093  1.0000
  C   C917      1.0  0.97526  0.66315  0.26983  1.0000
  N   N77       1.0  0.77401  0.98608  0.13450  1.0000
  H   H920      1.0  0.59092  0.97089  0.16739  1.0000
  H   H921      1.0  0.61296  0.98109  0.20839  1.0000
  C   C918      1.0  0.53420  0.66870  0.24629  1.0000
  C   C919      1.0  0.61921  0.52235  0.16262  1.0000
  H   H922      1.0  0.62974  0.58285  0.03710  1.0000
  C   C920      1.0  0.62661  0.57015  0.04915  1.0000
  S   S310      1.0  0.69462  0.52654  0.13615  1.0000
  S   S311      1.0  0.97494  0.71219  0.24794  1.0000
  H   H923      1.0  0.79609  0.98494  0.08554  1.0000
  S   S312      1.0  0.52487  0.01134  0.23610  1.0000
  C   C921      1.0  0.62299  0.52499  0.03105  1.0000
  Fe  Fe155     1.0  0.52010  0.01114  0.20635  1.0000
  C   C922      1.0  0.56881  0.53485  0.16688  1.0000
  C   C923      1.0  0.60680  0.00893  0.15420  1.0000
  N   N78       1.0  0.93454  0.76056  0.12823  1.0000
  H   H924      1.0  0.97267  0.75344  0.13270  1.0000
  H   H925      1.0  0.54962  0.65343  0.24543  1.0000
  Fe  Fe156     1.0  0.66017  0.53268  0.12013  1.0000
  C   C924      1.0  0.62607  0.58493  0.06553  1.0000
  H   H926      1.0  0.62064  0.99473  0.07543  1.0000
  H   H927      1.0  0.83613  0.83621  0.03820  1.0000
  C   C925      1.0  0.67987  0.00363  0.02572  1.0000
  N   N79       1.0  0.62370  0.54001  0.04834  1.0000
  C   C926      1.0  0.81623  0.83491  0.03752  1.0000
  H   H928      1.0  0.62882  0.60875  0.06619  1.0000
  H   H929      1.0  0.77930  0.99738  0.16158  1.0000
  H   H930      1.0  0.98611  0.97859  0.25641  1.0000
  C   C927      1.0  0.68507  0.56700  0.02484  1.0000
  C   C928      1.0  0.99913  0.99703  0.25919  1.0000
  C   C929      1.0  0.61239  0.00507  0.20721  1.0000
  H   H931      1.0  0.95543  0.66541  0.26976  1.0000
  H   H932      1.0  0.52157  0.93219  0.25671  1.0000
  C   C930      1.0  0.51580  0.71256  0.25925  1.0000
  C   C931      1.0  0.67591  0.01767  0.04216  1.0000
  S   S313      1.0  0.51722  0.58695  0.26061  1.0000
  C   C932      1.0  0.61971  0.99066  0.02257  1.0000
  C   C933      1.0  0.98792  0.52408  0.26232  1.0000
  C   C934      1.0  0.62866  0.01971  0.19578  1.0000
  H   H933      1.0  0.95110  0.91723  0.27051  1.0000
  H   H934      1.0  0.89609  0.95338  0.40620  1.0000
  C   C935      1.0  0.90764  0.54492  0.46333  1.0000
  Fe  Fe157     1.0  0.98789  0.99654  0.31232  1.0000
  C   C936      1.0  0.94969  0.98580  0.39349  1.0000
  H   H935      1.0  0.88044  0.98949  0.36681  1.0000
  H   H936      1.0  0.95500  0.75557  0.27254  1.0000
  Fe  Fe158     1.0  0.53310  0.76024  0.33581  1.0000
  H   H937      1.0  0.97472  0.62457  0.28703  1.0000
  S   S314      1.0  0.57160  0.74690  0.34471  1.0000
  H   H938      1.0  0.56397  0.81183  0.30264  1.0000
  H   H939      1.0  0.87102  0.54884  0.35445  1.0000
  H   H940      1.0  0.51845  0.67372  0.30026  1.0000
  H   H941      1.0  0.77810  0.55628  0.49484  1.0000
  S   S315      1.0  0.52525  0.76189  0.30644  1.0000
  C   C937      1.0  0.51699  0.63472  0.28342  1.0000
  H   H942      1.0  0.90089  0.98877  0.44641  1.0000
  C   C938      1.0  0.89353  0.99282  0.43289  1.0000
  S   S316      1.0  0.85237  0.00441  0.39789  1.0000
  C   C939      1.0  0.72595  0.73750  0.51070  1.0000
  S   S317      1.0  0.84717  0.99027  0.48749  1.0000
  Fe  Fe159     1.0  0.78263  0.99285  0.44022  1.0000
  S   S318      1.0  0.74735  0.96602  0.43771  1.0000
  Fe  Fe160     1.0  0.80615  0.55503  0.44380  1.0000
  S   S319      1.0  0.79751  0.60325  0.45062  1.0000
  S   S320      1.0  0.82148  0.97630  0.44008  1.0000
  S   S321      1.0  0.84396  0.53981  0.45231  1.0000
  Fe  Fe161     1.0  0.67955  0.75522  0.46291  1.0000
  S   S322      1.0  0.71869  0.75033  0.45378  1.0000
  S   S323      1.0  0.66730  0.73800  0.48982  1.0000
  Fe  Fe162     1.0  0.66199  0.77664  0.42651  1.0000
  S   S324      1.0  0.70004  0.77341  0.41451  1.0000
  S   S325      1.0  0.62680  0.79414  0.41370  1.0000
  Fe  Fe163     1.0  0.70302  0.72996  0.42923  1.0000
  S   S326      1.0  0.71762  0.68806  0.41599  1.0000
  Fe  Fe164     1.0  0.71292  0.79425  0.44007  1.0000
  S   S327      1.0  0.74635  0.82447  0.44153  1.0000
  S   S328      1.0  0.66398  0.73166  0.43919  1.0000
  S   S329      1.0  0.67471  0.80068  0.45127  1.0000
  C   C940      1.0  0.66910  0.76033  0.50901  1.0000
  C   C941      1.0  0.84400  0.01132  0.50721  1.0000
  C   C942      1.0  0.67622  0.79010  0.50812  1.0000
  C   C943      1.0  0.97271  0.82373  0.28701  1.0000
  H   H943      1.0  0.68026  0.80014  0.49537  1.0000
  H   H944      1.0  0.58039  0.78100  0.31175  1.0000
  C   C944      1.0  0.80399  0.95383  0.52022  1.0000
  H   H945      1.0  0.86969  0.54635  0.33044  1.0000
  H   H946      1.0  0.89509  0.56480  0.34136  1.0000
  H   H947      1.0  0.83914  0.54616  0.49584  1.0000
  C   C945      1.0  0.74728  0.92666  0.43889  1.0000
  C   C946      1.0  0.76903  0.91050  0.44111  1.0000
  C   C947      1.0  0.76836  0.87927  0.44191  1.0000
  C   C948      1.0  0.74598  0.86383  0.44053  1.0000
  C   C949      1.0  0.72418  0.87996  0.43837  1.0000
  C   C950      1.0  0.72486  0.91124  0.43755  1.0000
  H   H948      1.0  0.78640  0.92201  0.44214  1.0000
  H   H949      1.0  0.78532  0.86702  0.44356  1.0000
  H   H950      1.0  0.70684  0.86837  0.43729  1.0000
  H   H951      1.0  0.70793  0.92351  0.43583  1.0000
  C   C951      1.0  0.77317  0.62476  0.44186  1.0000
  C   C952      1.0  0.76752  0.65215  0.44989  1.0000
  C   C953      1.0  0.74953  0.67103  0.44266  1.0000
  C   C954      1.0  0.73732  0.66293  0.42710  1.0000
  C   C955      1.0  0.74259  0.63526  0.41927  1.0000
  C   C956      1.0  0.76036  0.61616  0.42665  1.0000
  H   H952      1.0  0.77732  0.65894  0.46167  1.0000
  H   H953      1.0  0.74572  0.69225  0.44879  1.0000
  H   H954      1.0  0.73320  0.62877  0.40724  1.0000
  H   H955      1.0  0.76452  0.59512  0.42035  1.0000
  C   C957      1.0  0.61107  0.77897  0.39520  1.0000
  C   C958      1.0  0.58737  0.78957  0.39121  1.0000
  C   C959      1.0  0.57462  0.77912  0.37619  1.0000
  C   C960      1.0  0.58562  0.75825  0.36485  1.0000
  C   C961      1.0  0.60919  0.74741  0.36898  1.0000
  C   C962      1.0  0.62180  0.75754  0.38414  1.0000
  H   H956      1.0  0.57893  0.80626  0.39962  1.0000
  H   H957      1.0  0.55654  0.78776  0.37314  1.0000
  H   H958      1.0  0.61787  0.73126  0.36030  1.0000
  H   H959      1.0  0.64003  0.74919  0.38702  1.0000
  C   C963      1.0  0.96692  0.77339  0.27697  1.0000
  H   H960      1.0  0.92231  0.53242  0.32334  1.0000
  C   C964      1.0  0.73293  0.76376  0.51910  1.0000
  C   C965      1.0  0.95084  0.00775  0.40653  1.0000
  C   C966      1.0  0.79175  0.97452  0.50961  1.0000
  Fe  Fe165     1.0  0.97930  0.54796  0.34002  1.0000
  H   H961      1.0  0.88550  0.01548  0.43232  1.0000
  C   C967      1.0  0.93015  0.96572  0.39360  1.0000
  C   C968      1.0  0.78019  0.68380  0.39728  1.0000
  H   H962      1.0  0.95344  0.00594  0.27141  1.0000
  H   H963      1.0  0.72575  0.73613  0.49629  1.0000
  H   H964      1.0  0.80677  0.73003  0.44843  1.0000
  S   S330      1.0  0.80757  0.52966  0.41784  1.0000
  H   H965      1.0  0.62548  0.77763  0.48864  1.0000
  C   C969      1.0  0.77854  0.54673  0.50808  1.0000
  C   C970      1.0  0.76703  0.75773  0.41802  1.0000
  C   C971      1.0  0.79557  0.73126  0.43659  1.0000
  C   C972      1.0  0.91183  0.96814  0.40672  1.0000
  S   S331      1.0  0.51934  0.84320  0.29467  1.0000
  H   H966      1.0  0.75461  0.73409  0.39499  1.0000
  C   C973      1.0  0.92948  0.54758  0.37301  1.0000
  C   C974      1.0  0.79486  0.70740  0.42466  1.0000
  H   H967      1.0  0.70953  0.00413  0.41957  1.0000
  H   H968      1.0  0.62058  0.81975  0.36268  1.0000
  N   N80       1.0  0.78026  0.70858  0.40994  1.0000
  Fe  Fe166     1.0  0.83019  0.01598  0.42291  1.0000
  C   C975      1.0  0.89908  0.53679  0.48017  1.0000
  C   C976      1.0  0.88209  0.54574  0.34208  1.0000
  S   S332      1.0  0.97490  0.54841  0.31022  1.0000
  S   S333      1.0  0.94652  0.56581  0.35604  1.0000
  N   N81       1.0  0.91308  0.98982  0.41945  1.0000
  S   S334      1.0  0.51554  0.80426  0.34133  1.0000
  H   H969      1.0  0.96537  0.84549  0.29033  1.0000
  H   H970      1.0  0.80559  0.68764  0.42749  1.0000
  H   H971      1.0  0.59317  0.86176  0.37104  1.0000
  H   H972      1.0  0.56004  0.87760  0.35031  1.0000
  S   S335      1.0  0.97063  0.96109  0.29435  1.0000
  H   H973      1.0  0.60607  0.82530  0.47994  1.0000
  C   C977      1.0  0.90918  0.52361  0.44988  1.0000
  C   C978      1.0  0.83995  0.53611  0.50888  1.0000
  C   C979      1.0  0.50723  0.66057  0.29143  1.0000
  H   H974      1.0  0.79292  0.68851  0.38604  1.0000
  N   N82       1.0  0.59925  0.75593  0.45009  1.0000
  C   C980      1.0  0.58813  0.78197  0.44536  1.0000
  C   C981      1.0  0.61247  0.75421  0.46547  1.0000
  C   C982      1.0  0.59039  0.80731  0.45599  1.0000
  C   C983      1.0  0.61482  0.77902  0.47653  1.0000
  C   C984      1.0  0.60385  0.80576  0.47167  1.0000
  C   C985      1.0  0.59780  0.73036  0.43805  1.0000
  H   H975      1.0  0.57835  0.78357  0.43287  1.0000
  H   H976      1.0  0.62166  0.73375  0.46917  1.0000
  H   H977      1.0  0.58224  0.82812  0.45183  1.0000
  Fe  Fe167     1.0  0.50549  0.80498  0.31228  1.0000
  H   H978      1.0  0.90507  0.58483  0.37691  1.0000
  H   H979      1.0  0.60463  0.70967  0.44436  1.0000
  H   H980      1.0  0.57848  0.72656  0.43390  1.0000
  H   H981      1.0  0.60920  0.73461  0.42597  1.0000
  H   H982      1.0  0.92864  0.94925  0.38315  1.0000
  Fe  Fe168     1.0  0.82732  0.00713  0.46318  1.0000
  H   H983      1.0  0.87755  0.55882  0.39839  1.0000
  H   H984      1.0  0.76132  0.68010  0.39207  1.0000
  H   H985      1.0  0.79128  0.97164  0.49529  1.0000
  C   C986      1.0  0.90909  0.56219  0.38070  1.0000
  H   H986      1.0  0.78581  0.66269  0.40375  1.0000
  H   H987      1.0  0.93740  0.80482  0.28070  1.0000
  C   C987      1.0  0.76649  0.73334  0.40651  1.0000
  H   H988      1.0  0.89740  0.55322  0.49068  1.0000
  C   C988      1.0  0.78158  0.75660  0.43318  1.0000
  H   H989      1.0  0.81269  0.93487  0.51387  1.0000
  H   H990      1.0  0.78183  0.77533  0.44229  1.0000
  C   C989      1.0  0.50291  0.61756  0.27160  1.0000
  N   N83       1.0  0.58439  0.82107  0.32628  1.0000
  C   C990      1.0  0.56943  0.84450  0.33062  1.0000
  C   C991      1.0  0.60277  0.81247  0.33748  1.0000
  C   C992      1.0  0.57233  0.85950  0.34677  1.0000
  C   C993      1.0  0.60641  0.82723  0.35361  1.0000
  C   C994      1.0  0.59093  0.85071  0.35834  1.0000
  C   C995      1.0  0.58129  0.80533  0.30938  1.0000
  H   H991      1.0  0.55490  0.85148  0.32173  1.0000
  H   H992      1.0  0.61421  0.79342  0.33423  1.0000
  C   C996      1.0  0.89346  0.54752  0.39287  1.0000
  H   H993      1.0  0.59693  0.81033  0.30030  1.0000
  H   H994      1.0  0.73835  0.78289  0.51126  1.0000
  C   C997      1.0  0.98493  0.93087  0.28290  1.0000
  C   C998      1.0  0.88911  0.00863  0.37278  1.0000
  S   S336      1.0  0.99182  0.99277  0.34210  1.0000
  H   H995      1.0  0.75607  0.77736  0.41533  1.0000
  C   C999      1.0  0.99240  0.76907  0.27761  1.0000
  H   H996      1.0  0.91270  0.56776  0.46059  1.0000
  C   C1000     1.0  0.98614  0.63995  0.27966  1.0000
  H   H997      1.0  0.53575  0.62822  0.28619  1.0000
  H   H998      1.0  0.96340  0.98515  0.38290  1.0000
  C   C1001     1.0  0.93232  0.00938  0.41954  1.0000
  H   H999      1.0  0.91944  0.00907  0.35391  1.0000
  C   C1002     1.0  0.50526  0.87413  0.28391  1.0000
  H   H1000     1.0  0.71165  0.69357  0.51425  1.0000
  C   C1003     1.0  0.95707  0.80099  0.28157  1.0000
  H   H1001     1.0  0.91525  0.52972  0.43659  1.0000
  C   C1004     1.0  0.52004  0.89305  0.27343  1.0000
  H   H1002     1.0  0.87814  0.97707  0.43057  1.0000
  C   C1005     1.0  0.99808  0.81856  0.28760  1.0000
  C   C1006     1.0  0.78146  0.99975  0.51748  1.0000
  H   H1003     1.0  0.77292  0.01659  0.50928  1.0000
  C   C1007     1.0  0.91121  0.01968  0.36543  1.0000
  C   C1008     1.0  0.97058  0.91275  0.27177  1.0000
  H   H1004     1.0  0.73888  0.01697  0.41160  1.0000
  H   H1005     1.0  0.99989  0.74768  0.27369  1.0000
  H   H1006     1.0  0.53949  0.88841  0.27201  1.0000
  C   C1009     1.0  0.52972  0.54401  0.75543  1.0000
  C   C1010     1.0  0.51903  0.68373  0.76349  1.0000
  C   C1011     1.0  0.91662  0.00382  0.65986  1.0000
  C   C1012     1.0  0.72413  0.74105  0.54746  1.0000
  C   C1013     1.0  0.70810  0.69046  0.54976  1.0000
  H   H1007     1.0  0.67065  0.87009  0.59158  1.0000
  Fe  Fe169     1.0  0.80073  0.55484  0.61771  1.0000
  S   S337      1.0  0.84108  0.56344  0.61309  1.0000
  S   S338      1.0  0.77596  0.58869  0.63131  1.0000
  Fe  Fe170     1.0  0.80243  0.98349  0.60100  1.0000
  S   S339      1.0  0.84163  0.99435  0.59390  1.0000
  S   S340      1.0  0.78439  0.94274  0.58890  1.0000
  H   H1008     1.0  0.89601  0.94355  0.69940  1.0000
  C   C1014     1.0  0.53676  0.81316  0.64064  1.0000
  Fe  Fe171     1.0  0.83414  0.54338  0.58608  1.0000
  S   S341      1.0  0.84565  0.56421  0.55998  1.0000
  S   S342      1.0  0.80481  0.00106  0.62889  1.0000
  H   H1009     1.0  0.52585  0.81987  0.62891  1.0000
  Fe  Fe172     1.0  0.66928  0.76203  0.62075  1.0000
  S   S343      1.0  0.70869  0.75499  0.62926  1.0000
  S   S344      1.0  0.63782  0.74305  0.63757  1.0000
  Fe  Fe173     1.0  0.68510  0.79011  0.58548  1.0000
  S   S345      1.0  0.72513  0.78509  0.59149  1.0000
  S   S346      1.0  0.67773  0.81494  0.55999  1.0000
  Fe  Fe174     1.0  0.71537  0.73947  0.60122  1.0000
  S   S347      1.0  0.74028  0.70339  0.58986  1.0000
  Fe  Fe175     1.0  0.71509  0.80118  0.61864  1.0000
  S   S348      1.0  0.73799  0.83592  0.63274  1.0000
  S   S349      1.0  0.67578  0.74333  0.59313  1.0000
  S   S350      1.0  0.67530  0.80935  0.61226  1.0000
  S   S351      1.0  0.53315  0.79545  0.73393  1.0000
  S   S352      1.0  0.53171  0.71619  0.75349  1.0000
  C   C1015     1.0  0.78302  0.00367  0.53584  1.0000
  H   H1010     1.0  0.70173  0.85759  0.58762  1.0000
  Fe  Fe176     1.0  0.52855  0.79210  0.70423  1.0000
  S   S353      1.0  0.55678  0.81049  0.68447  1.0000
  H   H1011     1.0  0.70511  0.90681  0.64545  1.0000
  H   H1012     1.0  0.84517  0.57775  0.52262  1.0000
  C   C1016     1.0  0.71039  0.92425  0.59541  1.0000
  H   H1013     1.0  0.54654  0.92187  0.76864  1.0000
  C   C1017     1.0  0.73212  0.76557  0.53762  1.0000
  C   C1018     1.0  0.61675  0.76247  0.65156  1.0000
  C   C1019     1.0  0.61443  0.79337  0.65107  1.0000
  C   C1020     1.0  0.59645  0.80771  0.66165  1.0000
  C   C1021     1.0  0.58067  0.79143  0.67289  1.0000
  C   C1022     1.0  0.58332  0.76059  0.67368  1.0000
  C   C1023     1.0  0.60114  0.74620  0.66296  1.0000
  H   H1014     1.0  0.62629  0.80616  0.64239  1.0000
  H   H1015     1.0  0.59462  0.83160  0.66101  1.0000
  H   H1016     1.0  0.57136  0.74777  0.68229  1.0000
  H   H1017     1.0  0.60285  0.72229  0.66348  1.0000
  C   C1024     1.0  0.77409  0.91191  0.60140  1.0000
  C   C1025     1.0  0.76330  0.88798  0.59239  1.0000
  C   C1026     1.0  0.75291  0.86413  0.60185  1.0000
  C   C1027     1.0  0.75319  0.86399  0.62043  1.0000
  C   C1028     1.0  0.76472  0.88745  0.62944  1.0000
  C   C1029     1.0  0.77511  0.91139  0.61997  1.0000
  H   H1018     1.0  0.76256  0.88812  0.57803  1.0000
  H   H1019     1.0  0.74447  0.84604  0.59475  1.0000
  H   H1020     1.0  0.76514  0.88744  0.64381  1.0000
  H   H1021     1.0  0.78346  0.92967  0.62704  1.0000
  C   C1030     1.0  0.76370  0.61852  0.61890  1.0000
  C   C1031     1.0  0.74720  0.63841  0.62713  1.0000
  C   C1032     1.0  0.73907  0.66402  0.61818  1.0000
  C   C1033     1.0  0.74749  0.66992  0.60093  1.0000
  C   C1034     1.0  0.76337  0.64956  0.59251  1.0000
  C   C1035     1.0  0.77143  0.62395  0.60144  1.0000
  H   H1022     1.0  0.74101  0.63424  0.64060  1.0000
  H   H1023     1.0  0.72664  0.67938  0.62473  1.0000
  H   H1024     1.0  0.76997  0.65395  0.57917  1.0000
  H   H1025     1.0  0.78419  0.60886  0.59499  1.0000
  C   C1036     1.0  0.66646  0.76414  0.54131  1.0000
  C   C1037     1.0  0.67380  0.79382  0.54047  1.0000
  H   H1026     1.0  0.94033  0.99872  0.73273  1.0000
  H   H1027     1.0  0.66257  0.75402  0.55405  1.0000
  C   C1038     1.0  0.81890  0.93644  0.54912  1.0000
  H   H1028     1.0  0.88204  0.55795  0.65079  1.0000
  C   C1039     1.0  0.98911  0.93443  0.76330  1.0000
  C   C1040     1.0  0.86755  0.98611  0.68623  1.0000
  S   S354      1.0  0.95099  0.55985  0.69270  1.0000
  C   C1041     1.0  0.89733  0.01944  0.65167  1.0000
  H   H1029     1.0  0.91142  0.58197  0.67150  1.0000
  C   C1042     1.0  0.50744  0.78049  0.65579  1.0000
  H   H1030     1.0  0.72573  0.95334  0.63553  1.0000
  H   H1031     1.0  0.99357  0.63468  0.74646  1.0000
  S   S355      1.0  0.87581  0.99933  0.63867  1.0000
  H   H1032     1.0  0.80572  0.91954  0.55417  1.0000
  Fe  Fe177     1.0  0.84363  0.01484  0.62138  1.0000
  H   H1033     1.0  0.69773  0.69826  0.56171  1.0000
  H   H1034     1.0  0.91865  0.98027  0.65742  1.0000
  H   H1035     1.0  0.54758  0.71188  0.64542  1.0000
  C   C1043     1.0  0.69671  0.89276  0.61874  1.0000
  C   C1044     1.0  0.71769  0.93838  0.62586  1.0000
  C   C1045     1.0  0.78138  0.56497  0.52294  1.0000
  H   H1036     1.0  0.92356  0.53294  0.72549  1.0000
  C   C1046     1.0  0.93190  0.54200  0.67683  1.0000
  H   H1037     1.0  0.98509  0.68765  0.75349  1.0000
  C   C1047     1.0  0.84335  0.55396  0.52403  1.0000
  Fe  Fe178     1.0  0.99452  0.00167  0.73545  1.0000
  C   C1048     1.0  0.99455  0.67397  0.76308  1.0000
  C   C1049     1.0  0.97507  0.90947  0.76828  1.0000
  C   C1050     1.0  0.90059  0.96542  0.70439  1.0000
  C   C1051     1.0  0.91317  0.55853  0.66861  1.0000
  C   C1052     1.0  0.71993  0.94439  0.60774  1.0000
  H   H1038     1.0  0.68393  0.82988  0.52310  1.0000
  H   H1039     1.0  0.73693  0.78607  0.54432  1.0000
  H   H1040     1.0  0.68883  0.88672  0.57435  1.0000
  H   H1041     1.0  0.54569  0.55827  0.75401  1.0000
  H   H1042     1.0  0.68857  0.87207  0.62320  1.0000
  H   H1043     1.0  0.71304  0.92862  0.58136  1.0000
  C   C1053     1.0  0.54322  0.75925  0.64260  1.0000
  H   H1044     1.0  0.72333  0.74266  0.56182  1.0000
  C   C1054     1.0  0.70605  0.91238  0.63143  1.0000
  H   H1045     1.0  0.92987  0.94901  0.72125  1.0000
  S   S356      1.0  0.99582  0.00264  0.70549  1.0000
  H   H1046     1.0  0.55666  0.81371  0.63711  1.0000
  C   C1055     1.0  0.84353  0.54125  0.54107  1.0000
  C   C1056     1.0  0.66386  0.74756  0.52561  1.0000
  H   H1047     1.0  0.72993  0.96389  0.60327  1.0000
  N   N84       1.0  0.71666  0.71569  0.53910  1.0000
  C   C1057     1.0  0.68958  0.87742  0.58800  1.0000
  H   H1048     1.0  0.85109  0.97735  0.69329  1.0000
  H   H1049     1.0  0.80917  0.63874  0.64884  1.0000
  H   H1050     1.0  0.69550  0.67595  0.54211  1.0000
  C   C1058     1.0  0.91966  0.96829  0.71669  1.0000
  S   S357      1.0  0.51248  0.74610  0.70509  1.0000
  N   N85       1.0  0.78970  0.70125  0.62834  1.0000
  C   C1059     1.0  0.79264  0.68060  0.64147  1.0000
  C   C1060     1.0  0.80227  0.69853  0.61258  1.0000
  C   C1061     1.0  0.80792  0.65595  0.63880  1.0000
  C   C1062     1.0  0.81780  0.67420  0.60949  1.0000
  C   C1063     1.0  0.82047  0.65271  0.62267  1.0000
  C   C1064     1.0  0.77350  0.72686  0.63139  1.0000
  H   H1051     1.0  0.78246  0.68253  0.65388  1.0000
  H   H1052     1.0  0.79968  0.71468  0.60208  1.0000
  H   H1053     1.0  0.82709  0.67152  0.59677  1.0000
  H   H1054     1.0  0.83166  0.63312  0.62022  1.0000
  H   H1055     1.0  0.75721  0.72049  0.63957  1.0000
  H   H1056     1.0  0.78367  0.74485  0.63825  1.0000
  H   H1057     1.0  0.76617  0.73562  0.61867  1.0000
  H   H1058     1.0  0.79657  0.98565  0.56028  1.0000
  H   H1059     1.0  0.50798  0.70585  0.66203  1.0000
  Fe  Fe179     1.0  0.98181  0.54050  0.70973  1.0000
  C   C1065     1.0  0.89652  0.54498  0.65681  1.0000
  H   H1060     1.0  0.53022  0.82964  0.76803  1.0000
  H   H1061     1.0  0.82755  0.94737  0.56079  1.0000
  S   S358      1.0  0.97464  0.53528  0.73913  1.0000
  S   S359      1.0  0.97654  0.96042  0.74789  1.0000
  N   N86       1.0  0.88796  0.98988  0.69867  1.0000
  Fe  Fe180     1.0  0.51439  0.75064  0.73493  1.0000
  S   S360      1.0  0.79352  0.53832  0.59018  1.0000
  N   N87       1.0  0.52915  0.78360  0.64665  1.0000
  N   N88       1.0  0.69876  0.89895  0.60099  1.0000
  H   H1062     1.0  0.86108  0.97794  0.52350  1.0000
  C   C1066     1.0  0.79512  0.98233  0.54606  1.0000
  C   C1067     1.0  0.78245  0.55235  0.53985  1.0000
  H   H1063     1.0  0.52934  0.87890  0.75215  1.0000
  C   C1068     1.0  0.99935  0.64390  0.75904  1.0000
  H   H1064     1.0  0.56064  0.76170  0.63558  1.0000
  H   H1065     1.0  0.78534  0.56624  0.55145  1.0000
  N   N89       1.0  0.80588  0.95818  0.53817  1.0000
  H   H1066     1.0  0.83392  0.92539  0.54149  1.0000
  C   C1069     1.0  0.84845  0.01492  0.53943  1.0000
  C   C1070     1.0  0.92565  0.99633  0.72316  1.0000
  H   H1067     1.0  0.88629  0.53942  0.70744  1.0000
  H   H1068     1.0  0.53407  0.82967  0.65150  1.0000
  H   H1069     1.0  0.85469  0.00554  0.55183  1.0000
  H   H1070     1.0  0.65812  0.72461  0.52636  1.0000
  H   H1071     1.0  0.94742  0.00576  0.67790  1.0000
  C   C1071     1.0  0.51760  0.89177  0.76093  1.0000
  H   H1072     1.0  0.87281  0.97064  0.67529  1.0000
  C   C1072     1.0  0.93303  0.01824  0.67145  1.0000
  C   C1073     1.0  0.67834  0.80687  0.52383  1.0000
  H   H1073     1.0  0.50415  0.99599  0.76324  1.0000
  H   H1074     1.0  0.86250  0.00740  0.67971  1.0000
  C   C1074     1.0  0.51381  0.72759  0.65748  1.0000
  C   C1075     1.0  0.53592  0.73095  0.64813  1.0000
  C   C1076     1.0  0.89374  0.01749  0.70499  1.0000
  C   C1077     1.0  0.78085  0.52152  0.54165  1.0000
  C   C1078     1.0  0.52730  0.91628  0.77027  1.0000
  C   C1079     1.0  0.85214  0.99940  0.52338  1.0000
  H   H1075     1.0  0.72413  0.67729  0.55438  1.0000
  H   H1076     1.0  0.78327  0.58877  0.52132  1.0000
  H   H1077     1.0  0.95703  0.90635  0.76261  1.0000
  C   C1080     1.0  0.51022  0.01875  0.76140  1.0000
  H   H1078     1.0  0.86201  0.52082  0.68269  1.0000
  H   H1079     1.0  0.50448  0.58039  0.75830  1.0000
  C   C1081     1.0  0.50631  0.55642  0.75788  1.0000
  C   C1082     1.0  0.71781  0.71352  0.52096  1.0000
  H   H1080     1.0  0.51625  0.55986  0.91562  1.0000
  Fe  Fe181     1.0  0.96462  0.78745  0.83491  1.0000
  H   H1081     1.0  0.94191  0.75214  0.78372  1.0000
  S   S361      1.0  0.92422  0.79051  0.84356  1.0000
  C   C1083     1.0  0.61389  0.54826  0.89120  1.0000
  C   C1084     1.0  0.92903  0.71470  0.83199  1.0000
  S   S362      1.0  0.97295  0.79496  0.80584  1.0000
  H   H1082     1.0  0.94073  0.71771  0.77209  1.0000
  Fe  Fe182     1.0  0.83846  0.77112  0.92848  1.0000
  S   S363      1.0  0.80849  0.78554  0.91001  1.0000
  S   S364      1.0  0.87845  0.76341  0.92019  1.0000
  Fe  Fe183     1.0  0.80477  0.77416  0.96147  1.0000
  S   S365      1.0  0.77290  0.78987  0.94514  1.0000
  S   S366      1.0  0.79152  0.76683  0.98981  1.0000
  Fe  Fe184     1.0  0.78439  0.75429  0.92588  1.0000
  S   S367      1.0  0.75250  0.72578  0.91669  1.0000
  Fe  Fe185     1.0  0.79961  0.81955  0.93112  1.0000
  S   S368      1.0  0.79638  0.86828  0.92362  1.0000
  S   S369      1.0  0.81500  0.73706  0.94280  1.0000
  S   S370      1.0  0.83091  0.80678  0.94894  1.0000
  Fe  Fe186     1.0  0.70160  0.99992  0.94507  1.0000
  H   H1083     1.0  0.53628  0.62774  0.79171  1.0000
  S   S371      1.0  0.70606  0.94985  0.94782  1.0000
  Fe  Fe187     1.0  0.71691  0.55973  0.92876  1.0000
  S   S372      1.0  0.68270  0.58251  0.93815  1.0000
  S   S373      1.0  0.75012  0.58505  0.91853  1.0000
  C   C1085     1.0  0.64998  0.98227  0.88439  1.0000
  Fe  Fe188     1.0  0.53704  0.52634  0.83122  1.0000
  C   C1086     1.0  0.75846  0.62533  0.96257  1.0000
  C   C1087     1.0  0.62978  0.97092  0.89380  1.0000
  N   N90       1.0  0.67337  0.97862  0.89063  1.0000
  N   N91       1.0  0.50793  0.80323  0.78479  1.0000
  N   N92       1.0  0.75214  0.67701  0.96919  1.0000
  C   C1088     1.0  0.76072  0.70781  0.96835  1.0000
  C   C1089     1.0  0.93222  0.73043  0.78324  1.0000
  C   C1090     1.0  0.71248  0.64307  0.88244  1.0000
  C   C1091     1.0  0.64653  0.62625  0.89343  1.0000
  H   H1084     1.0  0.75641  0.71752  0.95517  1.0000
  H   H1085     1.0  0.56300  0.56237  0.86588  1.0000
  C   C1092     1.0  0.58018  0.55230  0.86989  1.0000
  H   H1086     1.0  0.78409  0.65998  0.95603  1.0000
  C   C1093     1.0  0.59080  0.53003  0.85935  1.0000
  H   H1087     1.0  0.77037  0.83140  0.00788  1.0000
  C   C1094     1.0  0.94090  0.68729  0.83296  1.0000
  H   H1088     1.0  0.71781  0.68837  0.98139  1.0000
  H   H1089     1.0  0.78091  0.70910  0.97050  1.0000
  H   H1090     1.0  0.64378  0.62233  0.90790  1.0000
  C   C1095     1.0  0.68744  0.64661  0.88642  1.0000
  C   C1096     1.0  0.68418  0.55375  0.00794  1.0000
  H   H1091     1.0  0.72437  0.66231  0.88104  1.0000
  C   C1097     1.0  0.72080  0.64147  0.97676  1.0000
  H   H1092     1.0  0.68010  0.66889  0.88785  1.0000
  C   C1098     1.0  0.80891  0.76302  0.00939  1.0000
  C   C1099     1.0  0.83457  0.76570  0.00959  1.0000
  H   H1093     1.0  0.61123  0.97476  0.88903  1.0000
  H   H1094     1.0  0.84461  0.76890  0.99726  1.0000
  S   S374      1.0  0.51409  0.56619  0.83847  1.0000
  C   C1100     1.0  0.75285  0.68687  0.91915  1.0000
  C   C1101     1.0  0.73064  0.67207  0.92269  1.0000
  C   C1102     1.0  0.72979  0.64091  0.92324  1.0000
  C   C1103     1.0  0.75101  0.62424  0.91972  1.0000
  C   C1104     1.0  0.77331  0.63905  0.91644  1.0000
  C   C1105     1.0  0.77432  0.67028  0.91639  1.0000
  H   H1095     1.0  0.71396  0.68479  0.92479  1.0000
  H   H1096     1.0  0.71251  0.62989  0.92571  1.0000
  H   H1097     1.0  0.78984  0.62634  0.91371  1.0000
  H   H1098     1.0  0.79149  0.68150  0.91348  1.0000
  C   C1106     1.0  0.73169  0.92794  0.94123  1.0000
  C   C1107     1.0  0.73150  0.89743  0.94513  1.0000
  C   C1108     1.0  0.75123  0.87897  0.93993  1.0000
  C   C1109     1.0  0.77132  0.89083  0.93065  1.0000
  C   C1110     1.0  0.77150  0.92134  0.92669  1.0000
  C   C1111     1.0  0.75181  0.93987  0.93199  1.0000
  H   H1099     1.0  0.71600  0.88801  0.95223  1.0000
  H   H1100     1.0  0.75080  0.85555  0.94300  1.0000
  H   H1101     1.0  0.78698  0.93072  0.91955  1.0000
  H   H1102     1.0  0.75221  0.96332  0.92896  1.0000
  C   C1112     1.0  0.91190  0.78086  0.86469  1.0000
  C   C1113     1.0  0.88621  0.78098  0.86715  1.0000
  C   C1114     1.0  0.87564  0.77530  0.88398  1.0000
  C   C1115     1.0  0.89070  0.76905  0.89850  1.0000
  C   C1116     1.0  0.91637  0.76816  0.89592  1.0000
  C   C1117     1.0  0.92696  0.77411  0.87912  1.0000
  H   H1103     1.0  0.87439  0.78604  0.85605  1.0000
  H   H1104     1.0  0.85587  0.77594  0.88574  1.0000
  H   H1105     1.0  0.92818  0.76316  0.90704  1.0000
  H   H1106     1.0  0.94676  0.77382  0.87741  1.0000
  Fe  Fe189     1.0  0.68572  0.55345  0.96218  1.0000
  H   H1107     1.0  0.92249  0.72563  0.84400  1.0000
  H   H1108     1.0  0.69583  0.96103  0.91129  1.0000
  H   H1109     1.0  0.91761  0.75013  0.81484  1.0000
  H   H1110     1.0  0.64676  0.99511  0.87244  1.0000
  S   S375      1.0  0.68235  0.57629  0.98889  1.0000
  H   H1111     1.0  0.71495  0.56780  0.88357  1.0000
  S   S376      1.0  0.99452  0.72433  0.78377  1.0000
  C   C1118     1.0  0.98411  0.88847  0.78057  1.0000
  N   N93       1.0  0.88226  0.84314  0.90616  1.0000
  C   C1119     1.0  0.89557  0.84474  0.89067  1.0000
  C   C1120     1.0  0.85747  0.84855  0.90620  1.0000
  C   C1121     1.0  0.88394  0.85108  0.87458  1.0000
  C   C1122     1.0  0.84522  0.85483  0.89036  1.0000
  C   C1123     1.0  0.85857  0.85596  0.87445  1.0000
  C   C1124     1.0  0.89485  0.83695  0.92291  1.0000
  H   H1112     1.0  0.91519  0.84021  0.89057  1.0000
  H   H1113     1.0  0.84693  0.84783  0.91849  1.0000
  H   H1114     1.0  0.89449  0.85125  0.86224  1.0000
  H   H1115     1.0  0.82547  0.85868  0.89053  1.0000
  H   H1116     1.0  0.84924  0.86041  0.86204  1.0000
  H   H1117     1.0  0.88222  0.82602  0.93259  1.0000
  H   H1118     1.0  0.91034  0.82114  0.92077  1.0000
  H   H1119     1.0  0.90187  0.85786  0.92876  1.0000
  N   N94       1.0  0.93492  0.71510  0.80030  1.0000
  C   C1125     1.0  0.92632  0.72846  0.81545  1.0000
  S   S377      1.0  0.72142  0.53290  0.95364  1.0000
  C   C1126     1.0  0.94951  0.67374  0.81741  1.0000
  H   H1120     1.0  0.63500  0.61006  0.88604  1.0000
  C   C1127     1.0  0.52844  0.82395  0.78234  1.0000
  H   H1121     1.0  0.69307  0.98644  0.86657  1.0000
  H   H1122     1.0  0.52985  0.76505  0.77879  1.0000
  C   C1128     1.0  0.67735  0.96367  0.90617  1.0000
  C   C1129     1.0  0.51235  0.93364  0.78161  1.0000
  Fe  Fe190     1.0  0.99837  0.75540  0.80783  1.0000
  C   C1130     1.0  0.76648  0.65484  0.96219  1.0000
  C   C1131     1.0  0.68218  0.59433  0.88771  1.0000
  C   C1132     1.0  0.70718  0.59000  0.88391  1.0000
  H   H1123     1.0  0.67051  0.57514  0.89003  1.0000
  H   H1124     1.0  0.54604  0.81410  0.78691  1.0000
  H   H1125     1.0  0.63975  0.64880  0.89009  1.0000
  H   H1126     1.0  0.62557  0.97107  0.01528  1.0000
  S   S378      1.0  0.62661  0.55935  0.91181  1.0000
  C   C1133     1.0  0.63366  0.95582  0.90970  1.0000
  C   C1134     1.0  0.52452  0.64092  0.78328  1.0000
  C   C1135     1.0  0.65758  0.95200  0.91591  1.0000
  H   H1127     1.0  0.61814  0.94749  0.91734  1.0000
  H   H1128     1.0  0.91247  0.73414  0.78030  1.0000
  H   H1129     1.0  0.83776  0.82886  0.00634  1.0000
  C   C1136     1.0  0.72236  0.61455  0.88122  1.0000
  H   H1130     1.0  0.81020  0.82650  0.99370  1.0000
  Fe  Fe191     1.0  0.66223  0.54486  0.92530  1.0000
  C   C1137     1.0  0.59178  0.56150  0.88565  1.0000
  H   H1131     1.0  0.52536  0.84490  0.78988  1.0000
  H   H1132     1.0  0.63370  0.53741  0.02083  1.0000
  S   S379      1.0  0.98779  0.74618  0.83632  1.0000
  H   H1133     1.0  0.55313  0.67214  0.77622  1.0000
  Fe  Fe192     1.0  0.51175  0.00165  0.81125  1.0000
  H   H1134     1.0  0.75206  0.72181  0.97886  1.0000
  H   H1135     1.0  0.94366  0.67680  0.84576  1.0000
  C   C1138     1.0  0.77954  0.83217  0.02064  1.0000
  H   H1136     1.0  0.74196  0.61147  0.87892  1.0000
  H   H1137     1.0  0.97303  0.86949  0.78424  1.0000
  N   N95       1.0  0.67259  0.62237  0.88877  1.0000
  H   H1138     1.0  0.58333  0.57862  0.89374  1.0000
  C   C1139     1.0  0.68347  0.52285  0.00653  1.0000
  C   C1140     1.0  0.94609  0.68789  0.80108  1.0000
  H   H1139     1.0  0.95912  0.65264  0.81797  1.0000
  H   H1140     1.0  0.70283  0.63637  0.98239  1.0000
  C   C1141     1.0  0.51169  0.77349  0.78225  1.0000
  C   C1142     1.0  0.73548  0.61868  0.96993  1.0000
  C   C1143     1.0  0.69400  0.99210  0.88092  1.0000
  H   H1141     1.0  0.82031  0.86224  0.00169  1.0000
  H   H1142     1.0  0.72891  0.59594  0.97020  1.0000
  C   C1144     1.0  0.81897  0.83830  0.00501  1.0000
  S   S380      1.0  0.52581  0.52700  0.80224  1.0000
  H   H1143     1.0  0.95301  0.67730  0.78910  1.0000
  C   C1145     1.0  0.72941  0.67073  0.97619  1.0000
  C   C1146     1.0  0.62471  0.52627  0.88058  1.0000
  H   H1144     1.0  0.66088  0.94062  0.92838  1.0000
  H   H1145     1.0  0.76967  0.60783  0.95674  1.0000
  S   S381      1.0  0.52587  0.96415  0.79306  1.0000
  C   C1147     1.0  0.61364  0.01655  0.01344  1.0000
  C   C1148     1.0  0.00187  0.68649  0.77937  1.0000
  H   H1146     1.0  0.69316  0.01666  0.88243  1.0000
  S   S382      1.0  0.66199  0.01504  0.94629  1.0000
  S   S383      1.0  0.99477  0.81803  0.84368  1.0000
  H   H1147     1.0  0.71207  0.98440  0.88600  1.0000
  H   H1148     1.0  0.54608  0.01069  0.77219  1.0000
  H   H1149     1.0  0.67855  0.00767  0.99713  1.0000
  S   S384      1.0  0.69660  0.52371  0.91391  1.0000
  H   H1150     1.0  0.61491  0.01729  0.99903  1.0000
  C   C1149     1.0  0.53403  0.66613  0.77446  1.0000
  H   H1151     1.0  0.55390  0.53634  0.92141  1.0000
  C   C1150     1.0  0.51203  0.54673  0.90353  1.0000
  H   H1152     1.0  0.50987  0.56239  0.89222  1.0000
  N   N96       1.0  0.53126  0.52491  0.89933  1.0000
  C   C1151     1.0  0.67626  0.01904  0.00972  1.0000
  C   C1152     1.0  0.55156  0.52219  0.90988  1.0000
