data_image0
_chemical_formula_structural       FeS2FeS2FeSFeS3FeS2FeSFeHFeHS2FeS2FeCHFeHFeCS3CFeS2FeSFeHFeCS2C3HC2H2C7HC3HC2H2C2H5C6H4C6H4C3H2C6H6CH2C3HCHC4N2C6H8SH4CHNHC2NC3H2NC2HC4HSH2SCSHC2HSHCHSH2SH3SHC6H2C2HFeCHCNH3CSCH3NSHSHNH3CHCH2SFeS2C2HCH2CHS2CHFeH2CHCH2NFeCNCHC2H3CH2C7H4CHC2H3CHSCHC3SH2FeHCSFeSFeS2FeS2FeSFeS3FeS2H5C2S2H2C5H3C6H4C6H4CNSC6H4C4FeCH3CHCNC3NC6H10FeHNC7H4C2HCSH2SHSHCSC2HFeCH3SH2CFeHC2HCH2CHCS2H2CH2NCSCH4CH2CNHCH2C2H2CH2CFeS2FeS2FeSFeS3FeCSHS2CSNFeS2FeSHS2C3NC3HNH2SC6H4C6H5C7H4CH4CSHC3NH4C2H2C2SHC2H5CHCSHNCFeC3HC2HC3HCHC2H2C2H7CSC2H3FeCNC4HCHC2HCH3C2H3SCH5CSHC2HC2HCHFeHC2H4CH2CFeCHCFeH3CH2SHCHCHC2S2HCH2C4H3FeHCH2NCHC3HSH4FeH2CHCSNC2H2C2FeS4FeH2S2FeS2FeS2FeSFeS3FeS2FeSCFeSFeS3FeHS2FeS2FeSHFeHFeS3CHC4H2CH3C7H2FeHCHC3NC4HSHCSHC6H4C6H4CHFeH2C6H4C2H2CNH3CH2NSNC6H9CHSHC2HC3H3C3H2CNHSCSH5CHNC4H4NCFeH2SC2H6C3HNHC3SCHC5H2C3H3FeHC4HFeC2HC2S2H2C2H3CH4CSNC6H6C3H5C3HCFeC4H3CH2NH3C2HFeCFeSHFeS2FeSCSFeS2FeCSFeCFeCS2FeHCHCHCFeC2FeSHFeCFe2CSFeS2FeS2FeSFeS3FeS4C6HSH2CHC4NH3CH3C3FeH2C3H2C2H2C2SHC6HSHCHCHC3HCH2C6H3NC2HC2SC6H4CHC6HCH2SH3NC6H9FeCSFeC2H4SC2SCNH2NC6H8NC2HCH5CHC2HCHSCS2CNH3SHCH3CH2SHCHCHC3HCH2CNCH2CHCSCSCSC3HNHNHCH2CS2H2FeCHCHC3H3FeCH6CHSH6CHC2SFeSHFeSCSC2HS2H2CHS2CHS2HCH2C4HSH3C3H2CH2C2H2CH2C5HC2NC2FeC4H2NC5FeCH4CHFeC2HCHFeH3SHSCH2CFeC2SHCHNH5C2H2FeSFeHSFeHSCH2S2H2CH3NCSCSH2C2HCHNS4C3HCH2NC3HC6HFeCHC2HCFeC2SC2H2C2H4FeH3CHC3H2CH2NC2H7FeC3HCSCHSCH2CHFeSFeS2FeHS2FeS2FeH2FeHSFeCSCSFeS2FeS2FeCFeS3FeS2HCFeS2Fe2SCFeS2FeSFeS3C6SH3CHC3HFeH2C6H4SHC2H2CHCH2NH3C2H2CHC5SH2FeC4H3SHC6H4C4H2C6HCH2CHNC6HCHSCH4C2HC3HC2H2CH4C2SCH2C5H2NC6H2SH5NCS2NC6HCH2SH4NHNCHC3HCH3C2HC2HSH3SCSHC2HS2C2H3NHFeSCH4CH2SH3CHCFeNHCH2CH4S3C2H2C2SH2CH2CFeCH2CH2FeC2HCHCH2C2H5CHCNHNC2SHSCH2C2H3C6H3CSNH3NCH
_chemical_formula_sum              "Fe128 S256 H768 C768 N64"
_cell_length_a       51.5708
_cell_length_b       52.2904
_cell_length_c       51.4994
_cell_angle_alpha    89.8025
_cell_angle_beta     87.4895
_cell_angle_gamma    88.8305

_space_group_name_H-M_alt    "P 1"
_space_group_IT_number       1

loop_
  _space_group_symop_operation_xyz
  'x, y, z'

loop_
  _atom_site_type_symbol
  _atom_site_label
  _atom_site_symmetry_multiplicity
  _atom_site_fract_x
  _atom_site_fract_y
  _atom_site_fract_z
  _atom_site_occupancy
  Fe  Fe1       1.0  0.17690  0.17107  0.19146  1.0000
  S   S1        1.0  0.17079  0.21354  0.19864  1.0000
  S   S2        1.0  0.14632  0.14239  0.17929  1.0000
  Fe  Fe2       1.0  0.23028  0.17071  0.21552  1.0000
  S   S3        1.0  0.22873  0.21242  0.22426  1.0000
  S   S4        1.0  0.26319  0.14491  0.22815  1.0000
  Fe  Fe3       1.0  0.18751  0.20669  0.23774  1.0000
  S   S5        1.0  0.17303  0.22980  0.27279  1.0000
  Fe  Fe4       1.0  0.21251  0.21715  0.18489  1.0000
  S   S6        1.0  0.22923  0.25074  0.16245  1.0000
  S   S7        1.0  0.19003  0.16422  0.23232  1.0000
  S   S8        1.0  0.21770  0.17527  0.17446  1.0000
  Fe  Fe5       1.0  0.08035  0.06186  0.05990  1.0000
  S   S9        1.0  0.03769  0.07133  0.05555  1.0000
  S   S10       1.0  0.11071  0.08983  0.07439  1.0000
  Fe  Fe6       1.0  0.07690  0.01251  0.02771  1.0000
  S   S11       1.0  0.03480  0.01854  0.02116  1.0000
  Fe  Fe7       1.0  0.04405  0.05934  0.01380  1.0000
  H   H1        1.0  0.11776  0.21820  0.45644  1.0000
  Fe  Fe8       1.0  0.03135  0.02945  0.06295  1.0000
  H   H2        1.0  0.17976  0.10935  0.21881  1.0000
  S   S12       1.0  0.08683  0.05298  0.01702  1.0000
  S   S13       1.0  0.07340  0.02040  0.07065  1.0000
  Fe  Fe9       1.0  0.22970  0.23539  0.41130  1.0000
  S   S14       1.0  0.22591  0.21692  0.45061  1.0000
  S   S15       1.0  0.23160  0.20883  0.37671  1.0000
  Fe  Fe10      1.0  0.23855  0.28676  0.43530  1.0000
  C   C1        1.0  0.42342  0.99473  0.29928  1.0000
  H   H3        1.0  0.44865  0.18834  0.43799  1.0000
  Fe  Fe11      1.0  0.26172  0.23885  0.46005  1.0000
  H   H4        1.0  0.19911  0.08022  0.22153  1.0000
  Fe  Fe12      1.0  0.20109  0.25155  0.46240  1.0000
  C   C2        1.0  0.33930  0.24536  0.48259  1.0000
  S   S16       1.0  0.26598  0.25591  0.42011  1.0000
  S   S17       1.0  0.20250  0.26811  0.42216  1.0000
  S   S18       1.0  0.44502  0.16334  0.48993  1.0000
  C   C3        1.0  0.47937  0.23670  0.39785  1.0000
  Fe  Fe13      1.0  0.40755  0.18570  0.25694  1.0000
  S   S19       1.0  0.44792  0.17817  0.23941  1.0000
  S   S20       1.0  0.37333  0.19685  0.23286  1.0000
  Fe  Fe14      1.0  0.42792  0.19325  0.31053  1.0000
  S   S21       1.0  0.41623  0.20412  0.35158  1.0000
  Fe  Fe15      1.0  0.45906  0.21258  0.26280  1.0000
  H   H5        1.0  0.21385  0.11100  0.22421  1.0000
  Fe  Fe16      1.0  0.45404  0.15322  0.27514  1.0000
  C   C4        1.0  0.21313  0.09975  0.13215  1.0000
  S   S22       1.0  0.41883  0.22060  0.27868  1.0000
  S   S23       1.0  0.41263  0.15893  0.29081  1.0000
  C   C5        1.0  0.47948  0.27986  0.24668  1.0000
  C   C6        1.0  0.06194  0.12599  0.00487  1.0000
  C   C7        1.0  0.15780  0.18807  0.46972  1.0000
  H   H6        1.0  0.27620  0.30424  0.22444  1.0000
  C   C8        1.0  0.46676  0.04217  0.25857  1.0000
  C   C9        1.0  0.46432  0.06906  0.26158  1.0000
  H   H7        1.0  0.45649  0.03296  0.24342  1.0000
  H   H8        1.0  0.45235  0.08017  0.24878  1.0000
  C   C10       1.0  0.46900  0.16495  0.40899  1.0000
  C   C11       1.0  0.47052  0.15785  0.38278  1.0000
  C   C12       1.0  0.45359  0.16909  0.36526  1.0000
  C   C13       1.0  0.43524  0.18760  0.37386  1.0000
  C   C14       1.0  0.43301  0.19394  0.40025  1.0000
  C   C15       1.0  0.44990  0.18266  0.41782  1.0000
  C   C16       1.0  0.13101  0.26433  0.48264  1.0000
  H   H9        1.0  0.45494  0.16351  0.34507  1.0000
  C   C17       1.0  0.47795  0.08159  0.28057  1.0000
  C   C18       1.0  0.45717  0.03071  0.36306  1.0000
  C   C19       1.0  0.19902  0.10012  0.21399  1.0000
  H   H10       1.0  0.24993  0.11640  0.14004  1.0000
  C   C20       1.0  0.23189  0.10892  0.14829  1.0000
  C   C21       1.0  0.18997  0.09043  0.14310  1.0000
  H   H11       1.0  0.24176  0.11603  0.18762  1.0000
  H   H12       1.0  0.16722  0.08448  0.17843  1.0000
  C   C22       1.0  0.09778  0.28358  0.45586  1.0000
  C   C23       1.0  0.12364  0.27483  0.45893  1.0000
  H   H13       1.0  0.09227  0.29114  0.43727  1.0000
  H   H14       1.0  0.13768  0.27549  0.44274  1.0000
  H   H15       1.0  0.45170  0.25637  0.19364  1.0000
  H   H16       1.0  0.17502  0.08363  0.13076  1.0000
  H   H17       1.0  0.34105  0.18110  0.47362  1.0000
  C   C24       1.0  0.29369  0.15947  0.23015  1.0000
  C   C25       1.0  0.31392  0.14681  0.24278  1.0000
  C   C26       1.0  0.33847  0.15802  0.24407  1.0000
  C   C27       1.0  0.34293  0.18187  0.23247  1.0000
  C   C28       1.0  0.32268  0.19448  0.21995  1.0000
  C   C29       1.0  0.29816  0.18342  0.21888  1.0000
  H   H18       1.0  0.31062  0.12822  0.25145  1.0000
  H   H19       1.0  0.35400  0.14806  0.25361  1.0000
  H   H20       1.0  0.32602  0.21285  0.21080  1.0000
  H   H21       1.0  0.28290  0.19320  0.20880  1.0000
  C   C30       1.0  0.19011  0.22469  0.30131  1.0000
  C   C31       1.0  0.18507  0.24059  0.32297  1.0000
  C   C32       1.0  0.19823  0.23646  0.34605  1.0000
  C   C33       1.0  0.21618  0.21615  0.34763  1.0000
  C   C34       1.0  0.22123  0.20035  0.32596  1.0000
  C   C35       1.0  0.20844  0.20474  0.30279  1.0000
  H   H22       1.0  0.17087  0.25602  0.32191  1.0000
  H   H23       1.0  0.19417  0.24867  0.36270  1.0000
  H   H24       1.0  0.23485  0.18442  0.32712  1.0000
  H   H25       1.0  0.21235  0.19233  0.28624  1.0000
  C   C36       1.0  0.21833  0.28151  0.17251  1.0000
  C   C37       1.0  0.23467  0.30250  0.16881  1.0000
  C   C38       1.0  0.19359  0.28537  0.18422  1.0000
  H   H26       1.0  0.25379  0.29963  0.15966  1.0000
  H   H27       1.0  0.18071  0.26941  0.18684  1.0000
  C   C39       1.0  0.12003  0.10429  0.10388  1.0000
  C   C40       1.0  0.10831  0.09847  0.12813  1.0000
  C   C41       1.0  0.11640  0.11060  0.15081  1.0000
  C   C42       1.0  0.13617  0.12883  0.14967  1.0000
  C   C43       1.0  0.14774  0.13485  0.12537  1.0000
  C   C44       1.0  0.13976  0.12260  0.10270  1.0000
  H   H28       1.0  0.09311  0.08449  0.12947  1.0000
  H   H29       1.0  0.10726  0.10574  0.16945  1.0000
  H   H30       1.0  0.16301  0.14875  0.12409  1.0000
  H   H31       1.0  0.14902  0.12732  0.08409  1.0000
  H   H32       1.0  0.10742  0.13861  0.04834  1.0000
  H   H33       1.0  0.45406  0.26015  0.37533  1.0000
  C   C45       1.0  0.37428  0.20344  0.48273  1.0000
  H   H34       1.0  0.44934  0.06614  0.34289  1.0000
  H   H35       1.0  0.13871  0.22334  0.37497  1.0000
  C   C46       1.0  0.14245  0.21620  0.39431  1.0000
  C   C47       1.0  0.03981  0.12906  0.02120  1.0000
  C   C48       1.0  0.04247  0.13557  0.04727  1.0000
  H   H36       1.0  0.46590  0.03987  0.37931  1.0000
  C   C49       1.0  0.45989  0.31936  0.26453  1.0000
  H   H37       1.0  0.02080  0.12535  0.01391  1.0000
  C   C50       1.0  0.06884  0.14412  0.08452  1.0000
  C   C51       1.0  0.16416  0.20055  0.39819  1.0000
  C   C52       1.0  0.12565  0.22255  0.41541  1.0000
  C   C53       1.0  0.43410  0.29274  0.20514  1.0000
  N   N1        1.0  0.06650  0.13923  0.05670  1.0000
  N   N2        1.0  0.31753  0.20090  0.36045  1.0000
  C   C54       1.0  0.34337  0.19978  0.35315  1.0000
  C   C55       1.0  0.29913  0.19851  0.34225  1.0000
  C   C56       1.0  0.35134  0.19583  0.32711  1.0000
  C   C57       1.0  0.30644  0.19446  0.31605  1.0000
  C   C58       1.0  0.33275  0.19317  0.30849  1.0000
  C   C59       1.0  0.30970  0.20575  0.38776  1.0000
  H   H38       1.0  0.35806  0.20196  0.36744  1.0000
  H   H39       1.0  0.27864  0.19972  0.34790  1.0000
  H   H40       1.0  0.37183  0.19488  0.32141  1.0000
  H   H41       1.0  0.29181  0.19236  0.30169  1.0000
  H   H42       1.0  0.33876  0.19020  0.28824  1.0000
  H   H43       1.0  0.31281  0.22612  0.39259  1.0000
  H   H44       1.0  0.28883  0.20160  0.39199  1.0000
  H   H45       1.0  0.32118  0.19348  0.40090  1.0000
  S   S24       1.0  0.46927  0.18730  0.29655  1.0000
  H   H46       1.0  0.17758  0.19350  0.47512  1.0000
  H   H47       1.0  0.25411  0.26248  0.22523  1.0000
  H   H48       1.0  0.41617  0.23099  0.21431  1.0000
  H   H49       1.0  0.02525  0.13683  0.06011  1.0000
  C   C60       1.0  0.21824  0.27825  0.24221  1.0000
  H   H50       1.0  0.19738  0.31908  0.39119  1.0000
  N   N3        1.0  0.15246  0.19804  0.44380  1.0000
  H   H51       1.0  0.17688  0.29107  0.28013  1.0000
  C   C61       1.0  0.43663  0.03331  0.32189  1.0000
  C   C62       1.0  0.08829  0.13658  0.04070  1.0000
  N   N4        1.0  0.20497  0.29985  0.25036  1.0000
  C   C63       1.0  0.17781  0.29794  0.25969  1.0000
  C   C64       1.0  0.41542  0.25175  0.21527  1.0000
  C   C65       1.0  0.47041  0.24863  0.32709  1.0000
  H   H52       1.0  0.21639  0.10006  0.11120  1.0000
  H   H53       1.0  0.48030  0.05512  0.49169  1.0000
  N   N5        1.0  0.20408  0.10009  0.18577  1.0000
  C   C66       1.0  0.18571  0.09083  0.17011  1.0000
  C   C67       1.0  0.22710  0.10876  0.17524  1.0000
  H   H54       1.0  0.05393  0.15830  0.09172  1.0000
  C   C68       1.0  0.33004  0.22094  0.47761  1.0000
  C   C69       1.0  0.13089  0.21309  0.44013  1.0000
  C   C70       1.0  0.48231  0.02717  0.27485  1.0000
  C   C71       1.0  0.24404  0.27948  0.23278  1.0000
  H   H55       1.0  0.16723  0.31658  0.25820  1.0000
  S   S25       1.0  0.47679  0.11573  0.28467  1.0000
  H   H56       1.0  0.41873  0.20813  0.40705  1.0000
  H   H57       1.0  0.37950  0.25316  0.23810  1.0000
  S   S26       1.0  0.29614  0.21484  0.47520  1.0000
  C   C72       1.0  0.16901  0.19172  0.42322  1.0000
  S   S27       1.0  0.48449  0.99316  0.27001  1.0000
  H   H58       1.0  0.08822  0.15166  0.08874  1.0000
  C   C73       1.0  0.38329  0.22771  0.48881  1.0000
  C   C74       1.0  0.34787  0.20010  0.47736  1.0000
  H   H59       1.0  0.20854  0.26009  0.24227  1.0000
  S   S28       1.0  0.23649  0.27159  0.47622  1.0000
  H   H60       1.0  0.45037  0.28112  0.27787  1.0000
  C   C75       1.0  0.07893  0.28254  0.47654  1.0000
  H   H61       1.0  0.17727  0.19534  0.38192  1.0000
  S   S29       1.0  0.04642  0.29359  0.47118  1.0000
  H   H62       1.0  0.42962  0.04491  0.30605  1.0000
  H   H63       1.0  0.44985  0.30359  0.19626  1.0000
  S   S30       1.0  0.48869  0.20954  0.48024  1.0000
  H   H64       1.0  0.38745  0.18710  0.48294  1.0000
  H   H65       1.0  0.37867  0.30058  0.24122  1.0000
  H   H66       1.0  0.16596  0.31282  0.20090  1.0000
  S   S31       1.0  0.99639  0.01192  0.08345  1.0000
  H   H67       1.0  0.10375  0.12665  0.00233  1.0000
  C   C76       1.0  0.39488  0.26426  0.22877  1.0000
  C   C77       1.0  0.43518  0.26602  0.20339  1.0000
  C   C78       1.0  0.44774  0.04545  0.34274  1.0000
  C   C79       1.0  0.45528  0.00413  0.36234  1.0000
  C   C80       1.0  0.46204  0.29230  0.26429  1.0000
  C   C81       1.0  0.08636  0.12977  0.01463  1.0000
  H   H68       1.0  0.06643  0.12591  0.09553  1.0000
  H   H69       1.0  0.15626  0.16694  0.47009  1.0000
  C   C82       1.0  0.25641  0.30294  0.23228  1.0000
  C   C83       1.0  0.36564  0.24865  0.48827  1.0000
  H   H70       1.0  0.14415  0.19630  0.48496  1.0000
  Fe  Fe17      1.0  0.48434  0.16811  0.47035  1.0000
  C   C84       1.0  0.39454  0.29100  0.23041  1.0000
  H   H71       1.0  0.10870  0.23477  0.41274  1.0000
  C   C85       1.0  0.18525  0.31000  0.19212  1.0000
  N   N6        1.0  0.41405  0.30487  0.21874  1.0000
  H   H72       1.0  0.46901  0.26984  0.32804  1.0000
  H   H73       1.0  0.18618  0.17987  0.42606  1.0000
  H   H74       1.0  0.47061  0.24283  0.41641  1.0000
  C   C86       1.0  0.49167  0.32203  0.22890  1.0000
  S   S32       1.0  0.48322  0.24567  0.24538  1.0000
  C   C87       1.0  0.47007  0.24636  0.37456  1.0000
  H   H75       1.0  0.20422  0.31602  0.46492  1.0000
  H   H76       1.0  0.48512  0.14403  0.37591  1.0000
  H   H77       1.0  0.45080  0.24100  0.32422  1.0000
  N   N7        1.0  0.48059  0.23810  0.35114  1.0000
  S   S33       1.0  0.16254  0.25018  0.48684  1.0000
  H   H78       1.0  0.16748  0.28399  0.24776  1.0000
  S   S34       1.0  0.49246  0.15333  0.42997  1.0000
  H   H79       1.0  0.32596  0.26161  0.48307  1.0000
  N   N8        1.0  0.43539  0.00719  0.32108  1.0000
  H   H80       1.0  0.48310  0.24367  0.30971  1.0000
  H   H81       1.0  0.42570  0.00632  0.28120  1.0000
  H   H82       1.0  0.15927  0.31451  0.42203  1.0000
  C   C88       1.0  0.21707  0.32291  0.25036  1.0000
  H   H83       1.0  0.40248  0.99182  0.30398  1.0000
  C   C89       1.0  0.44420  0.99264  0.34111  1.0000
  H   H84       1.0  0.46239  0.99237  0.37806  1.0000
  H   H85       1.0  0.37225  0.26754  0.49291  1.0000
  S   S35       1.0  0.41850  0.01203  0.52461  1.0000
  Fe  Fe18      1.0  0.46741  0.15290  0.52487  1.0000
  S   S36       1.0  0.46990  0.19342  0.53884  1.0000
  S   S37       1.0  0.45749  0.12223  0.55464  1.0000
  C   C90       1.0  0.33322  0.18668  0.53791  1.0000
  C   C91       1.0  0.01004  0.06731  0.93112  1.0000
  H   H86       1.0  0.02197  0.11060  0.87061  1.0000
  C   C92       1.0  0.04687  0.04358  0.94708  1.0000
  H   H87       1.0  0.11750  0.25529  0.52175  1.0000
  H   H88       1.0  0.05550  0.07629  0.87244  1.0000
  C   C93       1.0  0.03151  0.10348  0.85280  1.0000
  H   H89       1.0  0.47725  0.02616  0.50967  1.0000
  S   S38       1.0  0.02426  0.02442  0.79941  1.0000
  S   S39       1.0  0.03933  0.02172  0.87258  1.0000
  C   C94       1.0  0.38342  0.19924  0.54940  1.0000
  H   H90       1.0  0.03161  0.11119  0.78726  1.0000
  Fe  Fe19      1.0  0.00930  0.30529  0.49582  1.0000
  H   H91       1.0  0.07337  0.03569  0.82578  1.0000
  H   H92       1.0  0.36918  0.23832  0.55136  1.0000
  C   C95       1.0  0.08178  0.05385  0.83235  1.0000
  H   H93       1.0  0.39946  0.14405  0.52602  1.0000
  C   C96       1.0  0.35290  0.16790  0.53890  1.0000
  H   H94       1.0  0.31387  0.18179  0.53233  1.0000
  H   H95       1.0  0.41728  0.16214  0.54842  1.0000
  N   N9        1.0  0.37763  0.17433  0.54449  1.0000
  Fe  Fe20      1.0  0.00997  0.02183  0.84125  1.0000
  C   C97       1.0  0.33898  0.21212  0.54278  1.0000
  N   N10       1.0  0.06229  0.07462  0.83129  1.0000
  C   C98       1.0  0.02484  0.11348  0.82878  1.0000
  H   H96       1.0  0.06592  0.01741  0.91986  1.0000
  C   C99       1.0  0.05012  0.03117  0.92299  1.0000
  C   C100      1.0  0.01295  0.05444  0.90716  1.0000
  H   H97       1.0  0.34843  0.14823  0.53457  1.0000
  H   H98       1.0  0.40318  0.20460  0.55292  1.0000
  H   H99       1.0  0.06006  0.03927  0.96236  1.0000
  C   C101      1.0  0.39789  0.15426  0.54494  1.0000
  H   H100      1.0  0.99465  0.08150  0.93419  1.0000
  H   H101      1.0  0.43470  0.10300  0.50767  1.0000
  C   C102      1.0  0.36419  0.21847  0.54870  1.0000
  C   C103      1.0  0.42905  0.04271  0.53318  1.0000
  C   C104      1.0  0.43969  0.04704  0.55724  1.0000
  C   C105      1.0  0.44780  0.07164  0.56371  1.0000
  C   C106      1.0  0.44623  0.09190  0.54586  1.0000
  C   C107      1.0  0.43601  0.08753  0.52158  1.0000
  C   C108      1.0  0.42703  0.06310  0.51547  1.0000
  H   H102      1.0  0.44123  0.03152  0.57107  1.0000
  H   H103      1.0  0.45563  0.07489  0.58254  1.0000
  H   H104      1.0  0.09919  0.05827  0.81982  1.0000
  H   H105      1.0  0.32417  0.22699  0.54088  1.0000
  C   C109      1.0  0.02703  0.06193  0.95112  1.0000
  H   H106      1.0  0.39344  0.14021  0.56066  1.0000
  C   C110      1.0  0.05551  0.08401  0.80765  1.0000
  C   C111      1.0  0.03323  0.03653  0.90298  1.0000
  H   H107      1.0  0.99992  0.05878  0.89178  1.0000
  H   H108      1.0  0.08816  0.05053  0.85247  1.0000
  H   H109      1.0  0.06428  0.07609  0.78982  1.0000
  C   C112      1.0  0.05048  0.08401  0.85370  1.0000
  H   H110      1.0  0.01017  0.12860  0.82769  1.0000
  S   S40       1.0  0.02356  0.07859  0.98079  1.0000
  C   C113      1.0  0.03695  0.10377  0.80606  1.0000
  H   H111      1.0  0.07237  0.27163  0.51655  1.0000
  C   C114      1.0  0.11220  0.26342  0.50331  1.0000
  C   C115      1.0  0.00023  0.99748  0.96338  1.0000
  C   C116      1.0  0.08649  0.27268  0.50042  1.0000
  S   S41       1.0  0.41542  0.23256  0.49962  1.0000
  H   H112      1.0  0.00214  0.00910  0.94595  1.0000
  H   H113      1.0  0.06015  0.12002  0.98486  1.0000
  Fe  Fe21      1.0  0.44988  0.20404  0.50191  1.0000
  H   H114      1.0  0.41881  0.05986  0.49681  1.0000
  C   C117      1.0  0.49117  0.04136  0.50387  1.0000
  S   S42       1.0  0.00632  0.56833  0.43153  1.0000
  Fe  Fe22      1.0  0.44204  0.45243  0.21434  1.0000
  S   S43       1.0  0.40272  0.47111  0.22083  1.0000
  Fe  Fe23      1.0  0.21883  0.39340  0.20522  1.0000
  S   S44       1.0  0.20409  0.43422  0.20404  1.0000
  S   S45       1.0  0.19097  0.36108  0.20075  1.0000
  Fe  Fe24      1.0  0.27254  0.40952  0.21693  1.0000
  S   S46       1.0  0.26173  0.45137  0.21690  1.0000
  S   S47       1.0  0.31185  0.39233  0.22425  1.0000
  Fe  Fe25      1.0  0.22613  0.43959  0.24071  1.0000
  S   S48       1.0  0.20793  0.46150  0.27619  1.0000
  Fe  Fe26      1.0  0.24120  0.44178  0.18038  1.0000
  S   S49       1.0  0.24543  0.46797  0.14442  1.0000
  S   S50       1.0  0.23850  0.39832  0.24284  1.0000
  S   S51       1.0  0.25412  0.40057  0.17944  1.0000
  Fe  Fe27      1.0  0.18505  0.47557  0.43750  1.0000
  S   S52       1.0  0.15146  0.44917  0.44186  1.0000
  S   S53       1.0  0.21221  0.46987  0.40087  1.0000
  H   H115      1.0  0.43095  0.34173  0.21208  1.0000
  H   H116      1.0  0.46126  0.47878  0.04951  1.0000
  H   H117      1.0  0.00910  0.57092  0.49077  1.0000
  H   H118      1.0  0.19960  0.47086  0.10770  1.0000
  H   H119      1.0  0.03344  0.39105  0.45087  1.0000
  C   C118      1.0  0.18756  0.40387  0.14441  1.0000
  C   C119      1.0  0.47450  0.33451  0.24673  1.0000
  S   S54       1.0  0.20212  0.46349  0.47575  1.0000
  S   S55       1.0  0.16260  0.50892  0.45684  1.0000
  H   H120      1.0  0.11156  0.52580  0.48553  1.0000
  H   H121      1.0  0.04787  0.59775  0.48410  1.0000
  C   C120      1.0  0.20548  0.33656  0.46345  1.0000
  C   C121      1.0  0.22410  0.34759  0.44655  1.0000
  C   C122      1.0  0.22524  0.37425  0.44451  1.0000
  C   C123      1.0  0.20747  0.38983  0.45894  1.0000
  C   C124      1.0  0.18791  0.35213  0.47809  1.0000
  H   H122      1.0  0.20648  0.34014  0.25647  1.0000
  H   H123      1.0  0.21414  0.36863  0.09438  1.0000
  H   H124      1.0  0.13595  0.35344  0.43907  1.0000
  C   C125      1.0  0.20799  0.46121  0.31116  1.0000
  C   C126      1.0  0.18902  0.47583  0.32542  1.0000
  C   C127      1.0  0.18920  0.47774  0.35286  1.0000
  C   C128      1.0  0.20892  0.46569  0.36656  1.0000
  C   C129      1.0  0.22778  0.45092  0.35234  1.0000
  C   C130      1.0  0.22702  0.44819  0.32504  1.0000
  H   H125      1.0  0.17416  0.48605  0.31512  1.0000
  H   H126      1.0  0.17464  0.48939  0.36327  1.0000
  H   H127      1.0  0.24319  0.44151  0.36259  1.0000
  H   H128      1.0  0.24148  0.43639  0.31484  1.0000
  C   C131      1.0  0.25566  0.46330  0.11102  1.0000
  C   C132      1.0  0.25723  0.48471  0.09436  1.0000
  C   C133      1.0  0.26324  0.48195  0.06741  1.0000
  C   C134      1.0  0.26756  0.45763  0.05656  1.0000
  C   C135      1.0  0.26642  0.43623  0.07334  1.0000
  C   C136      1.0  0.26076  0.43902  0.10035  1.0000
  H   H129      1.0  0.25333  0.50363  0.10224  1.0000
  H   H130      1.0  0.26395  0.49863  0.05493  1.0000
  H   H131      1.0  0.26979  0.41731  0.06527  1.0000
  H   H132      1.0  0.25966  0.42230  0.11274  1.0000
  C   C137      1.0  0.05098  0.39051  0.46181  1.0000
  N   N11       1.0  0.18100  0.38157  0.39934  1.0000
  S   S56       1.0  0.44789  0.41449  0.19498  1.0000
  C   C138      1.0  0.37780  0.44903  0.22220  1.0000
  C   C139      1.0  0.35263  0.45738  0.21717  1.0000
  C   C140      1.0  0.33246  0.43992  0.21732  1.0000
  C   C141      1.0  0.33721  0.41416  0.22308  1.0000
  C   C142      1.0  0.36244  0.40579  0.22820  1.0000
  C   C143      1.0  0.38279  0.42321  0.22764  1.0000
  H   H133      1.0  0.34880  0.47732  0.21275  1.0000
  H   H134      1.0  0.31339  0.44648  0.21274  1.0000
  H   H135      1.0  0.36623  0.38589  0.23279  1.0000
  H   H136      1.0  0.40221  0.41678  0.23196  1.0000
  C   C144      1.0  0.02887  0.54284  0.43558  1.0000
  C   C145      1.0  0.05566  0.54746  0.43365  1.0000
  C   C146      1.0  0.07382  0.52822  0.44016  1.0000
  C   C147      1.0  0.06517  0.50426  0.44859  1.0000
  Fe  Fe28      1.0  0.47946  0.43345  0.17101  1.0000
  C   C148      1.0  0.02046  0.51846  0.44267  1.0000
  H   H137      1.0  0.06231  0.56620  0.42785  1.0000
  H   H138      1.0  0.09434  0.53213  0.43925  1.0000
  H   H139      1.0  0.18027  0.44442  0.14303  1.0000
  C   C149      1.0  0.05003  0.57827  0.49113  1.0000
  H   H140      1.0  0.23953  0.34298  0.17495  1.0000
  C   C150      1.0  0.46853  0.38636  0.04376  1.0000
  N   N12       1.0  0.47245  0.51747  0.99759  1.0000
  C   C151      1.0  0.19421  0.36026  0.39021  1.0000
  C   C152      1.0  0.20184  0.33082  0.18914  1.0000
  C   C153      1.0  0.03851  0.49932  0.44925  1.0000
  N   N13       1.0  0.28820  0.48085  0.28041  1.0000
  C   C154      1.0  0.28476  0.45504  0.27907  1.0000
  C   C155      1.0  0.31264  0.49046  0.28146  1.0000
  C   C156      1.0  0.30607  0.43804  0.27907  1.0000
  C   C157      1.0  0.33442  0.47402  0.28124  1.0000
  C   C158      1.0  0.33103  0.44765  0.28026  1.0000
  C   C159      1.0  0.26533  0.49803  0.28093  1.0000
  H   H141      1.0  0.26543  0.44752  0.27763  1.0000
  H   H142      1.0  0.31548  0.51093  0.28233  1.0000
  H   H143      1.0  0.30330  0.41758  0.27753  1.0000
  H   H144      1.0  0.35387  0.48162  0.28145  1.0000
  H   H145      1.0  0.34779  0.43470  0.27965  1.0000
  H   H146      1.0  0.27060  0.51851  0.28041  1.0000
  H   H147      1.0  0.25337  0.49434  0.26392  1.0000
  H   H148      1.0  0.25308  0.49465  0.29889  1.0000
  H   H149      1.0  0.20912  0.45661  0.07723  1.0000
  H   H150      1.0  0.39607  0.34092  0.21110  1.0000
  Fe  Fe29      1.0  0.16703  0.43903  0.48032  1.0000
  H   H151      1.0  0.17436  0.42158  0.39260  1.0000
  N   N14       1.0  0.36669  0.45159  0.15340  1.0000
  C   C160      1.0  0.35863  0.42726  0.15867  1.0000
  C   C161      1.0  0.34935  0.47000  0.14573  1.0000
  C   C162      1.0  0.33249  0.42101  0.15693  1.0000
  C   C163      1.0  0.32307  0.46438  0.14372  1.0000
  C   C164      1.0  0.31464  0.43975  0.14947  1.0000
  C   C165      1.0  0.39418  0.45783  0.15505  1.0000
  C   C166      1.0  0.46943  0.49428  0.03797  1.0000
  H   H152      1.0  0.35577  0.48922  0.14132  1.0000
  H   H153      1.0  0.32599  0.40195  0.16204  1.0000
  H   H154      1.0  0.30920  0.47900  0.13786  1.0000
  H   H155      1.0  0.29427  0.43531  0.14830  1.0000
  C   C167      1.0  0.49116  0.38505  0.02796  1.0000
  C   C168      1.0  0.05918  0.36771  0.47350  1.0000
  H   H156      1.0  0.00001  0.51442  0.44347  1.0000
  C   C169      1.0  0.41318  0.33287  0.22089  1.0000
  S   S57       1.0  0.08624  0.48076  0.46125  1.0000
  H   H157      1.0  0.44664  0.32866  0.27854  1.0000
  H   H158      1.0  0.21164  0.36205  0.37783  1.0000
  S   S58       1.0  0.27272  0.45267  0.02226  1.0000
  H   H159      1.0  0.20524  0.41307  0.40557  1.0000
  S   S59       1.0  0.46994  0.36867  0.24748  1.0000
  H   H160      1.0  0.20820  0.41038  0.45695  1.0000
  C   C170      1.0  0.18751  0.42781  0.13217  1.0000
  S   S60       1.0  0.47624  0.42826  0.12751  1.0000
  C   C171      1.0  0.15184  0.35514  0.42471  1.0000
  C   C172      1.0  0.08756  0.41167  0.47911  1.0000
  H   H161      1.0  0.40431  0.44452  0.16831  1.0000
  Fe  Fe30      1.0  0.47776  0.40640  0.22459  1.0000
  C   C173      1.0  0.18620  0.33583  0.39772  1.0000
  H   H162      1.0  0.15058  0.39612  0.42489  1.0000
  H   H163      1.0  0.35516  0.62858  0.99682  1.0000
  H   H164      1.0  0.45010  0.39097  0.03525  1.0000
  S   S61       1.0  0.24456  0.32827  0.42636  1.0000
  H   H165      1.0  0.23964  0.38285  0.43149  1.0000
  H   H166      1.0  0.10211  0.33213  0.48636  1.0000
  C   C174      1.0  0.20573  0.40932  0.09328  1.0000
  Fe  Fe31      1.0  0.13009  0.48096  0.46321  1.0000
  H   H167      1.0  0.21284  0.41126  0.07322  1.0000
  C   C175      1.0  0.46164  0.49849  0.01260  1.0000
  C   C176      1.0  0.22660  0.32706  0.17742  1.0000
  H   H168      1.0  0.40420  0.45680  0.13554  1.0000
  C   C177      1.0  0.19731  0.38248  0.13084  1.0000
  H   H169      1.0  0.37229  0.41273  0.16502  1.0000
  H   H170      1.0  0.19910  0.40708  0.37192  1.0000
  C   C178      1.0  0.16025  0.37927  0.41663  1.0000
  H   H171      1.0  0.47565  0.43922  0.07348  1.0000
  C   C179      1.0  0.18871  0.37877  0.47565  1.0000
  S   S62       1.0  0.47059  0.47222  0.18780  1.0000
  S   S63       1.0  0.46991  0.44427  0.24556  1.0000
  H   H172      1.0  0.17506  0.45872  0.08712  1.0000
  H   H173      1.0  0.39633  0.47728  0.16329  1.0000
  C   C180      1.0  0.06527  0.41262  0.46470  1.0000
  H   H174      1.0  0.05909  0.43049  0.45582  1.0000
  H   H175      1.0  0.49020  0.38842  0.00721  1.0000
  N   N15       1.0  0.19654  0.43029  0.10692  1.0000
  C   C181      1.0  0.19491  0.45531  0.09407  1.0000
  S   S64       1.0  0.16513  0.39784  0.49231  1.0000
  C   C182      1.0  0.19035  0.40699  0.39202  1.0000
  H   H176      1.0  0.03167  0.48075  0.45546  1.0000
  H   H177      1.0  0.41207  0.33865  0.24168  1.0000
  H   H178      1.0  0.40770  0.43814  0.00000  1.0000
  H   H179      1.0  0.45254  0.38391  0.08311  1.0000
  C   C183      1.0  0.20653  0.38517  0.10511  1.0000
  H   H180      1.0  0.09896  0.42870  0.48128  1.0000
  H   H181      1.0  0.04804  0.35054  0.47097  1.0000
  C   C184      1.0  0.48840  0.50964  0.04798  1.0000
  N   N16       1.0  0.08065  0.36714  0.48822  1.0000
  H   H182      1.0  0.18005  0.40184  0.16431  1.0000
  C   C185      1.0  0.46988  0.38230  0.07048  1.0000
  H   H183      1.0  0.25233  0.34315  0.24056  1.0000
  H   H184      1.0  0.19760  0.36387  0.14031  1.0000
  C   C186      1.0  0.16492  0.33330  0.41514  1.0000
  C   C187      1.0  0.49088  0.53280  0.00732  1.0000
  H   H185      1.0  0.44733  0.48608  0.00481  1.0000
  H   H186      1.0  0.17343  0.34347  0.49097  1.0000
  C   C188      1.0  0.09501  0.38863  0.49082  1.0000
  H   H187      1.0  0.09164  0.57913  0.49109  1.0000
  H   H188      1.0  0.99345  0.44854  0.47250  1.0000
  C   C189      1.0  0.24297  0.32479  0.24129  1.0000
  Fe  Fe32      1.0  0.19761  0.56912  0.71771  1.0000
  S   S65       1.0  0.20740  0.52717  0.72081  1.0000
  S   S66       1.0  0.15709  0.58520  0.72334  1.0000
  Fe  Fe33      1.0  0.25163  0.58289  0.69881  1.0000
  S   S67       1.0  0.26504  0.54174  0.70000  1.0000
  S   S68       1.0  0.28127  0.61229  0.68638  1.0000
  Fe  Fe34      1.0  0.22732  0.53306  0.68123  1.0000
  S   S69       1.0  0.22110  0.50554  0.64710  1.0000
  Fe  Fe35      1.0  0.24375  0.54034  0.73955  1.0000
  S   S70       1.0  0.26633  0.52620  0.77504  1.0000
  S   S71       1.0  0.21571  0.57432  0.67768  1.0000
  S   S72       1.0  0.23227  0.58212  0.73862  1.0000
  Fe  Fe36      1.0  0.04165  0.50763  0.69039  1.0000
  C   C190      1.0  0.23476  0.56115  0.92584  1.0000
  S   S73       1.0  0.08241  0.49515  0.69905  1.0000
  H   H189      1.0  0.30755  0.47408  0.80868  1.0000
  S   S74       1.0  0.01915  0.48362  0.66395  1.0000
  S   S75       1.0  0.03013  0.54463  0.67166  1.0000
  C   C191      1.0  0.02820  0.56320  0.49494  1.0000
  S   S76       1.0  0.25772  0.51045  0.97100  1.0000
  N   N17       1.0  0.02992  0.40760  0.69990  1.0000
  Fe  Fe37      1.0  0.32843  0.49189  0.94896  1.0000
  S   S77       1.0  0.29528  0.46462  0.94790  1.0000
  S   S78       1.0  0.36804  0.48585  0.92891  1.0000
  Fe  Fe38      1.0  0.27282  0.49784  0.93092  1.0000
  S   S79       1.0  0.24703  0.49690  0.89538  1.0000
  H   H190      1.0  0.12899  0.51623  0.59702  1.0000
  S   S80       1.0  0.01037  0.50907  0.72205  1.0000
  S   S81       1.0  0.30651  0.52388  0.93004  1.0000
  C   C192      1.0  0.14108  0.54596  0.62251  1.0000
  C   C193      1.0  0.29264  0.59965  0.96309  1.0000
  C   C194      1.0  0.29060  0.62499  0.97170  1.0000
  N   N18       1.0  0.29433  0.46049  0.84599  1.0000
  C   C195      1.0  0.29389  0.64012  0.92713  1.0000
  C   C196      1.0  0.29627  0.61480  0.91853  1.0000
  C   C197      1.0  0.29556  0.59461  0.93648  1.0000
  H   H191      1.0  0.15507  0.57084  0.65203  1.0000
  N   N19       1.0  0.27050  0.53790  0.60068  1.0000
  H   H192      1.0  0.29844  0.61078  0.89794  1.0000
  H   H193      1.0  0.29680  0.57524  0.92960  1.0000
  S   S82       1.0  0.00816  0.52703  0.60455  1.0000
  C   C198      1.0  0.25903  0.52242  0.80922  1.0000
  C   C199      1.0  0.23483  0.51426  0.81910  1.0000
  C   C200      1.0  0.23127  0.50753  0.84567  1.0000
  C   C201      1.0  0.25165  0.50911  0.86294  1.0000
  C   C202      1.0  0.27543  0.51859  0.85339  1.0000
  C   C203      1.0  0.27913  0.52487  0.82672  1.0000
  H   H194      1.0  0.21916  0.51203  0.80604  1.0000
  H   H195      1.0  0.21272  0.50032  0.85270  1.0000
  H   H196      1.0  0.29135  0.52007  0.86627  1.0000
  H   H197      1.0  0.29796  0.53113  0.81944  1.0000
  C   C204      1.0  0.13459  0.56095  0.71948  1.0000
  C   C205      1.0  0.13939  0.53632  0.72906  1.0000
  C   C206      1.0  0.12305  0.51625  0.72308  1.0000
  C   C207      1.0  0.10162  0.52083  0.70785  1.0000
  C   C208      1.0  0.09641  0.54565  0.69897  1.0000
  C   C209      1.0  0.11281  0.56570  0.70481  1.0000
  H   H198      1.0  0.15563  0.53274  0.74119  1.0000
  H   H199      1.0  0.12697  0.49719  0.73037  1.0000
  H   H200      1.0  0.08023  0.54932  0.68692  1.0000
  H   H201      1.0  0.10908  0.58464  0.69717  1.0000
  H   H202      1.0  0.23824  0.60948  0.88167  1.0000
  C   C210      1.0  0.01358  0.35958  0.68520  1.0000
  C   C211      1.0  0.19418  0.51630  0.56256  1.0000
  C   C212      1.0  0.19737  0.53769  0.57868  1.0000
  C   C213      1.0  0.20482  0.53482  0.60470  1.0000
  C   C214      1.0  0.20924  0.51042  0.61514  1.0000
  C   C215      1.0  0.20536  0.48903  0.59928  1.0000
  C   C216      1.0  0.19786  0.49189  0.57326  1.0000
  H   H203      1.0  0.19460  0.55669  0.57076  1.0000
  H   H204      1.0  0.20763  0.55154  0.61647  1.0000
  H   H205      1.0  0.20871  0.47001  0.60696  1.0000
  H   H206      1.0  0.19556  0.47518  0.56129  1.0000
  C   C217      1.0  0.34188  0.47586  0.86337  1.0000
  H   H207      1.0  0.46768  0.54009  0.96342  1.0000
  H   H208      1.0  0.02025  0.44556  0.71159  1.0000
  H   H209      1.0  0.23046  0.63762  0.69069  1.0000
  H   H210      1.0  0.26328  0.57384  0.58235  1.0000
  C   C218      1.0  0.43611  0.44847  0.97002  1.0000
  S   S83       1.0  0.29016  0.57483  0.98595  1.0000
  H   H211      1.0  0.44553  0.51419  0.96741  1.0000
  C   C219      1.0  0.39397  0.47188  0.94546  1.0000
  C   C220      1.0  0.41915  0.47261  0.93396  1.0000
  C   C221      1.0  0.44021  0.46112  0.94630  1.0000
  N   N20       1.0  0.07742  0.54264  0.50277  1.0000
  H   H212      1.0  0.28324  0.56861  0.62414  1.0000
  H   H213      1.0  0.42233  0.48196  0.91536  1.0000
  H   H214      1.0  0.45950  0.46164  0.93721  1.0000
  H   H215      1.0  0.26492  0.47984  0.57279  1.0000
  C   C222      1.0  0.27453  0.54938  0.62611  1.0000
  C   C223      1.0  0.23173  0.57595  0.94839  1.0000
  H   H216      1.0  0.23977  0.56181  0.88413  1.0000
  H   H217      1.0  0.05834  0.50749  0.51095  1.0000
  C   C224      1.0  0.01840  0.40471  0.67668  1.0000
  C   C225      1.0  0.33604  0.47921  0.83735  1.0000
  S   S84       1.0  0.31846  0.50513  0.98973  1.0000
  H   H218      1.0  0.13646  0.56139  0.60927  1.0000
  C   C226      1.0  0.08909  0.34308  0.50021  1.0000
  C   C227      1.0  0.29999  0.45697  0.87149  1.0000
  H   H219      1.0  0.14097  0.47640  0.68130  1.0000
  H   H220      1.0  0.31049  0.65160  0.72119  1.0000
  H   H221      1.0  0.16643  0.53540  0.68118  1.0000
  H   H222      1.0  0.23245  0.63485  0.92202  1.0000
  H   H223      1.0  0.11257  0.62078  0.73378  1.0000
  C   C228      1.0  0.23277  0.61411  0.92324  1.0000
  H   H224      1.0  0.00159  0.61316  0.61970  1.0000
  C   C229      1.0  0.03775  0.43315  0.70778  1.0000
  S   S85       1.0  0.14308  0.46843  0.50237  1.0000
  H   H225      1.0  0.17214  0.47084  0.66391  1.0000
  N   N21       1.0  0.23091  0.60208  0.94689  1.0000
  C   C230      1.0  0.05610  0.52765  0.50629  1.0000
  Fe  Fe39      1.0  0.00432  0.52075  0.64804  1.0000
  C   C231      1.0  0.26441  0.55323  0.58013  1.0000
  C   C232      1.0  0.23709  0.57320  0.90168  1.0000
  C   C233      1.0  0.26539  0.50050  0.57449  1.0000
  H   H226      1.0  0.00790  0.54074  0.55152  1.0000
  C   C234      1.0  0.02497  0.36277  0.70900  1.0000
  C   C235      1.0  0.46584  0.52000  0.97029  1.0000
  H   H227      1.0  0.13949  0.48132  0.62763  1.0000
  C   C236      1.0  0.00130  0.61603  0.72125  1.0000
  C   C237      1.0  0.15931  0.48532  0.67403  1.0000
  C   C238      1.0  0.03316  0.38704  0.71607  1.0000
  H   H228      1.0  0.28584  0.44872  0.88514  1.0000
  C   C239      1.0  0.23609  0.59986  0.90031  1.0000
  H   H229      1.0  0.07025  0.64208  0.72460  1.0000
  C   C240      1.0  0.27084  0.51184  0.59817  1.0000
  C   C241      1.0  0.35658  0.63710  0.97760  1.0000
  H   H230      1.0  0.23546  0.54046  0.92707  1.0000
  H   H231      1.0  0.25318  0.55460  0.54011  1.0000
  C   C242      1.0  0.35699  0.63194  0.93104  1.0000
  C   C243      1.0  0.25922  0.51597  0.55343  1.0000
  H   H232      1.0  0.26312  0.46387  0.82019  1.0000
  H   H233      1.0  0.00092  0.37842  0.65053  1.0000
  H   H234      1.0  0.16970  0.49204  0.69110  1.0000
  H   H235      1.0  0.35332  0.60071  0.95833  1.0000
  H   H236      1.0  0.37060  0.45898  0.97841  1.0000
  H   H237      1.0  0.05022  0.44207  0.69224  1.0000
  H   H238      1.0  0.35557  0.61993  0.91405  1.0000
  C   C244      1.0  0.02012  0.65204  0.69692  1.0000
  S   S86       1.0  0.18712  0.52137  0.52905  1.0000
  C   C245      1.0  0.25876  0.54251  0.55619  1.0000
  C   C246      1.0  0.01026  0.38064  0.66886  1.0000
  H   H239      1.0  0.04140  0.38940  0.73489  1.0000
  H   H240      1.0  0.07217  0.33106  0.50582  1.0000
  H   H241      1.0  0.28781  0.53734  0.63768  1.0000
  Fe  Fe40      1.0  0.29327  0.53455  0.97059  1.0000
  C   C247      1.0  0.07468  0.56758  0.49502  1.0000
  N   N22       1.0  0.15337  0.50636  0.65623  1.0000
  C   C248      1.0  0.15788  0.53110  0.66294  1.0000
  C   C249      1.0  0.14294  0.50096  0.63296  1.0000
  C   C250      1.0  0.15163  0.55128  0.64634  1.0000
  C   C251      1.0  0.13682  0.52064  0.61565  1.0000
  H   H242      1.0  0.23448  0.63678  0.96821  1.0000
  C   C252      1.0  0.10352  0.53142  0.50509  1.0000
  H   H243      1.0  0.27433  0.49965  0.61483  1.0000
  C   C253      1.0  0.29102  0.64518  0.95373  1.0000
  C   C254      1.0  0.26947  0.45190  0.83675  1.0000
  H   H244      1.0  0.36027  0.48210  0.87043  1.0000
  C   C255      1.0  0.31212  0.47110  0.82887  1.0000
  H   H245      1.0  0.23743  0.60816  0.98695  1.0000
  H   H246      1.0  0.34985  0.48819  0.82389  1.0000
  H   H247      1.0  0.25564  0.55129  0.63719  1.0000
  C   C256      1.0  0.32386  0.46449  0.88049  1.0000
  C   C257      1.0  0.38996  0.45968  0.96945  1.0000
  H   H248      1.0  0.27124  0.43163  0.83051  1.0000
  H   H249      1.0  0.25387  0.45377  0.85232  1.0000
  H   H250      1.0  0.32841  0.46170  0.90067  1.0000
  S   S87       1.0  0.01258  0.34155  0.51820  1.0000
  C   C258      1.0  0.28375  0.65707  0.78221  1.0000
  H   H251      1.0  0.00772  0.57955  0.62616  1.0000
  H   H252      1.0  0.00687  0.34090  0.67974  1.0000
  H   H253      1.0  0.15367  0.64047  0.71779  1.0000
  H   H254      1.0  0.25387  0.50743  0.53526  1.0000
  H   H255      1.0  0.11227  0.38810  0.50213  1.0000
  C   C259      1.0  0.22686  0.61714  0.97074  1.0000
  S   S88       1.0  0.46206  0.43394  0.98610  1.0000
  H   H256      1.0  0.01485  0.42121  0.66439  1.0000
  C   C260      1.0  0.03121  0.53769  0.50241  1.0000
  C   C261      1.0  0.35573  0.62118  0.95588  1.0000
  H   H257      1.0  0.09960  0.34655  0.51822  1.0000
  C   C262      1.0  0.41097  0.44784  0.98160  1.0000
  C   C263      1.0  0.27094  0.64427  0.68181  1.0000
  H   H258      1.0  0.02668  0.34666  0.72223  1.0000
  C   C264      1.0  0.01352  0.62586  0.69856  1.0000
  H   H259      1.0  0.23051  0.56641  0.96714  1.0000
  Fe  Fe41      1.0  0.28358  0.48000  0.98818  1.0000
  H   H260      1.0  0.04897  0.43267  0.72571  1.0000
  C   C265      1.0  0.11210  0.63875  0.72311  1.0000
  C   C266      1.0  0.29131  0.64594  0.75839  1.0000
  H   H261      1.0  0.11681  0.54517  0.51376  1.0000
  H   H262      1.0  0.01730  0.61353  0.68200  1.0000
  H   H263      1.0  0.47922  0.50766  0.95803  1.0000
  H   H264      1.0  0.01445  0.52550  0.50409  1.0000
  C   C267      1.0  0.24484  0.65172  0.68541  1.0000
  H   H265      1.0  0.28713  0.62605  0.75451  1.0000
  H   H266      1.0  0.20584  0.61848  0.97632  1.0000
  C   C268      1.0  0.08841  0.65065  0.71796  1.0000
  Fe  Fe42      1.0  0.99746  0.54560  0.70165  1.0000
  C   C269      1.0  0.13520  0.64990  0.71420  1.0000
  H   H267      1.0  0.10320  0.51402  0.51756  1.0000
  C   C270      1.0  0.99713  0.63275  0.74256  1.0000
  Fe  Fe43      1.0  0.17695  0.49416  0.49559  1.0000
  H   H268      1.0  0.27380  0.64581  0.79717  1.0000
  H   H269      1.0  0.28818  0.62901  0.99228  1.0000
  H   H270      1.0  0.30957  0.65692  0.67150  1.0000
  C   C271      1.0  0.99391  0.59361  0.61777  1.0000
  H   H271      1.0  0.48729  0.67806  0.12601  1.0000
  H   H272      1.0  0.43311  0.97593  0.29490  1.0000
  S   S89       1.0  0.05567  0.79933  0.01153  1.0000
  H   H273      1.0  0.44275  0.82243  0.24510  1.0000
  C   C272      1.0  0.08186  0.94878  0.01240  1.0000
  H   H274      1.0  0.47627  0.83155  0.23953  1.0000
  C   C273      1.0  0.05793  0.90108  0.01992  1.0000
  H   H275      1.0  0.47730  0.80237  0.20144  1.0000
  C   C274      1.0  0.47388  0.74645  0.25042  1.0000
  C   C275      1.0  0.48119  0.91628  0.46208  1.0000
  S   S90       1.0  0.47473  0.92548  0.30481  1.0000
  S   S91       1.0  0.45951  0.93589  0.37886  1.0000
  H   H276      1.0  0.14728  0.78510  0.00399  1.0000
  C   C276      1.0  0.46832  0.77159  0.25841  1.0000
  H   H277      1.0  0.00091  0.93437  0.03089  1.0000
  H   H278      1.0  0.04174  0.91752  0.05554  1.0000
  C   C277      1.0  0.48187  0.76177  0.20664  1.0000
  C   C278      1.0  0.99537  0.95486  0.03363  1.0000
  C   C279      1.0  0.05398  0.92072  0.03828  1.0000
  C   C280      1.0  0.48994  0.91248  0.41527  1.0000
  H   H279      1.0  0.46356  0.77522  0.27882  1.0000
  H   H280      1.0  0.46566  0.81998  0.27061  1.0000
  H   H281      1.0  0.19442  0.77976  0.01172  1.0000
  Fe  Fe44      1.0  0.48875  0.93033  0.34530  1.0000
  H   H282      1.0  0.48481  0.72214  0.21786  1.0000
  C   C281      1.0  0.06569  0.94457  0.03444  1.0000
  H   H283      1.0  0.47342  0.73093  0.26449  1.0000
  H   H284      1.0  0.06240  0.95964  0.04864  1.0000
  N   N23       1.0  0.46975  0.79136  0.24095  1.0000
  C   C282      1.0  0.36003  0.67962  0.99736  1.0000
  H   H285      1.0  0.41094  0.73845  0.00844  1.0000
  C   C283      1.0  0.46867  0.92864  0.41071  1.0000
  C   C284      1.0  0.45388  0.93882  0.43191  1.0000
  C   C285      1.0  0.46030  0.93292  0.45754  1.0000
  H   H286      1.0  0.44282  0.97196  0.34071  1.0000
  S   S92       1.0  0.04149  0.87205  0.02485  1.0000
  H   H287      1.0  0.43737  0.95129  0.42852  1.0000
  H   H288      1.0  0.44882  0.94094  0.47374  1.0000
  H   H289      1.0  0.37970  0.68788  0.99799  1.0000
  H   H290      1.0  0.45748  0.72485  0.00491  1.0000
  Fe  Fe45      1.0  0.04688  0.83909  0.99658  1.0000
  H   H291      1.0  0.34567  0.69571  0.99624  1.0000
  H   H292      1.0  0.00909  0.96378  0.04686  1.0000
  C   C286      1.0  0.46316  0.81755  0.24941  1.0000
  H   H293      1.0  0.03084  0.94929  0.99473  1.0000
  C   C287      1.0  0.07415  0.90526  0.99789  1.0000
  S   S93       1.0  0.09606  0.97878  0.00668  1.0000
  N   N24       1.0  0.99613  0.96849  0.00870  1.0000
  C   C288      1.0  0.48058  0.74156  0.22435  1.0000
  C   C289      1.0  0.47628  0.78672  0.21531  1.0000
  H   H294      1.0  0.48717  0.75801  0.18633  1.0000
  H   H295      1.0  0.35578  0.66927  0.01587  1.0000
  C   C290      1.0  0.08624  0.92899  0.99426  1.0000
  C   C291      1.0  0.18710  0.77394  0.99333  1.0000
  Fe  Fe46      1.0  0.43745  0.92985  0.57847  1.0000
  S   S94       1.0  0.47991  0.92159  0.56802  1.0000
  S   S95       1.0  0.41957  0.90336  0.61024  1.0000
  S   S96       1.0  0.36991  0.74093  0.97225  1.0000
  S   S97       1.0  0.47917  0.97189  0.53002  1.0000
  Fe  Fe47      1.0  0.46978  0.93063  0.52691  1.0000
  H   H296      1.0  0.21704  0.68306  0.68398  1.0000
  H   H297      1.0  0.18263  0.73517  0.70543  1.0000
  S   S98       1.0  0.42706  0.93617  0.53664  1.0000
  S   S99       1.0  0.44459  0.97187  0.58553  1.0000
  Fe  Fe48      1.0  0.30789  0.77939  0.72073  1.0000
  S   S100      1.0  0.31481  0.76714  0.67896  1.0000
  S   S101      1.0  0.33162  0.76195  0.75231  1.0000
  Fe  Fe49      1.0  0.25854  0.80929  0.70953  1.0000
  S   S102      1.0  0.26219  0.80003  0.66723  1.0000
  S   S103      1.0  0.22276  0.82872  0.72800  1.0000
  Fe  Fe50      1.0  0.27181  0.76012  0.68034  1.0000
  S   S104      1.0  0.24574  0.72777  0.66987  1.0000
  Fe  Fe51      1.0  0.30486  0.80855  0.66962  1.0000
  S   S105      1.0  0.32095  0.83278  0.63522  1.0000
  S   S106      1.0  0.26612  0.76926  0.72250  1.0000
  S   S107      1.0  0.30028  0.82101  0.71161  1.0000
  Fe  Fe52      1.0  0.03320  0.79682  0.75221  1.0000
  S   S108      1.0  0.07482  0.79664  0.76327  1.0000
  S   S109      1.0  0.00770  0.83255  0.76348  1.0000
  Fe  Fe53      1.0  0.03648  0.73781  0.73663  1.0000
  S   S110      1.0  0.07799  0.73527  0.74816  1.0000
  C   C292      1.0  0.09645  0.83876  0.84573  1.0000
  Fe  Fe54      1.0  0.06543  0.75936  0.78242  1.0000
  S   S111      1.0  0.08200  0.75386  0.82164  1.0000
  Fe  Fe55      1.0  0.08345  0.77278  0.72782  1.0000
  S   S112      1.0  0.11915  0.77319  0.70072  1.0000
  S   S113      1.0  0.02331  0.75958  0.77309  1.0000
  S   S114      1.0  0.04245  0.77516  0.71452  1.0000
  Fe  Fe56      1.0  0.03644  0.81948  0.94306  1.0000
  H   H298      1.0  0.37224  0.89363  0.58177  1.0000
  S   S115      1.0  0.02366  0.82751  0.90275  1.0000
  S   S116      1.0  0.07230  0.83454  0.96012  1.0000
  Fe  Fe57      1.0  0.33346  0.74041  0.94758  1.0000
  S   S117      1.0  0.33173  0.72788  0.90587  1.0000
  S   S118      1.0  0.02297  0.70225  0.71408  1.0000
  Fe  Fe58      1.0  0.27257  0.74763  0.95324  1.0000
  S   S119      1.0  0.26747  0.73472  0.91245  1.0000
  H   H299      1.0  0.03718  0.70260  0.93987  1.0000
  Fe  Fe59      1.0  0.29778  0.70468  0.92026  1.0000
  H   H300      1.0  0.02397  0.89045  0.82307  1.0000
  Fe  Fe60      1.0  0.30151  0.75918  0.90172  1.0000
  S   S120      1.0  0.29390  0.78669  0.86875  1.0000
  S   S121      1.0  0.30070  0.71540  0.96220  1.0000
  S   S122      1.0  0.30553  0.77393  0.94242  1.0000
  C   C293      1.0  0.40336  0.73079  0.96838  1.0000
  H   H301      1.0  0.04892  0.87397  0.87700  1.0000
  C   C294      1.0  0.99360  0.90849  0.78024  1.0000
  C   C295      1.0  0.45697  0.71533  0.96434  1.0000
  C   C296      1.0  0.44110  0.71439  0.94273  1.0000
  C   C297      1.0  0.41452  0.72189  0.94472  1.0000
  H   H302      1.0  0.44946  0.70792  0.92422  1.0000
  H   H303      1.0  0.40285  0.72124  0.92781  1.0000
  C   C298      1.0  0.02430  0.71769  0.93323  1.0000
  H   H304      1.0  0.28867  0.66455  0.96052  1.0000
  H   H305      1.0  0.44218  0.87859  0.50535  1.0000
  H   H306      1.0  0.20565  0.71944  0.72618  1.0000
  C   C299      1.0  0.41039  0.85105  0.55724  1.0000
  C   C300      1.0  0.06561  0.77400  0.84435  1.0000
  C   C301      1.0  0.07474  0.77634  0.86941  1.0000
  C   C302      1.0  0.06201  0.79288  0.88742  1.0000
  C   C303      1.0  0.03987  0.80679  0.88052  1.0000
  C   C304      1.0  0.03064  0.80430  0.85555  1.0000
  C   C305      1.0  0.04362  0.78812  0.83744  1.0000
  H   H307      1.0  0.09184  0.76558  0.87483  1.0000
  H   H308      1.0  0.06962  0.79508  0.90649  1.0000
  Fe  Fe61      1.0  0.07911  0.79386  0.97346  1.0000
  H   H309      1.0  0.03658  0.78670  0.81809  1.0000
  C   C306      1.0  0.08536  0.83677  0.82162  1.0000
  H   H310      1.0  0.01069  0.85863  0.82239  1.0000
  C   C307      1.0  0.15850  0.76934  0.78920  1.0000
  C   C308      1.0  0.11004  0.70883  0.68116  1.0000
  C   C309      1.0  0.00351  0.72645  0.94930  1.0000
  N   N25       1.0  0.35871  0.66302  0.97460  1.0000
  C   C310      1.0  0.01125  0.86666  0.76503  1.0000
  C   C311      1.0  0.03298  0.87922  0.75433  1.0000
  C   C312      1.0  0.03459  0.90621  0.75594  1.0000
  C   C313      1.0  0.01498  0.92114  0.76893  1.0000
  H   H311      1.0  0.09158  0.85385  0.88463  1.0000
  S   S123      1.0  0.49072  0.70632  0.96025  1.0000
  H   H312      1.0  0.16044  0.75280  0.92795  1.0000
  C   C314      1.0  0.18430  0.77515  0.78279  1.0000
  S   S124      1.0  0.04377  0.77886  0.95446  1.0000
  H   H313      1.0  0.28355  0.69159  0.80518  1.0000
  C   C315      1.0  0.32050  0.76841  0.78458  1.0000
  C   C316      1.0  0.33072  0.75425  0.80512  1.0000
  C   C317      1.0  0.32223  0.75919  0.83100  1.0000
  C   C318      1.0  0.30384  0.77869  0.83650  1.0000
  C   C319      1.0  0.29351  0.79269  0.81591  1.0000
  C   C320      1.0  0.30157  0.78739  0.79002  1.0000
  H   H314      1.0  0.34545  0.73961  0.80105  1.0000
  H   H315      1.0  0.33043  0.74843  0.84674  1.0000
  H   H316      1.0  0.27935  0.80785  0.82004  1.0000
  H   H317      1.0  0.29360  0.79841  0.77433  1.0000
  C   C321      1.0  0.19324  0.81510  0.71946  1.0000
  C   C322      1.0  0.19236  0.79948  0.69758  1.0000
  C   C323      1.0  0.16919  0.78767  0.69158  1.0000
  C   C324      1.0  0.14678  0.79085  0.70772  1.0000
  C   C325      1.0  0.14742  0.80677  0.72948  1.0000
  C   C326      1.0  0.17056  0.81911  0.73515  1.0000
  H   H318      1.0  0.20954  0.79628  0.68524  1.0000
  H   H319      1.0  0.16883  0.77555  0.67461  1.0000
  H   H320      1.0  0.13019  0.80948  0.74195  1.0000
  H   H321      1.0  0.17103  0.83130  0.75205  1.0000
  C   C327      1.0  0.25590  0.69592  0.67525  1.0000
  H   H322      1.0  0.15714  0.82258  0.95379  1.0000
  Fe  Fe62      1.0  0.48591  0.96370  0.57177  1.0000
  H   H323      1.0  0.20757  0.74767  0.93560  1.0000
  H   H324      1.0  0.21157  0.75078  0.71296  1.0000
  C   C328      1.0  0.39085  0.88560  0.61753  1.0000
  C   C329      1.0  0.38871  0.87203  0.64122  1.0000
  C   C330      1.0  0.36751  0.85595  0.64710  1.0000
  C   C331      1.0  0.34804  0.85315  0.62929  1.0000
  C   C332      1.0  0.34993  0.86706  0.60579  1.0000
  C   C333      1.0  0.37107  0.88325  0.59998  1.0000
  H   H325      1.0  0.40384  0.87366  0.65502  1.0000
  H   H326      1.0  0.36642  0.84551  0.66527  1.0000
  H   H327      1.0  0.33493  0.86524  0.59190  1.0000
  H   H328      1.0  0.04504  0.72245  0.89622  1.0000
  C   C334      1.0  0.16778  0.75881  0.94627  1.0000
  C   C335      1.0  0.23730  0.67745  0.68177  1.0000
  H   H329      1.0  0.14692  0.73177  0.73768  1.0000
  H   H330      1.0  0.40619  0.83211  0.60369  1.0000
  C   C336      1.0  0.42708  0.83497  0.59843  1.0000
  N   N26       1.0  0.30939  0.68582  0.74387  1.0000
  H   H331      1.0  0.01351  0.81498  0.85011  1.0000
  H   H332      1.0  0.05214  0.84599  0.79930  1.0000
  H   H333      1.0  0.29633  0.70256  0.66634  1.0000
  C   C337      1.0  0.24507  0.80751  0.92360  1.0000
  H   H334      1.0  0.30928  0.71697  0.71741  1.0000
  H   H335      1.0  0.10694  0.70483  0.66038  1.0000
  N   N27       1.0  0.18302  0.74940  0.74429  1.0000
  S   S125      1.0  0.11698  0.77367  0.95810  1.0000
  N   N28       1.0  0.26441  0.87532  0.67697  1.0000
  C   C338      1.0  0.26306  0.87936  0.70324  1.0000
  C   C339      1.0  0.28655  0.88081  0.66260  1.0000
  C   C340      1.0  0.28466  0.88797  0.71595  1.0000
  C   C341      1.0  0.30848  0.88956  0.67464  1.0000
  C   C342      1.0  0.30757  0.89292  0.70152  1.0000
  C   C343      1.0  0.24162  0.86623  0.66396  1.0000
  H   H336      1.0  0.24532  0.87559  0.71459  1.0000
  H   H337      1.0  0.28762  0.87785  0.64172  1.0000
  H   H338      1.0  0.28371  0.89043  0.73689  1.0000
  H   H339      1.0  0.32618  0.89328  0.66319  1.0000
  H   H340      1.0  0.32462  0.89924  0.71112  1.0000
  H   H341      1.0  0.22947  0.88274  0.65781  1.0000
  H   H342      1.0  0.24753  0.85449  0.64662  1.0000
  H   H343      1.0  0.22963  0.85377  0.67708  1.0000
  H   H344      1.0  0.14876  0.77717  0.80661  1.0000
  C   C344      1.0  0.28942  0.66268  0.67480  1.0000
  H   H345      1.0  0.01116  0.87531  0.85251  1.0000
  S   S126      1.0  0.01022  0.82819  0.97775  1.0000
  H   H346      1.0  0.21630  0.76978  0.75518  1.0000
  C   C345      1.0  0.08347  0.85261  0.86561  1.0000
  C   C346      1.0  0.44570  0.72387  0.98808  1.0000
  H   H347      1.0  0.05119  0.91561  0.74693  1.0000
  C   C347      1.0  0.17412  0.83291  0.96085  1.0000
  C   C348      1.0  0.02873  0.72882  0.90879  1.0000
  C   C349      1.0  0.15771  0.74360  0.75046  1.0000
  H   H348      1.0  0.04828  0.86823  0.74425  1.0000
  H   H349      1.0  0.07738  0.89023  0.98368  1.0000
  H   H350      1.0  0.09878  0.93215  0.97721  1.0000
  C   C350      1.0  0.08824  0.67369  0.70407  1.0000
  C   C351      1.0  0.19637  0.76483  0.76020  1.0000
  C   C352      1.0  0.05926  0.86393  0.86117  1.0000
  H   H351      1.0  0.22207  0.79763  0.89148  1.0000
  H   H352      1.0  0.09519  0.82587  0.80614  1.0000
  C   C353      1.0  0.15043  0.76954  0.96535  1.0000
  N   N29       1.0  0.11095  0.68484  0.69597  1.0000
  H   H353      1.0  0.15230  0.68142  0.69332  1.0000
  S   S127      1.0  0.29437  0.66491  0.90420  1.0000
  C   C354      1.0  0.02222  0.87203  0.83376  1.0000
  S   S128      1.0  0.48930  0.90793  0.49397  1.0000
  H   H354      1.0  0.12496  0.74907  0.77780  1.0000
  H   H355      1.0  0.36175  0.69416  0.94790  1.0000
  H   H356      1.0  0.39778  0.86587  0.52051  1.0000
  H   H357      1.0  0.34004  0.71020  0.73158  1.0000
  H   H358      1.0  0.35931  0.66703  0.90899  1.0000
  C   C355      1.0  0.13428  0.67305  0.70046  1.0000
  H   H359      1.0  0.47136  0.85210  0.57758  1.0000
  N   N30       1.0  0.19850  0.82337  0.94828  1.0000
  C   C356      1.0  0.19861  0.81383  0.92355  1.0000
  C   C357      1.0  0.22120  0.82524  0.96088  1.0000
  C   C358      1.0  0.22188  0.80565  0.91089  1.0000
  C   C359      1.0  0.24480  0.81732  0.94875  1.0000
  H   H360      1.0  0.03509  0.97509  0.95455  1.0000
  H   H361      1.0  0.19488  0.78780  0.79498  1.0000
  H   H362      1.0  0.39100  0.84547  0.56367  1.0000
  H   H363      1.0  0.22113  0.83231  0.98065  1.0000
  N   N31       1.0  0.43085  0.84734  0.57299  1.0000
  C   C360      1.0  0.14509  0.75348  0.77299  1.0000
  Fe  Fe63      1.0  0.43755  0.97749  0.54313  1.0000
  H   H364      1.0  0.43722  0.81605  0.59845  1.0000
  H   H365      1.0  0.32891  0.68995  0.70641  1.0000
  S   S129      1.0  0.01752  0.95541  0.76914  1.0000
  C   C361      1.0  0.01864  0.97829  0.96812  1.0000
  C   C362      1.0  0.00465  0.65871  0.74124  1.0000
  H   H366      1.0  0.06986  0.68263  0.69974  1.0000
  H   H367      1.0  0.09390  0.72161  0.68877  1.0000
  H   H368      1.0  0.26266  0.81800  0.95909  1.0000
  H   H369      1.0  0.12817  0.71978  0.68261  1.0000
  H   H370      1.0  0.18058  0.81201  0.91372  1.0000
  H   H371      1.0  0.26320  0.80107  0.91407  1.0000
  C   C363      1.0  0.32256  0.70137  0.72377  1.0000
  C   C364      1.0  0.19630  0.73802  0.72120  1.0000
  C   C365      1.0  0.28201  0.68851  0.67197  1.0000
  H   H372      1.0  0.00012  0.71840  0.96861  1.0000
  N   N32       1.0  0.04808  0.86105  0.83777  1.0000
  H   H373      1.0  0.30586  0.71688  0.77059  1.0000
  C   C366      1.0  0.45970  0.86555  0.54037  1.0000
  C   C367      1.0  0.01235  0.74874  0.90086  1.0000
  C   C368      1.0  0.19458  0.75584  0.95055  1.0000
  S   S130      1.0  0.23832  0.76109  0.98029  1.0000
  C   C369      1.0  0.30189  0.69692  0.76709  1.0000
  H   H374      1.0  0.11485  0.82922  0.84915  1.0000
  C   C370      1.0  0.06102  0.84818  0.81790  1.0000
  C   C371      1.0  0.01575  0.66880  0.71819  1.0000
  C   C372      1.0  0.20448  0.76344  0.97414  1.0000
  C   C373      1.0  0.45524  0.85459  0.56492  1.0000
  C   C374      1.0  0.16029  0.77701  0.98900  1.0000
  H   H375      1.0  0.01613  0.75738  0.88195  1.0000
  H   H376      1.0  0.43487  0.84722  0.61379  1.0000
  C   C375      1.0  0.43896  0.86962  0.52426  1.0000
  C   C376      1.0  0.28914  0.68271  0.78668  1.0000
  C   C377      1.0  0.41409  0.86246  0.53276  1.0000
  H   H377      1.0  0.17152  0.85366  0.95690  1.0000
  H   H378      1.0  0.02851  0.65945  0.67888  1.0000
  H   H379      1.0  0.17402  0.82981  0.98223  1.0000
  Fe  Fe64      1.0  0.01974  0.78847  0.99067  1.0000
  H   H380      1.0  0.47909  0.87126  0.53402  1.0000
  C   C378      1.0  0.36010  0.67367  0.95030  1.0000
  C   C379      1.0  0.01622  0.96384  0.99099  1.0000
  C   C380      1.0  0.41920  0.73160  0.99001  1.0000
  C   C381      1.0  0.30439  0.66062  0.73943  1.0000
  H   H381      1.0  0.00084  0.67114  0.75778  1.0000
  Fe  Fe65      1.0  0.00003  0.98945  0.79319  1.0000
  C   C382      1.0  0.35908  0.65836  0.92818  1.0000
  C   C383      1.0  0.65743  0.13477  0.48485  1.0000
  H   H382      1.0  0.72590  0.16914  0.48093  1.0000
  C   C384      1.0  0.94561  0.00193  0.07341  1.0000
  C   C385      1.0  0.79689  0.99340  0.16451  1.0000
  S   S131      1.0  0.81691  0.02114  0.03182  1.0000
  S   S132      1.0  0.89231  0.02984  0.02385  1.0000
  H   H383      1.0  0.75730  0.02649  0.23520  1.0000
  H   H384      1.0  0.69896  0.13350  0.48022  1.0000
  C   C386      1.0  0.73420  0.04242  0.29594  1.0000
  C   C387      1.0  0.50925  0.20925  0.37308  1.0000
  H   H385      1.0  0.78850  0.99744  0.32835  1.0000
  H   H386      1.0  0.75392  0.03402  0.33094  1.0000
  H   H387      1.0  0.71276  0.01453  0.43104  1.0000
  C   C388      1.0  0.58069  0.00264  0.30276  1.0000
  H   H388      1.0  0.80969  0.00619  0.17400  1.0000
  H   H389      1.0  0.80729  0.02572  0.32154  1.0000
  H   H390      1.0  0.71899  0.04739  0.25786  1.0000
  H   H391      1.0  0.52381  0.19396  0.37234  1.0000
  C   C389      1.0  0.49437  0.29501  0.22915  1.0000
  S   S133      1.0  0.97455  0.32027  0.47441  1.0000
  N   N33       1.0  0.77558  0.02058  0.29732  1.0000
  C   C390      1.0  0.71033  0.18263  0.48822  1.0000
  C   C391      1.0  0.73504  0.04023  0.26893  1.0000
  C   C392      1.0  0.92071  0.02454  0.04117  1.0000
  C   C393      1.0  0.94226  0.03983  0.03533  1.0000
  C   C394      1.0  0.96548  0.03603  0.04823  1.0000
  C   C395      1.0  0.96721  0.01716  0.06742  1.0000
  H   H392      1.0  0.50581  0.20965  0.41494  1.0000
  H   H393      1.0  0.98198  0.04787  0.04347  1.0000
  H   H394      1.0  0.94104  0.05470  0.02075  1.0000
  H   H395      1.0  0.50745  0.21228  0.33164  1.0000
  H   H396      1.0  0.56457  0.99740  0.31671  1.0000
  H   H397      1.0  0.65556  0.11429  0.48228  1.0000
  C   C396      1.0  0.72224  0.00001  0.39225  1.0000
  C   C397      1.0  0.49971  0.21953  0.35016  1.0000
  C   C398      1.0  0.75492  0.03271  0.30987  1.0000
  H   H398      1.0  0.71115  0.20020  0.47602  1.0000
  H   H399      1.0  0.59899  0.99618  0.31168  1.0000
  H   H400      1.0  0.50425  0.07592  0.31157  1.0000
  H   H401      1.0  0.81060  0.99811  0.30060  1.0000
  H   H402      1.0  0.71744  0.05112  0.30616  1.0000
  C   C399      1.0  0.68196  0.14578  0.48369  1.0000
  C   C400      1.0  0.77672  0.01864  0.27079  1.0000
  C   C401      1.0  0.63547  0.15015  0.49040  1.0000
  H   H403      1.0  0.71513  0.01705  0.38273  1.0000
  C   C402      1.0  0.79662  0.01000  0.31262  1.0000
  Fe  Fe66      1.0  0.85735  0.00419  0.02671  1.0000
  C   C403      1.0  0.55461  0.99439  0.26533  1.0000
  C   C404      1.0  0.75651  0.02847  0.25621  1.0000
  C   C405      1.0  0.92246  0.00545  0.06016  1.0000
  C   C406      1.0  0.72080  0.99863  0.41976  1.0000
  H   H404      1.0  0.58094  0.02374  0.30038  1.0000
  H   H405      1.0  0.50804  0.28574  0.21549  1.0000
  H   H406      1.0  0.79308  0.00909  0.26068  1.0000
  C   C407      1.0  0.79764  0.99229  0.13700  1.0000
  H   H407      1.0  0.90591  0.99363  0.06483  1.0000
  H   H408      1.0  0.53937  0.00662  0.27398  1.0000
  N   N34       1.0  0.68452  0.17141  0.48799  1.0000
  H   H409      1.0  0.61636  0.14178  0.49180  1.0000
  H   H410      1.0  0.50741  0.02856  0.30711  1.0000
  H   H411      1.0  0.81084  0.00419  0.12568  1.0000
  C   C408      1.0  0.49914  0.21808  0.39703  1.0000
  C   C409      1.0  0.49554  0.03961  0.29420  1.0000
  H   H412      1.0  0.50755  0.03267  0.49209  1.0000
  Fe  Fe67      1.0  0.80914  0.00107  0.99403  1.0000
  C   C410      1.0  0.49359  0.06657  0.29678  1.0000
  Fe  Fe68      1.0  0.69835  0.30670  0.77339  1.0000
  S   S134      1.0  0.66380  0.29620  0.79945  1.0000
  H   H413      1.0  0.73880  0.12421  0.86257  1.0000
  Fe  Fe69      1.0  0.73729  0.29368  0.81399  1.0000
  S   S135      1.0  0.70628  0.28162  0.84306  1.0000
  S   S136      1.0  0.77947  0.28955  0.82360  1.0000
  Fe  Fe70      1.0  0.68886  0.26213  0.80955  1.0000
  S   S137      1.0  0.67407  0.22176  0.81052  1.0000
  C   C411      1.0  0.97567  0.26690  0.64350  1.0000
  S   S138      1.0  0.72162  0.27129  0.78152  1.0000
  Fe  Fe71      1.0  0.76524  0.09866  0.78674  1.0000
  S   S139      1.0  0.73641  0.06687  0.78915  1.0000
  S   S140      1.0  0.76590  0.13932  0.80163  1.0000
  Fe  Fe72      1.0  0.80793  0.06332  0.76514  1.0000
  C   C412      1.0  0.50539  0.03981  0.54864  1.0000
  S   S141      1.0  0.85046  0.06522  0.75465  1.0000
  Fe  Fe73      1.0  0.75283  0.05547  0.74883  1.0000
  C   C413      1.0  0.74557  0.19572  0.73567  1.0000
  Fe  Fe74      1.0  0.76896  0.04279  0.80551  1.0000
  C   C414      1.0  0.66486  0.27401  0.90702  1.0000
  S   S142      1.0  0.77939  0.08919  0.74605  1.0000
  S   S143      1.0  0.79620  0.07532  0.80556  1.0000
  Fe  Fe75      1.0  0.95549  0.01361  0.82611  1.0000
  H   H414      1.0  0.86637  0.04367  0.97590  1.0000
  C   C415      1.0  0.96969  0.16191  0.75641  1.0000
  H   H415      1.0  0.83258  0.27178  0.82005  1.0000
  C   C416      1.0  0.61090  0.24381  0.51162  1.0000
  H   H416      1.0  0.84351  0.01232  0.89562  1.0000
  C   C417      1.0  0.98222  0.26269  0.61720  1.0000
  Fe  Fe76      1.0  0.94960  0.29617  0.74300  1.0000
  C   C418      1.0  0.58582  0.23316  0.51290  1.0000
  C   C419      1.0  0.61926  0.23928  0.62163  1.0000
  Fe  Fe77      1.0  0.90012  0.26705  0.73306  1.0000
  S   S144      1.0  0.92159  0.27378  0.76929  1.0000
  H   H417      1.0  0.91741  0.01536  0.70531  1.0000
  Fe  Fe78      1.0  0.94974  0.25471  0.70197  1.0000
  C   C420      1.0  0.74158  0.10444  0.85495  1.0000
  Fe  Fe79      1.0  0.71443  0.00577  0.56316  1.0000
  Fe  Fe80      1.0  0.94460  0.23749  0.75800  1.0000
  C   C421      1.0  0.95945  0.17054  0.78053  1.0000
  S   S145      1.0  0.92097  0.23011  0.72344  1.0000
  Fe  Fe81      1.0  0.72250  0.23808  0.60241  1.0000
  S   S146      1.0  0.71873  0.27231  0.57616  1.0000
  S   S147      1.0  0.71234  0.23274  0.64541  1.0000
  Fe  Fe82      1.0  0.73877  0.20346  0.55708  1.0000
  S   S148      1.0  0.73648  0.23521  0.52775  1.0000
  S   S149      1.0  0.75184  0.16383  0.54455  1.0000
  Fe  Fe83      1.0  0.75732  0.25847  0.55709  1.0000
  S   S150      1.0  0.79192  0.28590  0.55057  1.0000
  Fe  Fe84      1.0  0.69846  0.24541  0.54942  1.0000
  S   S151      1.0  0.66035  0.25268  0.52825  1.0000
  S   S152      1.0  0.76150  0.22570  0.58514  1.0000
  S   S153      1.0  0.70024  0.21242  0.57694  1.0000
  Fe  Fe85      1.0  0.68227  0.04013  0.52959  1.0000
  S   S154      1.0  0.72456  0.02859  0.52691  1.0000
  S   S155      1.0  0.66701  0.08072  0.52820  1.0000
  S   S156      1.0  0.67282  0.01890  0.56674  1.0000
  S   S157      1.0  0.97642  0.04922  0.83621  1.0000
  C   C422      1.0  0.72781  0.14134  0.53942  1.0000
  C   C423      1.0  0.73506  0.11785  0.52805  1.0000
  C   C424      1.0  0.71649  0.09909  0.52467  1.0000
  C   C425      1.0  0.69060  0.10375  0.53265  1.0000
  C   C426      1.0  0.68324  0.12738  0.54368  1.0000
  C   C427      1.0  0.70183  0.14612  0.54712  1.0000
  H   H418      1.0  0.79113  0.25961  0.68838  1.0000
  S   S158      1.0  0.98326  0.28733  0.52726  1.0000
  H   H419      1.0  0.66313  0.13116  0.54962  1.0000
  H   H420      1.0  0.69599  0.16413  0.55582  1.0000
  C   C428      1.0  0.87853  0.28290  0.51942  1.0000
  H   H421      1.0  0.60911  0.22453  0.63262  1.0000
  C   C429      1.0  0.83625  0.26193  0.52646  1.0000
  C   C430      1.0  0.82545  0.28367  0.53898  1.0000
  C   C431      1.0  0.84166  0.30485  0.54195  1.0000
  C   C432      1.0  0.86793  0.30444  0.53247  1.0000
  N   N35       1.0  0.62005  0.27067  0.58738  1.0000
  H   H422      1.0  0.82429  0.24547  0.52382  1.0000
  H   H423      1.0  0.80140  0.05946  0.91648  1.0000
  H   H424      1.0  0.87391  0.00107  0.88132  1.0000
  C   C433      1.0  0.75665  0.01589  0.64762  1.0000
  H   H425      1.0  0.80415  0.28794  0.73067  1.0000
  H   H426      1.0  0.93808  0.04137  0.92999  1.0000
  H   H427      1.0  0.60470  0.30785  0.87301  1.0000
  C   C434      1.0  0.76980  0.25757  0.68732  1.0000
  C   C435      1.0  0.71367  0.03174  0.63875  1.0000
  C   C436      1.0  0.86414  0.03157  0.93599  1.0000
  Fe  Fe86      1.0  0.94863  0.30550  0.50801  1.0000
  H   H428      1.0  0.92272  0.29326  0.55781  1.0000
  H   H429      1.0  0.74989  0.22186  0.76735  1.0000
  C   C437      1.0  0.97780  0.13603  0.75306  1.0000
  C   C438      1.0  0.75910  0.23937  0.73016  1.0000
  C   C439      1.0  0.75145  0.21919  0.74647  1.0000
  H   H430      1.0  0.99209  0.28011  0.58032  1.0000
  H   H431      1.0  0.76202  0.10197  0.84752  1.0000
  C   C440      1.0  0.73649  0.01877  0.63018  1.0000
  C   C441      1.0  0.77750  0.01776  0.87301  1.0000
  H   H432      1.0  0.61128  0.00252  0.57074  1.0000
  H   H433      1.0  0.74406  0.07410  0.93909  1.0000
  C   C442      1.0  0.74227  0.08962  0.90013  1.0000
  C   C443      1.0  0.97970  0.00196  0.98144  1.0000
  S   S159      1.0  0.91140  0.28148  0.50587  1.0000
  H   H434      1.0  0.97085  0.29505  0.67383  1.0000
  C   C444      1.0  0.86717  0.05156  0.78020  1.0000
  C   C445      1.0  0.85464  0.03496  0.79784  1.0000
  C   C446      1.0  0.86877  0.02244  0.81697  1.0000
  C   C447      1.0  0.89531  0.02685  0.81862  1.0000
  C   C448      1.0  0.90740  0.04450  0.80188  1.0000
  C   C449      1.0  0.89350  0.05649  0.78240  1.0000
  H   H435      1.0  0.83430  0.03093  0.79611  1.0000
  S   S160      1.0  0.74045  0.00480  0.59847  1.0000
  H   H436      1.0  0.69784  0.03400  0.62579  1.0000
  C   C450      1.0  0.73805  0.07102  0.91941  1.0000
  H   H437      1.0  0.51754  0.04016  0.58820  1.0000
  C   C451      1.0  0.67286  0.25030  0.89686  1.0000
  H   H438      1.0  0.89219  0.02453  0.72871  1.0000
  C   C452      1.0  0.62960  0.23709  0.52978  1.0000
  C   C453      1.0  0.62287  0.21916  0.54906  1.0000
  C   C454      1.0  0.59761  0.20895  0.55067  1.0000
  H   H439      1.0  0.71353  0.02503  0.88161  1.0000
  C   C455      1.0  0.97524  0.29177  0.65343  1.0000
  H   H440      1.0  0.63690  0.21362  0.56316  1.0000
  H   H441      1.0  0.59256  0.19556  0.56606  1.0000
  C   C456      1.0  0.70114  0.29543  0.70727  1.0000
  C   C457      1.0  0.69752  0.26969  0.71358  1.0000
  C   C458      1.0  0.70042  0.25086  0.69422  1.0000
  C   C459      1.0  0.70732  0.25750  0.66845  1.0000
  C   C460      1.0  0.71088  0.28323  0.66201  1.0000
  C   C461      1.0  0.70762  0.30215  0.68137  1.0000
  H   H442      1.0  0.69208  0.26430  0.73334  1.0000
  H   H443      1.0  0.69747  0.23101  0.69936  1.0000
  H   H444      1.0  0.71643  0.28858  0.64226  1.0000
  N   N36       1.0  0.87750  0.02659  0.91296  1.0000
  C   C462      1.0  0.80084  0.28374  0.79669  1.0000
  C   C463      1.0  0.79288  0.28822  0.77146  1.0000
  H   H445      1.0  0.75989  0.27571  0.69377  1.0000
  C   C464      1.0  0.83584  0.27568  0.75395  1.0000
  C   C465      1.0  0.81031  0.28408  0.75014  1.0000
  S   S161      1.0  0.98720  0.08590  0.76827  1.0000
  C   C466      1.0  0.69930  0.19852  0.80799  1.0000
  C   C467      1.0  0.72461  0.20497  0.81355  1.0000
  C   C468      1.0  0.74467  0.18647  0.81160  1.0000
  C   C469      1.0  0.73969  0.16143  0.80387  1.0000
  C   C470      1.0  0.71438  0.15484  0.79828  1.0000
  C   C471      1.0  0.69416  0.17337  0.80052  1.0000
  H   H446      1.0  0.72874  0.22423  0.81956  1.0000
  H   H447      1.0  0.76419  0.19167  0.81608  1.0000
  H   H448      1.0  0.71037  0.13557  0.79226  1.0000
  H   H449      1.0  0.67458  0.16829  0.79620  1.0000
  C   C472      1.0  0.64301  0.25627  0.86244  1.0000
  H   H450      1.0  0.96271  0.11328  0.81355  1.0000
  C   C473      1.0  0.92188  0.27957  0.57366  1.0000
  C   C474      1.0  0.51465  0.05140  0.57075  1.0000
  C   C475      1.0  0.86374  0.01800  0.89034  1.0000
  C   C476      1.0  0.64459  0.24537  0.62740  1.0000
  C   C477      1.0  0.86243  0.26165  0.51668  1.0000
  C   C478      1.0  0.61624  0.29538  0.85919  1.0000
  H   H451      1.0  0.84342  0.02883  0.93792  1.0000
  C   C479      1.0  0.90380  0.04342  0.95553  1.0000
  H   H452      1.0  0.59761  0.30262  0.57530  1.0000
  H   H453      1.0  0.76502  0.25472  0.66668  1.0000
  S   S162      1.0  0.91401  0.00859  0.83965  1.0000
  H   H454      1.0  0.94894  0.15889  0.81972  1.0000
  H   H455      1.0  0.52620  0.08688  0.58751  1.0000
  H   H456      1.0  0.64009  0.30703  0.90235  1.0000
  N   N37       1.0  0.72669  0.09410  0.59209  1.0000
  C   C480      1.0  0.73535  0.07055  0.58368  1.0000
  C   C481      1.0  0.74340  0.11408  0.59271  1.0000
  C   C482      1.0  0.76122  0.06657  0.57514  1.0000
  C   C483      1.0  0.76933  0.11090  0.58394  1.0000
  C   C484      1.0  0.77825  0.08696  0.57512  1.0000
  C   C485      1.0  0.69959  0.09748  0.60142  1.0000
  H   H457      1.0  0.72217  0.05469  0.58340  1.0000
  H   H458      1.0  0.73658  0.13289  0.59908  1.0000
  H   H459      1.0  0.76791  0.04776  0.56855  1.0000
  H   H460      1.0  0.78217  0.12711  0.58339  1.0000
  H   H461      1.0  0.79826  0.08425  0.56812  1.0000
  H   H462      1.0  0.68650  0.08681  0.58888  1.0000
  H   H463      1.0  0.69724  0.09034  0.62172  1.0000
  H   H464      1.0  0.69324  0.11791  0.60075  1.0000
  H   H465      1.0  0.76966  0.02272  0.68647  1.0000
  Fe  Fe87      1.0  0.68385  0.31702  0.83114  1.0000
  C   C486      1.0  0.97560  0.11818  0.77358  1.0000
  S   S163      1.0  0.94942  0.20325  0.78617  1.0000
  Fe  Fe88      1.0  0.50859  0.19484  0.51602  1.0000
  C   C487      1.0  0.64489  0.27675  0.59292  1.0000
  C   C488      1.0  0.91950  0.24421  0.61384  1.0000
  H   H466      1.0  0.56661  0.01258  0.58850  1.0000
  H   H467      1.0  0.87017  0.24484  0.50663  1.0000
  H   H468      1.0  0.63530  0.24951  0.84447  1.0000
  H   H469      1.0  0.68805  0.23922  0.90588  1.0000
  S   S164      1.0  0.97496  0.26059  0.73574  1.0000
  C   C489      1.0  0.65745  0.26430  0.61308  1.0000
  C   C490      1.0  0.91303  0.01857  0.72637  1.0000
  S   S165      1.0  0.92642  0.29106  0.70770  1.0000
  C   C491      1.0  0.66178  0.24126  0.87452  1.0000
  N   N38       1.0  0.92010  0.28777  0.59886  1.0000
  H   H470      1.0  0.96563  0.01724  0.97837  1.0000
  H   H471      1.0  0.72873  0.10278  0.83827  1.0000
  N   N39       1.0  0.88267  0.14640  0.76497  1.0000
  C   C492      1.0  0.88893  0.17172  0.76480  1.0000
  C   C493      1.0  0.85797  0.13911  0.77192  1.0000
  C   C494      1.0  0.87009  0.19057  0.77117  1.0000
  C   C495      1.0  0.83864  0.15746  0.77843  1.0000
  C   C496      1.0  0.84478  0.18335  0.77800  1.0000
  C   C497      1.0  0.90274  0.12681  0.75888  1.0000
  H   H472      1.0  0.90859  0.17754  0.75970  1.0000
  H   H473      1.0  0.85308  0.11899  0.77243  1.0000
  H   H474      1.0  0.87519  0.21064  0.77089  1.0000
  H   H475      1.0  0.81904  0.15158  0.78386  1.0000
  H   H476      1.0  0.82999  0.19779  0.78306  1.0000
  H   H477      1.0  0.91067  0.11920  0.77716  1.0000
  H   H478      1.0  0.89461  0.11078  0.74787  1.0000
  H   H479      1.0  0.91907  0.13466  0.74670  1.0000
  N   N40       1.0  0.73567  0.08527  0.87509  1.0000
  C   C498      1.0  0.72531  0.06244  0.86846  1.0000
  C   C499      1.0  0.72074  0.04347  0.88724  1.0000
  H   H480      1.0  0.72134  0.05835  0.84839  1.0000
  C   C500      1.0  0.92280  0.25344  0.56792  1.0000
  H   H481      1.0  0.79111  0.05629  0.86982  1.0000
  H   H482      1.0  0.51875  0.11210  0.54743  1.0000
  H   H483      1.0  0.75136  0.10733  0.90521  1.0000
  H   H484      1.0  0.65435  0.23549  0.64293  1.0000
  H   H485      1.0  0.77442  0.00592  0.64134  1.0000
  C   C501      1.0  0.73109  0.03802  0.68208  1.0000
  H   H486      1.0  0.92761  0.04881  0.80371  1.0000
  C   C502      1.0  0.78053  0.99836  0.91647  1.0000
  C   C503      1.0  0.72726  0.04779  0.91285  1.0000
  H   H487      1.0  0.91721  0.27689  0.63890  1.0000
  C   C504      1.0  0.84388  0.27116  0.77917  1.0000
  H   H488      1.0  0.74293  0.17451  0.70009  1.0000
  S   S166      1.0  0.96591  0.01483  0.78332  1.0000
  C   C505      1.0  0.82636  0.27519  0.80052  1.0000
  S   S167      1.0  0.78285  0.02867  0.76556  1.0000
  S   S168      1.0  0.72559  0.04834  0.71508  1.0000
  C   C506      1.0  0.74765  0.19262  0.70874  1.0000
  N   N41       1.0  0.76103  0.23623  0.70380  1.0000
  H   H489      1.0  0.77341  0.29540  0.76843  1.0000
  H   H490      1.0  0.86357  0.26475  0.78226  1.0000
  H   H491      1.0  0.62062  0.28996  0.55080  1.0000
  S   S169      1.0  0.85733  0.27210  0.72679  1.0000
  H   H492      1.0  0.91423  0.02656  0.89225  1.0000
  C   C507      1.0  0.60711  0.25237  0.60159  1.0000
  H   H493      1.0  0.75511  0.11411  0.52188  1.0000
  H   H494      1.0  0.98275  0.24344  0.60953  1.0000
  H   H495      1.0  0.73932  0.18002  0.74818  1.0000
  C   C508      1.0  0.71102  0.04122  0.66448  1.0000
  H   H496      1.0  0.69312  0.05080  0.67100  1.0000
  H   H497      1.0  0.85930  0.00872  0.82977  1.0000
  S   S170      1.0  0.76536  0.01589  0.84099  1.0000
  H   H498      1.0  0.90327  0.06934  0.76892  1.0000
  C   C509      1.0  0.60675  0.28486  0.56708  1.0000
  H   H499      1.0  0.72218  0.08128  0.51533  1.0000
  C   C510      1.0  0.75566  0.21315  0.69300  1.0000
  H   H500      1.0  0.75703  0.21067  0.67207  1.0000
  C   C511      1.0  0.91845  0.27049  0.61885  1.0000
  C   C512      1.0  0.79005  0.02105  0.92638  1.0000
  C   C513      1.0  0.75405  0.02549  0.67330  1.0000
  H   H501      1.0  0.50251  0.09075  0.50883  1.0000
  C   C514      1.0  0.95696  0.15261  0.80100  1.0000
  H   H502      1.0  0.59155  0.27312  0.55850  1.0000
  H   H503      1.0  0.65522  0.29117  0.58159  1.0000
  C   C515      1.0  0.79423  0.04172  0.90911  1.0000
  N   N42       1.0  0.50090  0.05392  0.52681  1.0000
  C   C516      1.0  0.57877  0.21586  0.53269  1.0000
  H   H504      1.0  0.92434  0.24710  0.54784  1.0000
  H   H505      1.0  0.76318  0.25768  0.73869  1.0000
  C   C517      1.0  0.78832  0.04002  0.88258  1.0000
  H   H506      1.0  0.67706  0.26922  0.61762  1.0000
  C   C518      1.0  0.96481  0.12666  0.79756  1.0000
  S   S171      1.0  0.79346  0.02585  0.96048  1.0000
  C   C519      1.0  0.64573  0.28831  0.89470  1.0000
  S   S172      1.0  0.54666  0.20334  0.53690  1.0000
  C   C520      1.0  0.91728  0.03861  0.93188  1.0000
  S   S173      1.0  0.66962  0.00900  0.50316  1.0000
  C   C521      1.0  0.51962  0.07751  0.57031  1.0000
  C   C522      1.0  0.51562  0.09163  0.54776  1.0000
  C   C523      1.0  0.98721  0.28345  0.60060  1.0000
  H   H507      1.0  0.91928  0.23062  0.62984  1.0000
  N   N43       1.0  0.63502  0.27935  0.87274  1.0000
  H   H508      1.0  0.97181  0.17527  0.74039  1.0000
  N   N44       1.0  0.91869  0.99543  0.74145  1.0000
  H   H509      1.0  0.67383  0.28162  0.92394  1.0000
  C   C524      1.0  0.57066  0.99465  0.57857  1.0000
  H   H510      1.0  0.98607  0.12987  0.73438  1.0000
  H   H511      1.0  0.58742  0.24752  0.59717  1.0000
  C   C525      1.0  0.90370  0.03022  0.91063  1.0000
  S   S174      1.0  0.96544  0.24131  0.66307  1.0000
  S   S175      1.0  0.50644  0.15354  0.50404  1.0000
  H   H512      1.0  0.66830  0.22313  0.86605  1.0000
  H   H513      1.0  0.72496  0.03280  0.92735  1.0000
  Fe  Fe89      1.0  0.71129  0.99552  0.50272  1.0000
  C   C526      1.0  0.98023  0.31250  0.63681  1.0000
  H   H514      1.0  0.60245  0.28357  0.84868  1.0000
  C   C527      1.0  0.98584  0.30836  0.61033  1.0000
  H   H515      1.0  0.87975  0.32107  0.53469  1.0000
  C   C528      1.0  0.87705  0.04004  0.95757  1.0000
  C   C529      1.0  0.50629  0.07944  0.52600  1.0000
  C   C530      1.0  0.92176  0.23568  0.58819  1.0000
  H   H516      1.0  0.62675  0.30790  0.84498  1.0000
  H   H517      1.0  0.86304  0.03354  0.87560  1.0000
  H   H518      1.0  0.92283  0.21536  0.58401  1.0000
  Fe  Fe90      1.0  0.98858  0.04953  0.79381  1.0000
  C   C531      1.0  0.77410  0.99685  0.89009  1.0000
  H   H519      1.0  0.92491  0.03455  0.73315  1.0000
  H   H520      1.0  0.57169  0.23887  0.49895  1.0000
  H   H521      1.0  0.88579  0.00073  0.76754  1.0000
  H   H522      1.0  0.91394  0.04971  0.97237  1.0000
  H   H523      1.0  0.67500  0.99937  0.67518  1.0000
  H   H524      1.0  0.50126  0.01959  0.54933  1.0000
  C   C532      1.0  0.91886  0.31528  0.60424  1.0000
  H   H525      1.0  0.83369  0.32186  0.55144  1.0000
  S   S176      1.0  0.69770  0.31944  0.73133  1.0000
  H   H526      1.0  0.61572  0.25763  0.49657  1.0000
  H   H527      1.0  0.92500  0.31946  0.62417  1.0000
  H   H528      1.0  0.89876  0.32273  0.60194  1.0000
  H   H529      1.0  0.71042  0.32206  0.67637  1.0000
  H   H530      1.0  0.62129  0.18837  0.49893  1.0000
  H   H531      1.0  0.66519  0.20691  0.49695  1.0000
  C   C533      1.0  0.66309  0.18664  0.49334  1.0000
  H   H532      1.0  0.71470  0.18776  0.50844  1.0000
  C   C534      1.0  0.63825  0.17628  0.49453  1.0000
  C   C535      1.0  0.55419  0.59093  0.00388  1.0000
  S   S177      1.0  0.93750  0.59159  0.46080  1.0000
  Fe  Fe91      1.0  0.92328  0.52064  0.44596  1.0000
  S   S178      1.0  0.89370  0.54756  0.46429  1.0000
  H   H533      1.0  0.58319  0.60535  0.28942  1.0000
  Fe  Fe92      1.0  0.90716  0.57673  0.43450  1.0000
  S   S179      1.0  0.87236  0.59929  0.41850  1.0000
  C   C536      1.0  0.83053  0.64102  0.36700  1.0000
  S   S180      1.0  0.93465  0.54837  0.41414  1.0000
  C   C537      1.0  0.53652  0.62854  0.09638  1.0000
  C   C538      1.0  0.92441  0.43061  0.45322  1.0000
  H   H534      1.0  0.56276  0.56137  0.03168  1.0000
  S   S181      1.0  0.95436  0.53133  0.47271  1.0000
  S   S182      1.0  0.56636  0.43519  0.04067  1.0000
  H   H535      1.0  0.55708  0.38253  0.06596  1.0000
  H   H536      1.0  0.51033  0.44090  0.03908  1.0000
  C   C539      1.0  0.56587  0.55935  0.29329  1.0000
  H   H537      1.0  0.49509  0.50612  0.06741  1.0000
  S   S183      1.0  0.55684  0.61580  0.02680  1.0000
  S   S184      1.0  0.52836  0.49431  0.22541  1.0000
  C   C540      1.0  0.50521  0.55842  0.26649  1.0000
  H   H538      1.0  0.61169  0.59608  0.27006  1.0000
  S   S185      1.0  0.91083  0.47995  0.43993  1.0000
  S   S186      1.0  0.51039  0.42349  0.19921  1.0000
  H   H539      1.0  0.52755  0.63478  0.16186  1.0000
  C   C541      1.0  0.54144  0.37209  0.07689  1.0000
  H   H540      1.0  0.56074  0.49710  0.27562  1.0000
  H   H541      1.0  0.54345  0.52798  0.30898  1.0000
  C   C542      1.0  0.52155  0.52703  0.23432  1.0000
  C   C543      1.0  0.53623  0.54665  0.22237  1.0000
  C   C544      1.0  0.53542  0.57191  0.23235  1.0000
  C   C545      1.0  0.52049  0.57782  0.25503  1.0000
  H   H542      1.0  0.54621  0.35131  0.07665  1.0000
  S   S187      1.0  0.52198  0.47230  0.99636  1.0000
  H   H543      1.0  0.54901  0.54206  0.20575  1.0000
  H   H544      1.0  0.54737  0.58642  0.22321  1.0000
  H   H545      1.0  0.55709  0.57300  0.30703  1.0000
  C   C546      1.0  0.54152  0.43771  0.06541  1.0000
  C   C547      1.0  0.54764  0.43542  0.09165  1.0000
  C   C548      1.0  0.52780  0.43416  0.11133  1.0000
  H   H546      1.0  0.93438  0.39238  0.46632  1.0000
  H   H547      1.0  0.82427  0.62286  0.40443  1.0000
  C   C549      1.0  0.51546  0.43986  0.05913  1.0000
  H   H548      1.0  0.56776  0.43380  0.09671  1.0000
  H   H549      1.0  0.53266  0.43140  0.13140  1.0000
  C   C550      1.0  0.55649  0.64602  0.09253  1.0000
  C   C551      1.0  0.49907  0.52919  0.03267  1.0000
  H   H550      1.0  0.84367  0.54919  0.43152  1.0000
  H   H551      1.0  0.58123  0.60305  0.25493  1.0000
  C   C552      1.0  0.55589  0.65480  0.13775  1.0000
  H   H552      1.0  0.49972  0.54763  0.99532  1.0000
  H   H553      1.0  0.86795  0.50625  0.41532  1.0000
  C   C553      1.0  0.95763  0.46218  0.45705  1.0000
  C   C554      1.0  0.97415  0.44344  0.46722  1.0000
  C   C555      1.0  0.96574  0.41833  0.47096  1.0000
  C   C556      1.0  0.56775  0.51656  0.27581  1.0000
  C   C557      1.0  0.58537  0.52473  0.25637  1.0000
  H   H554      1.0  0.96443  0.48137  0.45413  1.0000
  C   C558      1.0  0.59294  0.55029  0.25581  1.0000
  C   C559      1.0  0.50176  0.43520  0.10478  1.0000
  N   N45       1.0  0.58319  0.56723  0.27413  1.0000
  C   C560      1.0  0.86416  0.61785  0.39071  1.0000
  C   C561      1.0  0.83837  0.62688  0.38885  1.0000
  Fe  Fe93      1.0  0.55359  0.44288  0.99988  1.0000
  C   C562      1.0  0.84847  0.64656  0.34667  1.0000
  C   C563      1.0  0.87423  0.63738  0.34845  1.0000
  C   C564      1.0  0.88204  0.62306  0.37023  1.0000
  C   C565      1.0  0.59028  0.59422  0.27208  1.0000
  H   H555      1.0  0.52924  0.61845  0.07988  1.0000
  H   H556      1.0  0.90191  0.61620  0.37122  1.0000
  N   N46       1.0  0.85778  0.53947  0.39351  1.0000
  C   C566      1.0  0.87224  0.51786  0.39820  1.0000
  C   C567      1.0  0.86341  0.55424  0.37207  1.0000
  C   C568      1.0  0.89307  0.51063  0.38132  1.0000
  C   C569      1.0  0.88436  0.54781  0.35501  1.0000
  C   C570      1.0  0.89926  0.52584  0.35970  1.0000
  Fe  Fe94      1.0  0.53554  0.64729  0.25707  1.0000
  C   C571      1.0  0.53588  0.63745  0.14232  1.0000
  H   H557      1.0  0.85206  0.57144  0.36835  1.0000
  H   H558      1.0  0.90474  0.49367  0.38542  1.0000
  H   H559      1.0  0.88915  0.56003  0.33848  1.0000
  H   H560      1.0  0.91579  0.52077  0.34684  1.0000
  C   C572      1.0  0.83625  0.54663  0.41176  1.0000
  H   H561      1.0  0.59211  0.51156  0.24116  1.0000
  Fe  Fe95      1.0  0.92576  0.56039  0.48885  1.0000
  C   C573      1.0  0.93255  0.45599  0.45044  1.0000
  C   C574      1.0  0.55782  0.56541  0.01186  1.0000
  H   H562      1.0  0.88832  0.64144  0.33286  1.0000
  C   C575      1.0  0.94093  0.41178  0.46364  1.0000
  H   H563      1.0  0.55818  0.52554  0.00070  1.0000
  Fe  Fe96      1.0  0.96401  0.56103  0.44247  1.0000
  H   H564      1.0  0.53265  0.38000  0.02689  1.0000
  H   H565      1.0  0.60598  0.55671  0.24015  1.0000
  H   H566      1.0  0.82695  0.56518  0.40641  1.0000
  S   S188      1.0  0.55410  0.65161  0.21721  1.0000
  H   H567      1.0  0.54137  0.37920  0.09723  1.0000
  S   S189      1.0  0.52340  0.60750  0.27207  1.0000
  C   C576      1.0  0.52606  0.62438  0.12145  1.0000
  H   H568      1.0  0.90509  0.42563  0.44789  1.0000
  H   H569      1.0  0.82131  0.53163  0.41232  1.0000
  C   C577      1.0  0.55800  0.53390  0.29448  1.0000
  Fe  Fe97      1.0  0.49943  0.46220  0.21770  1.0000
  C   C578      1.0  0.50549  0.53336  0.25611  1.0000
  C   C579      1.0  0.51501  0.38022  0.03919  1.0000
  S   S190      1.0  0.98643  0.39663  0.48656  1.0000
  H   H570      1.0  0.81058  0.64759  0.36591  1.0000
  C   C580      1.0  0.55529  0.54509  0.99432  1.0000
  H   H571      1.0  0.51029  0.61119  0.12472  1.0000
  N   N47       1.0  0.51624  0.37689  0.06548  1.0000
  H   H572      1.0  0.56451  0.64902  0.07298  1.0000
  H   H573      1.0  0.51401  0.54113  0.04011  1.0000
  H   H574      1.0  0.50323  0.33323  0.21520  1.0000
  H   H575      1.0  0.49440  0.51857  0.26590  1.0000
  H   H576      1.0  0.65252  0.65378  0.30714  1.0000
  C   C581      1.0  0.49573  0.43872  0.07871  1.0000
  C   C582      1.0  0.49403  0.37735  0.08105  1.0000
  H   H577      1.0  0.49499  0.37517  0.10196  1.0000
  H   H578      1.0  0.49364  0.56256  0.28406  1.0000
  Fe  Fe98      1.0  0.55434  0.65776  0.01510  1.0000
  S   S191      1.0  0.91788  0.56294  0.53244  1.0000
  Fe  Fe99      1.0  0.54314  0.48400  0.95977  1.0000
  H   H579      1.0  0.84194  0.32968  0.72394  1.0000
  S   S192      1.0  0.54474  0.52517  0.94622  1.0000
  Fe  Fe100     1.0  0.55463  0.42890  0.94197  1.0000
  H   H580      1.0  0.98769  0.62563  0.76025  1.0000
  S   S193      1.0  0.56799  0.40727  0.90483  1.0000
  C   C583      1.0  0.85495  0.33336  0.79955  1.0000
  H   H581      1.0  0.95195  0.53249  0.61487  1.0000
  H   H582      1.0  0.59198  0.50999  0.91962  1.0000
  S   S194      1.0  0.52157  0.45691  0.93517  1.0000
  S   S195      1.0  0.57717  0.45706  0.96477  1.0000
  H   H583      1.0  0.55580  0.49374  0.89825  1.0000
  H   H584      1.0  0.91691  0.54691  0.58601  1.0000
  C   C584      1.0  0.94628  0.59530  0.61749  1.0000
  H   H585      1.0  0.90842  0.34049  0.74538  1.0000
  H   H586      1.0  0.64305  0.43240  0.89383  1.0000
  H   H587      1.0  0.90106  0.58986  0.66723  1.0000
  N   N48       1.0  0.59361  0.47600  0.89668  1.0000
  C   C585      1.0  0.95655  0.53727  0.59475  1.0000
  S   S196      1.0  0.96480  0.33643  0.75261  1.0000
  C   C586      1.0  0.84871  0.33493  0.77343  1.0000
  S   S197      1.0  0.96461  0.44817  0.69794  1.0000
  H   H588      1.0  0.65413  0.36535  0.91477  1.0000
  H   H589      1.0  0.66015  0.46236  0.92617  1.0000
  C   C587      1.0  0.63209  0.44960  0.89951  1.0000
  C   C588      1.0  0.96827  0.54963  0.54253  1.0000
  H   H590      1.0  0.55761  0.46257  0.88400  1.0000
  C   C589      1.0  0.96463  0.41737  0.71383  1.0000
  H   H591      1.0  0.54518  0.61552  0.97178  1.0000
  N   N49       1.0  0.95211  0.45209  0.53260  1.0000
  S   S198      1.0  0.98916  0.58389  0.72346  1.0000
  S   S199      1.0  0.94941  0.34256  0.53008  1.0000
  S   S200      1.0  0.97023  0.52341  0.67669  1.0000
  S   S201      1.0  0.53410  0.41245  0.97762  1.0000
  C   C590      1.0  0.95189  0.37204  0.71372  1.0000
  C   C591      1.0  0.91074  0.44633  0.51392  1.0000
  C   C592      1.0  0.64163  0.46639  0.91763  1.0000
  H   H592      1.0  0.94251  0.35654  0.70422  1.0000
  C   C593      1.0  0.93363  0.43624  0.52383  1.0000
  H   H593      1.0  0.82848  0.33395  0.76859  1.0000
  H   H594      1.0  0.94753  0.59811  0.59657  1.0000
  N   N50       1.0  0.96831  0.59214  0.63114  1.0000
  C   C594      1.0  0.54557  0.57565  0.96059  1.0000
  C   C595      1.0  0.86106  0.33842  0.72696  1.0000
  C   C596      1.0  0.96395  0.36742  0.73721  1.0000
  H   H595      1.0  0.54074  0.57975  0.94075  1.0000
  C   C597      1.0  0.59595  0.38854  0.89480  1.0000
  C   C598      1.0  0.59773  0.37878  0.86930  1.0000
  C   C599      1.0  0.61963  0.36424  0.86016  1.0000
  C   C600      1.0  0.64013  0.35922  0.87647  1.0000
  C   C601      1.0  0.63839  0.36905  0.90196  1.0000
  C   C602      1.0  0.61650  0.38362  0.91109  1.0000
  H   H596      1.0  0.58203  0.38255  0.85645  1.0000
  Fe  Fe101     1.0  0.98467  0.32526  0.54764  1.0000
  C   C603      1.0  0.54906  0.55016  0.96862  1.0000
  H   H597      1.0  0.61552  0.39101  0.93071  1.0000
  C   C604      1.0  0.94265  0.55177  0.55231  1.0000
  C   C605      1.0  0.89327  0.33843  0.76050  1.0000
  H   H598      1.0  0.57079  0.48962  0.86611  1.0000
  C   C606      1.0  0.60803  0.45490  0.88896  1.0000
  Fe  Fe102     1.0  0.50324  0.44274  0.97260  1.0000
  C   C607      1.0  0.93678  0.54544  0.57842  1.0000
  C   C608      1.0  0.96665  0.58880  0.65750  1.0000
  S   S202      1.0  0.66807  0.34040  0.86652  1.0000
  C   C609      1.0  0.56823  0.48079  0.88565  1.0000
  C   C610      1.0  0.97610  0.38810  0.74896  1.0000
  H   H599      1.0  0.62069  0.35709  0.84045  1.0000
  H   H600      1.0  0.63436  0.50155  0.93883  1.0000
  C   C611      1.0  0.92176  0.59432  0.63019  1.0000
  C   C612      1.0  0.62719  0.48833  0.92474  1.0000
  H   H601      1.0  0.98596  0.42825  0.74687  1.0000
  H   H602      1.0  0.86047  0.35870  0.72051  1.0000
  H   H603      1.0  0.90435  0.59632  0.61919  1.0000
  H   H604      1.0  0.96319  0.49073  0.53841  1.0000
  Fe  Fe103     1.0  0.98662  0.48662  0.69436  1.0000
  H   H605      1.0  0.98418  0.45265  0.55744  1.0000
  H   H606      1.0  0.97294  0.55478  0.52256  1.0000
  H   H607      1.0  0.89650  0.43372  0.50624  1.0000
  C   C613      1.0  0.54807  0.59596  0.97814  1.0000
  H   H608      1.0  0.60066  0.44167  0.87499  1.0000
  C   C614      1.0  0.94847  0.47809  0.53172  1.0000
  C   C615      1.0  0.92582  0.48879  0.52188  1.0000
  C   C616      1.0  0.60314  0.49297  0.91386  1.0000
  H   H609      1.0  0.99128  0.44082  0.52472  1.0000
  H   H610      1.0  0.94146  0.58526  0.69184  1.0000
  C   C617      1.0  0.95207  0.39678  0.70232  1.0000
  H   H611      1.0  0.97896  0.33180  0.64427  1.0000
  H   H612      1.0  0.94263  0.39995  0.68420  1.0000
  N   N51       1.0  0.86783  0.33688  0.75427  1.0000
  C   C618      1.0  0.90021  0.33710  0.78643  1.0000
  C   C619      1.0  0.98224  0.53561  0.58497  1.0000
  H   H613      1.0  0.93692  0.41565  0.52358  1.0000
  H   H614      1.0  0.93233  0.32567  0.59064  1.0000
  H   H615      1.0  0.87547  0.32746  0.71448  1.0000
  H   H616      1.0  0.98406  0.58652  0.66837  1.0000
  H   H617      1.0  0.83971  0.33098  0.81457  1.0000
  H   H618      1.0  0.88607  0.33286  0.82619  1.0000
  H   H619      1.0  0.92303  0.50937  0.52094  1.0000
  Fe  Fe104     1.0  0.97735  0.35593  0.49837  1.0000
  C   C620      1.0  0.94250  0.58800  0.67088  1.0000
  C   C621      1.0  0.97659  0.41275  0.73737  1.0000
  C   C622      1.0  0.90699  0.47279  0.51271  1.0000
  H   H620      1.0  0.88978  0.48090  0.50416  1.0000
  C   C623      1.0  0.91992  0.59064  0.65707  1.0000
  S   S203      1.0  0.71660  0.33034  0.80408  1.0000
  C   C624      1.0  0.97672  0.44125  0.54129  1.0000
  H   H621      1.0  0.92050  0.33796  0.79117  1.0000
  S   S204      1.0  0.98961  0.33468  0.58961  1.0000
  C   C625      1.0  0.98798  0.54170  0.55888  1.0000
  H   H622      1.0  0.97441  0.42127  0.54840  1.0000
  H   H623      1.0  0.98534  0.38501  0.76721  1.0000
  C   C626      1.0  0.88091  0.33431  0.80603  1.0000
  H   H624      1.0  0.99302  0.58879  0.59682  1.0000
  Fe  Fe105     1.0  0.77846  0.71822  0.26364  1.0000
  S   S205      1.0  0.77421  0.74172  0.22686  1.0000
  Fe  Fe106     1.0  0.77192  0.73650  0.31956  1.0000
  S   S206      1.0  0.76933  0.69679  0.33630  1.0000
  S   S207      1.0  0.76604  0.77343  0.34181  1.0000
  Fe  Fe107     1.0  0.74400  0.68876  0.30275  1.0000
  H   H625      1.0  0.76046  0.80815  0.21133  1.0000
  S   S208      1.0  0.80692  0.72762  0.29383  1.0000
  S   S209      1.0  0.74367  0.72919  0.28914  1.0000
  Fe  Fe108     1.0  0.57858  0.68146  0.23506  1.0000
  S   S210      1.0  0.56237  0.67528  0.27566  1.0000
  S   S211      1.0  0.62102  0.68743  0.22458  1.0000
  Fe  Fe109     1.0  0.52504  0.68367  0.21308  1.0000
  H   H626      1.0  0.53233  0.93750  0.46514  1.0000
  H   H627      1.0  0.65361  0.70792  0.33789  1.0000
  Fe  Fe110     1.0  0.53404  0.70724  0.26589  1.0000
  H   H628      1.0  0.74897  0.78049  0.26461  1.0000
  S   S212      1.0  0.55142  0.71421  0.22604  1.0000
  Fe  Fe111     1.0  0.54697  0.70963  0.04109  1.0000
  C   C627      1.0  0.52432  0.77532  0.28760  1.0000
  S   S213      1.0  0.54765  0.73335  0.07727  1.0000
  C   C628      1.0  0.56969  0.96614  0.23067  1.0000
  S   S214      1.0  0.78091  0.97369  0.08946  1.0000
  Fe  Fe112     1.0  0.81161  0.74331  0.08115  1.0000
  S   S215      1.0  0.81188  0.72709  0.04070  1.0000
  S   S216      1.0  0.82354  0.71780  0.11437  1.0000
  Fe  Fe113     1.0  0.79257  0.79504  0.06288  1.0000
  S   S217      1.0  0.79037  0.78239  0.02153  1.0000
  S   S218      1.0  0.78289  0.83571  0.07407  1.0000
  Fe  Fe114     1.0  0.77222  0.74649  0.03814  1.0000
  C   C629      1.0  0.59653  0.97492  0.26667  1.0000
  Fe  Fe115     1.0  0.83007  0.76449  0.02812  1.0000
  S   S219      1.0  0.51867  0.68108  0.02726  1.0000
  S   S220      1.0  0.77183  0.76096  0.07929  1.0000
  S   S221      1.0  0.83241  0.77894  0.06885  1.0000
  Fe  Fe116     1.0  0.83677  0.95241  0.01321  1.0000
  S   S222      1.0  0.79520  0.96600  0.01596  1.0000
  S   S223      1.0  0.84005  0.66530  0.31904  1.0000
  H   H629      1.0  0.58844  0.69043  0.12521  1.0000
  C   C630      1.0  0.72386  0.71829  0.12650  1.0000
  Fe  Fe117     1.0  0.54395  0.93689  0.32569  1.0000
  S   S224      1.0  0.53397  0.93319  0.28393  1.0000
  S   S225      1.0  0.58360  0.94667  0.33871  1.0000
  Fe  Fe118     1.0  0.51023  0.89947  0.29819  1.0000
  Fe  Fe119     1.0  0.74284  0.95630  0.30722  1.0000
  S   S226      1.0  0.73007  0.91538  0.30548  1.0000
  C   C631      1.0  0.91261  0.84479  0.02920  1.0000
  Fe  Fe120     1.0  0.75915  0.95724  0.24737  1.0000
  S   S227      1.0  0.74680  0.91689  0.24245  1.0000
  S   S228      1.0  0.78036  0.97993  0.21455  1.0000
  Fe  Fe121     1.0  0.71224  0.92740  0.26833  1.0000
  S   S229      1.0  0.67342  0.91274  0.25816  1.0000
  Fe  Fe122     1.0  0.76596  0.90850  0.27984  1.0000
  S   S230      1.0  0.79220  0.87344  0.27644  1.0000
  S   S231      1.0  0.72270  0.96872  0.27083  1.0000
  S   S232      1.0  0.78054  0.94856  0.28393  1.0000
  C   C632      1.0  0.60892  0.93524  0.31770  1.0000
  C   C633      1.0  0.63414  0.94402  0.32044  1.0000
  C   C634      1.0  0.65416  0.93684  0.30242  1.0000
  C   C635      1.0  0.64898  0.92082  0.28164  1.0000
  C   C636      1.0  0.62388  0.91165  0.27920  1.0000
  C   C637      1.0  0.60389  0.91877  0.29726  1.0000
  S   S233      1.0  0.73584  0.72258  0.03108  1.0000
  H   H630      1.0  0.67353  0.94390  0.30450  1.0000
  H   H631      1.0  0.61987  0.89907  0.26329  1.0000
  H   H632      1.0  0.58462  0.91152  0.29531  1.0000
  C   C638      1.0  0.83232  0.70687  0.37595  1.0000
  H   H633      1.0  0.98978  0.84562  0.03286  1.0000
  C   C639      1.0  0.76338  0.96186  0.16702  1.0000
  C   C640      1.0  0.77982  0.97817  0.17978  1.0000
  C   C641      1.0  0.91384  0.80663  0.05557  1.0000
  H   H634      1.0  0.88092  0.74254  0.30840  1.0000
  Fe  Fe123     1.0  0.80695  0.98446  0.05347  1.0000
  H   H635      1.0  0.56297  0.66528  0.15405  1.0000
  H   H636      1.0  0.95186  0.79358  0.06575  1.0000
  C   C642      1.0  0.80331  0.85672  0.05668  1.0000
  C   C643      1.0  0.79920  0.88313  0.05925  1.0000
  C   C644      1.0  0.81399  0.90012  0.04392  1.0000
  C   C645      1.0  0.83268  0.89074  0.02570  1.0000
  C   C646      1.0  0.83732  0.86434  0.02360  1.0000
  C   C647      1.0  0.82267  0.84733  0.03910  1.0000
  H   H637      1.0  0.78390  0.89048  0.07237  1.0000
  H   H638      1.0  0.81023  0.92046  0.04559  1.0000
  H   H639      1.0  0.85165  0.85697  0.00942  1.0000
  H   H640      1.0  0.82584  0.82695  0.03686  1.0000
  S   S234      1.0  0.52225  0.90230  0.33968  1.0000
  H   H641      1.0  0.56647  0.95624  0.21264  1.0000
  C   C648      1.0  0.74202  0.95784  0.38982  1.0000
  C   C649      1.0  0.74102  0.95666  0.41733  1.0000
  H   H642      1.0  0.71536  0.78945  0.29928  1.0000
  H   H643      1.0  0.75039  0.94204  0.37858  1.0000
  C   C650      1.0  0.98177  0.82925  0.04426  1.0000
  H   H644      1.0  0.81099  0.70181  0.20806  1.0000
  C   C651      1.0  0.63369  0.95653  0.46234  1.0000
  H   H645      1.0  0.60234  0.76929  0.26024  1.0000
  H   H646      1.0  0.60517  0.66723  0.10409  1.0000
  N   N52       1.0  0.75831  0.69289  0.10604  1.0000
  H   H647      1.0  0.85765  0.78465  0.31329  1.0000
  H   H648      1.0  0.79507  0.88817  0.11765  1.0000
  H   H649      1.0  0.78187  0.79702  0.23583  1.0000
  C   C652      1.0  0.56816  0.93667  0.44179  1.0000
  C   C653      1.0  0.78109  0.97607  0.12422  1.0000
  H   H650      1.0  0.53492  0.77378  0.24674  1.0000
  H   H651      1.0  0.51205  0.89304  0.44428  1.0000
  C   C654      1.0  0.51169  0.69878  0.15120  1.0000
  H   H652      1.0  0.64187  0.95357  0.48183  1.0000
  C   C655      1.0  0.51377  0.70211  0.10409  1.0000
  C   C656      1.0  0.53333  0.72009  0.10545  1.0000
  C   C657      1.0  0.54197  0.72748  0.12965  1.0000
  C   C658      1.0  0.53146  0.71652  0.15252  1.0000
  C   C659      1.0  0.52950  0.78608  0.26301  1.0000
  S   S235      1.0  0.52525  0.74141  0.29329  1.0000
  H   H653      1.0  0.55711  0.74144  0.13065  1.0000
  H   H654      1.0  0.53848  0.72201  0.17110  1.0000
  Fe  Fe124     1.0  0.80259  0.68685  0.30817  1.0000
  C   C660      1.0  0.76393  0.96096  0.13952  1.0000
  C   C661      1.0  0.93611  0.75217  0.02106  1.0000
  C   C662      1.0  0.90883  0.75462  0.01970  1.0000
  C   C663      1.0  0.65745  0.66363  0.28914  1.0000
  H   H655      1.0  0.61890  0.66122  0.27468  1.0000
  H   H656      1.0  0.90397  0.79075  0.06504  1.0000
  H   H657      1.0  0.89629  0.74236  0.03138  1.0000
  S   S236      1.0  0.55033  0.73074  0.00326  1.0000
  H   H658      1.0  0.64925  0.74488  0.26377  1.0000
  C   C664      1.0  0.77348  0.80134  0.32387  1.0000
  C   C665      1.0  0.76205  0.82492  0.33136  1.0000
  C   C666      1.0  0.76751  0.84724  0.31694  1.0000
  C   C667      1.0  0.78509  0.84618  0.29547  1.0000
  C   C668      1.0  0.79707  0.82275  0.28850  1.0000
  C   C669      1.0  0.79092  0.80034  0.30231  1.0000
  H   H659      1.0  0.74868  0.82588  0.34813  1.0000
  H   H660      1.0  0.75837  0.86528  0.32263  1.0000
  H   H661      1.0  0.81082  0.82184  0.27202  1.0000
  H   H662      1.0  0.79991  0.78236  0.29637  1.0000
  C   C670      1.0  0.78937  0.73518  0.19620  1.0000
  C   C671      1.0  0.78361  0.75131  0.17529  1.0000
  C   C672      1.0  0.79454  0.74652  0.15028  1.0000
  C   C673      1.0  0.81133  0.72550  0.14598  1.0000
  H   H663      1.0  0.77045  0.76749  0.17837  1.0000
  H   H664      1.0  0.78981  0.75897  0.13431  1.0000
  C   C674      1.0  0.80640  0.71430  0.19204  1.0000
  C   C675      1.0  0.59295  0.96242  0.24317  1.0000
  C   C676      1.0  0.51482  0.81869  0.30460  1.0000
  C   C677      1.0  0.64458  0.68087  0.24765  1.0000
  C   C678      1.0  0.67002  0.68927  0.24280  1.0000
  C   C679      1.0  0.68902  0.68527  0.26124  1.0000
  H   H665      1.0  0.94425  0.73797  0.03387  1.0000
  C   C680      1.0  0.73047  0.97701  0.43259  1.0000
  H   H666      1.0  0.67500  0.69915  0.22483  1.0000
  H   H667      1.0  0.70850  0.69209  0.25746  1.0000
  C   C681      1.0  0.63835  0.66795  0.27085  1.0000
  H   H668      1.0  0.78179  0.83007  0.22707  1.0000
  N   N53       1.0  0.61298  0.73761  0.28364  1.0000
  C   C682      1.0  0.60066  0.72751  0.30530  1.0000
  C   C683      1.0  0.63951  0.73754  0.28126  1.0000
  C   C684      1.0  0.61503  0.71677  0.32520  1.0000
  C   C685      1.0  0.51722  0.79191  0.30836  1.0000
  C   C686      1.0  0.64211  0.71671  0.32296  1.0000
  C   C687      1.0  0.59797  0.74869  0.26271  1.0000
  H   H669      1.0  0.57959  0.72753  0.30722  1.0000
  C   C688      1.0  0.95286  0.76783  0.00601  1.0000
  H   H670      1.0  0.60521  0.70839  0.34213  1.0000
  S   S237      1.0  0.50533  0.67860  0.25231  1.0000
  C   C689      1.0  0.59477  0.94170  0.44139  1.0000
  H   H671      1.0  0.57672  0.74725  0.26685  1.0000
  H   H672      1.0  0.72998  0.71396  0.08524  1.0000
  H   H673      1.0  0.60285  0.73844  0.24419  1.0000
  H   H674      1.0  0.69515  0.83313  0.30307  1.0000
  C   C690      1.0  0.65446  0.72737  0.30099  1.0000
  C   C691      1.0  0.75934  0.84979  0.01111  1.0000
  H   H675      1.0  0.84923  0.69393  0.37935  1.0000
  C   C692      1.0  0.59089  0.95648  0.48496  1.0000
  C   C693      1.0  0.76665  0.68571  0.12989  1.0000
  C   C694      1.0  0.82655  0.75131  0.36164  1.0000
  H   H676      1.0  0.70728  0.73120  0.12483  1.0000
  C   C695      1.0  0.55293  0.94146  0.46440  1.0000
  C   C696      1.0  0.68274  0.67256  0.28455  1.0000
  H   H677      1.0  0.51316  0.78397  0.32751  1.0000
  H   H678      1.0  0.64491  0.94366  0.44864  1.0000
  C   C697      1.0  0.83315  0.77197  0.34553  1.0000
  H   H679      1.0  0.69070  0.69176  0.04013  1.0000
  H   H680      1.0  0.99108  0.81146  0.03618  1.0000
  H   H681      1.0  0.53207  0.98523  0.23241  1.0000
  H   H682      1.0  0.72295  0.71911  0.16846  1.0000
  C   C698      1.0  0.75389  0.69482  0.15266  1.0000
  C   C699      1.0  0.89789  0.77251  0.00287  1.0000
  S   S238      1.0  0.73099  0.97474  0.46738  1.0000
  C   C700      1.0  0.81736  0.70950  0.16695  1.0000
  H   H683      1.0  0.61463  0.97178  0.27627  1.0000
  H   H684      1.0  0.64697  0.69141  0.02169  1.0000
  C   C701      1.0  0.73689  0.70856  0.10413  1.0000
  C   C702      1.0  0.51936  0.82942  0.27990  1.0000
  C   C703      1.0  0.56430  0.95151  0.48612  1.0000
  C   C704      1.0  0.68558  0.70612  0.02599  1.0000
  C   C705      1.0  0.55043  0.98239  0.24168  1.0000
  H   H685      1.0  0.76503  0.66319  0.07850  1.0000
  H   H686      1.0  0.70924  0.86719  0.27210  1.0000
  N   N54       1.0  0.81595  0.92108  0.16899  1.0000
  C   C706      1.0  0.80333  0.90297  0.15549  1.0000
  C   C707      1.0  0.83101  0.93870  0.15608  1.0000
  C   C708      1.0  0.80532  0.90241  0.12831  1.0000
  C   C709      1.0  0.83333  0.93875  0.12890  1.0000
  C   C710      1.0  0.82024  0.92061  0.11499  1.0000
  C   C711      1.0  0.81303  0.92142  0.19745  1.0000
  H   H687      1.0  0.79134  0.88906  0.16571  1.0000
  H   H688      1.0  0.84064  0.95339  0.16667  1.0000
  S   S239      1.0  0.51171  0.96518  0.33519  1.0000
  H   H689      1.0  0.84439  0.95337  0.11861  1.0000
  H   H690      1.0  0.82127  0.92106  0.09393  1.0000
  H   H691      1.0  0.79212  0.92280  0.20358  1.0000
  H   H692      1.0  0.82171  0.90377  0.20580  1.0000
  H   H693      1.0  0.82237  0.93826  0.20593  1.0000
  N   N55       1.0  0.60586  0.95105  0.46301  1.0000
  C   C712      1.0  0.52692  0.81285  0.25922  1.0000
  S   S240      1.0  0.58204  0.68455  0.03314  1.0000
  S   S241      1.0  0.86361  0.77593  0.99970  1.0000
  N   N56       1.0  0.74852  0.81860  0.24983  1.0000
  C   C713      1.0  0.73736  0.84255  0.25157  1.0000
  C   C714      1.0  0.74013  0.79947  0.26610  1.0000
  C   C715      1.0  0.71779  0.84805  0.27053  1.0000
  C   C716      1.0  0.72092  0.80438  0.28557  1.0000
  C   C717      1.0  0.70975  0.82887  0.28780  1.0000
  C   C718      1.0  0.76911  0.81326  0.22993  1.0000
  H   H694      1.0  0.74400  0.85772  0.23870  1.0000
  C   C719      1.0  0.93969  0.84601  0.03003  1.0000
  H   H695      1.0  0.83037  0.69321  0.16373  1.0000
  H   H696      1.0  0.90173  0.85903  0.01851  1.0000
  S   S242      1.0  0.51299  0.86263  0.27307  1.0000
  H   H697      1.0  0.87877  0.82325  0.04098  1.0000
  H   H698      1.0  0.74867  0.93984  0.42689  1.0000
  H   H699      1.0  0.81043  0.75362  0.37578  1.0000
  H   H700      1.0  0.75002  0.95008  0.17829  1.0000
  N   N57       1.0  0.57729  0.99031  0.27766  1.0000
  H   H701      1.0  0.67551  0.72682  0.29886  1.0000
  N   N58       1.0  0.83984  0.72846  0.35924  1.0000
  C   C720      1.0  0.94088  0.80834  0.05588  1.0000
  H   H702      1.0  0.53045  0.82078  0.23999  1.0000
  C   C721      1.0  0.86594  0.74537  0.32363  1.0000
  C   C722      1.0  0.85912  0.72522  0.34035  1.0000
  C   C723      1.0  0.85288  0.76892  0.32633  1.0000
  H   H703      1.0  0.63815  0.95669  0.33628  1.0000
  C   C724      1.0  0.73287  0.97967  0.37701  1.0000
  H   H704      1.0  0.63689  0.97668  0.45629  1.0000
  H   H705      1.0  0.60803  0.94963  0.23501  1.0000
  H   H706      1.0  0.50130  0.90437  0.39905  1.0000
  C   C725      1.0  0.70403  0.72448  0.01813  1.0000
  C   C726      1.0  0.73254  0.71143  0.15090  1.0000
  H   H707      1.0  0.60645  0.93802  0.42369  1.0000
  C   C727      1.0  0.76214  0.89567  0.00749  1.0000
  C   C728      1.0  0.77177  0.68273  0.08251  1.0000
  H   H708      1.0  0.50695  0.69651  0.08542  1.0000
  S   S243      1.0  0.77692  0.67649  0.27510  1.0000
  H   H709      1.0  0.58207  0.69011  0.09153  1.0000
  H   H710      1.0  0.82438  0.71344  0.39524  1.0000
  H   H711      1.0  0.86905  0.70682  0.33785  1.0000
  S   S244      1.0  0.84818  0.96929  0.05086  1.0000
  C   C729      1.0  0.66063  0.70588  0.01554  1.0000
  S   S245      1.0  0.84832  0.91168  0.00377  1.0000
  H   H712      1.0  0.76815  0.69498  0.06533  1.0000
  C   C730      1.0  0.50260  0.69181  0.12703  1.0000
  C   C731      1.0  0.75071  0.87416  0.01886  1.0000
  H   H713      1.0  0.97572  0.95581  0.04339  1.0000
  S   S246      1.0  0.98718  0.76363  0.00829  1.0000
  S   S247      1.0  0.49890  0.68421  0.17942  1.0000
  C   C732      1.0  0.58644  0.67754  0.10832  1.0000
  C   C733      1.0  0.89968  0.82490  0.04201  1.0000
  H   H714      1.0  0.81737  0.69566  0.36644  1.0000
  H   H715      1.0  0.82248  0.79002  0.34753  1.0000
  H   H716      1.0  0.55938  0.92910  0.42469  1.0000
  N   N59       1.0  0.95344  0.82789  0.04328  1.0000
  H   H717      1.0  0.75108  0.83295  0.02040  1.0000
  Fe  Fe125     1.0  0.49975  0.95939  0.29454  1.0000
  S   S248      1.0  0.70549  0.66908  0.30898  1.0000
  C   C734      1.0  0.49595  0.90605  0.44089  1.0000
  H   H718      1.0  0.76102  0.68966  0.17153  1.0000
  H   H719      1.0  0.79315  0.68220  0.08470  1.0000
  H   H720      1.0  0.94961  0.86143  0.01987  1.0000
  H   H721      1.0  0.75603  0.91471  0.01384  1.0000
  C   C735      1.0  0.65382  0.72366  0.99647  1.0000
  H   H722      1.0  0.50881  0.83096  0.32074  1.0000
  H   H723      1.0  0.75093  0.94841  0.12998  1.0000
  S   S249      1.0  0.73552  0.98333  0.34230  1.0000
  H   H724      1.0  0.78384  0.67356  0.13140  1.0000
  H   H725      1.0  0.94684  0.98733  0.08827  1.0000
  H   H726      1.0  0.73569  0.87631  0.03417  1.0000
  C   C736      1.0  0.97789  0.98712  0.00407  1.0000
  H   H727      1.0  0.96208  0.99090  0.01814  1.0000
  C   C737      1.0  0.69697  0.74271  0.99956  1.0000
  Fe  Fe126     1.0  0.58486  0.70437  0.99478  1.0000
  N   N60       1.0  0.56561  0.65920  0.11301  1.0000
  H   H728      1.0  0.98752  0.83152  0.06464  1.0000
  C   C738      1.0  0.91468  0.78807  0.98768  1.0000
  H   H729      1.0  0.89727  0.96442  0.79578  1.0000
  H   H730      1.0  0.82585  0.88190  0.96250  1.0000
  C   C739      1.0  0.58307  0.73981  0.93321  1.0000
  H   H731      1.0  0.77690  0.98236  0.92940  1.0000
  H   H732      1.0  0.57233  0.70672  0.91143  1.0000
  H   H733      1.0  0.64160  0.97733  0.64862  1.0000
  H   H734      1.0  0.93676  0.93787  0.78480  1.0000
  S   S250      1.0  0.70549  0.97135  0.53893  1.0000
  S   S251      1.0  0.63283  0.95721  0.54401  1.0000
  S   S252      1.0  0.51919  0.98462  0.58870  1.0000
  C   C740      1.0  0.94734  0.96001  0.75071  1.0000
  C   C741      1.0  0.67222  0.74208  0.98863  1.0000
  H   H735      1.0  0.66742  0.75585  0.97381  1.0000
  H   H736      1.0  0.95519  0.77405  0.91012  1.0000
  C   C742      1.0  0.81265  0.86533  0.96231  1.0000
  C   C743      1.0  0.59596  0.98896  0.56860  1.0000
  S   S253      1.0  0.62340  0.72270  0.98072  1.0000
  H   H737      1.0  0.58543  0.92992  0.54416  1.0000
  H   H738      1.0  0.98117  0.78595  0.88917  1.0000
  C   C744      1.0  0.53050  0.75204  0.93676  1.0000
  H   H739      1.0  0.95444  0.79826  0.97776  1.0000
  H   H740      1.0  0.59953  0.96462  0.50176  1.0000
  C   C745      1.0  0.54855  0.76730  0.94857  1.0000
  Fe  Fe127     1.0  0.66442  0.98650  0.54010  1.0000
  C   C746      1.0  0.56553  0.72403  0.92133  1.0000
  H   H741      1.0  0.97851  0.91942  0.79057  1.0000
  H   H742      1.0  0.52513  0.71779  0.91471  1.0000
  C   C747      1.0  0.60136  0.96555  0.55627  1.0000
  H   H743      1.0  0.67215  0.94154  0.57865  1.0000
  H   H744      1.0  0.59190  0.77138  0.98142  1.0000
  Fe  Fe128     1.0  0.52424  0.70037  0.98833  1.0000
  C   C748      1.0  0.55592  0.95413  0.56282  1.0000
  C   C749      1.0  0.58133  0.94814  0.55354  1.0000
  H   H745      1.0  0.96507  0.94900  0.74620  1.0000
  C   C750      1.0  0.67511  0.94983  0.59757  1.0000
  H   H746      1.0  0.54060  0.94057  0.56066  1.0000
  C   C751      1.0  0.53910  0.73026  0.92311  1.0000
  H   H747      1.0  0.58822  0.79736  0.95835  1.0000
  H   H748      1.0  0.97875  0.79564  0.92250  1.0000
  C   C752      1.0  0.59280  0.77664  0.96044  1.0000
  C   C753      1.0  0.68636  0.98126  0.67208  1.0000
  H   H749      1.0  0.63457  0.95876  0.60524  1.0000
  H   H750      1.0  0.60354  0.73449  0.93217  1.0000
  H   H751      1.0  0.71671  0.94440  0.59498  1.0000
  H   H752      1.0  0.97178  0.75344  0.95356  1.0000
  H   H753      1.0  0.72304  0.96293  0.63818  1.0000
  C   C754      1.0  0.70349  0.96175  0.63132  1.0000
  H   H754      1.0  0.76574  0.97952  0.88302  1.0000
  C   C755      1.0  0.93157  0.95383  0.77246  1.0000
  N   N61       1.0  0.68267  0.97108  0.64601  1.0000
  H   H755      1.0  0.90650  0.80195  0.97456  1.0000
  N   N62       1.0  0.57448  0.76116  0.94658  1.0000
  C   C756      1.0  0.65399  0.95945  0.61259  1.0000
  C   C757      1.0  0.55058  0.97727  0.57564  1.0000
  S   S254      1.0  0.98765  0.98601  0.83535  1.0000
  H   H756      1.0  0.80493  0.86350  0.94264  1.0000
  S   S255      1.0  0.55934  0.67570  0.97543  1.0000
  C   C758      1.0  0.90932  0.96860  0.77853  1.0000
  H   H757      1.0  0.54160  0.78361  0.96001  1.0000
  H   H758      1.0  0.68011  0.96709  0.68706  1.0000
  C   C759      1.0  0.65814  0.97001  0.63698  1.0000
  C   C760      1.0  0.70004  0.95114  0.60685  1.0000
  H   H759      1.0  0.50984  0.75638  0.93906  1.0000
  H   H760      1.0  0.61315  0.77317  0.95302  1.0000
  H   H761      1.0  0.97463  0.87227  0.78627  1.0000
  C   C761      1.0  0.78244  0.89245  0.98877  1.0000
  C   C762      1.0  0.94065  0.98112  0.73541  1.0000
  C   C763      1.0  0.98757  0.74644  0.94075  1.0000
  C   C764      1.0  0.94193  0.78600  0.98945  1.0000
  C   C765      1.0  0.97598  0.77928  0.90922  1.0000
  C   C766      1.0  0.99154  0.88163  0.77784  1.0000
  H   H762      1.0  0.82475  0.84810  0.96661  1.0000
  H   H763      1.0  0.55257  0.95535  0.50376  1.0000
  H   H764      1.0  0.70703  0.98579  0.67498  1.0000
  C   C767      1.0  0.90304  0.98932  0.76261  1.0000
  S   S256      1.0  0.84984  0.98553  0.98869  1.0000
  N   N63       1.0  0.79118  0.86846  0.98174  1.0000
  H   H765      1.0  0.78654  0.82827  0.98671  1.0000
  H   H766      1.0  0.95352  0.98637  0.71912  1.0000
  H   H767      1.0  0.79188  0.90926  0.98071  1.0000
  N   N64       1.0  0.99225  0.75746  0.91692  1.0000
  C   C768      1.0  0.77959  0.84728  0.99226  1.0000
  H   H768      1.0  0.71086  0.75682  0.99303  1.0000
