data_image0
_chemical_formula_structural       FeSFeS2FeCS3FeNSHCH3CSCHC6H3CHFeH2CHCHC2SCNCHC5HC3FeSHFeS2Fe2S3C2FeS2FeS2FeHFeS4C6H5C2NHC9H4C3HC2H5C2H3C2HC2H2CH4CH2C2SH2CHCH2S2H2CHC3H3C2HNHC3H8NH2C3HCHFeHCHCH3SHNH2C3NH3CH2C4SFe2HFeCSH2CHCSH2CFeHSCH2CHCFeSC5NHS2HC4SFeC2HSCHSCFeH2CH3CH2CH2NH2CS2HCS2C2SCH4C2SCH3CHNHC2H2CH3C2S2C3HC3H2CHC3H4CNH6C2HCH2CHCHSC2HCFeC3HC2HC2HSCHS2CSC2NH6NCH2SC2HFe2C2HC2H2FeHCHSFeS2FeS2FeSFeS3HN2FeS2NFeSHSFeSHFeS2FeCFeS3FeS2FeS2FeSFeS2H2SFeSFeS2Fe2S3C5H2C6H4C6H3SCHC9H4C6H4CHC3SH2C6H4C6H8C6H6CHFeC5HCSCHCH2CHC3HCHC2H2C2H2CHNC6H8NHCHSC2H6SFeNC6H5C2H2CHC2HC2NSHC2NH2CH3SH2C3H2CH2C3NHCHSCH2CH3C2SH2C3HFeH3CH4CFeH3CH9CSCFeS2FeS2FeSFeS3FeS2FeSFeSFeS3H2FeS2FeSNSCFeSFeS2FeSFeS3FeS2FeS2FeSFeS4HC6H4NC2HC6H4C6H4C6H3C6H4C3HCSHCHC7H8NH2C9H3CHCH2NC3H7SCH2CH2C2HCHNH3C3HC2FeHCH3C2H6SC2H2CHFeC2N2HC2H5C2H2CHNHCHCH2C4HC3FeCHSCHSC2HC4H3C2H2CHCHCH3CNH3NC2H2CHSCH2C4HCHCHCHC2HCH5C2HCH2C3H4C3H2C2SC2H3CHS2Fe2S2FeS3C6H4NC4FeNC5H3SCSFeSHCH2CHCHCH3FeHCSCFeHCH6CSH2CH3C3H2CSHFeSC3NSC2H4CFeS2FeS2FeSFeS4HC4HC2H2CHC6H5C2HCHCH2C7H5CHCH2CH2CH4C6H2NC3HNC3H2SH4NCHCHC2NH3CH2CFeS2FeS2Fe2S3NFeS2FeSFeSFeS4C6H4C3H2CHCHC6H4C6H4CSNC6H10CNC2H3SCHC2H2C3H2C2NHC2HCH3C2H4C2NC2H8CHC5H3C2HC2HC3NC2H3S2CHCH5C3HCHCNHCFeH2CHSHC4HFeS2FeS2FeSCFeS2Fe2S3HSFeSHFeSFeS2H2SFeS2FeHFeHS2FeCSFeC2FeSHSCHCHCHC6H4C2HC3H4C6H4C6H4C4HNH4CNC3H2NH2SHSH4FeCSCH3CHC2FeCHNC4SNCHC4HCHC3HNC6H8SCHSCHCHCSHCHNCFeSHSH2CH2CH4C3SHSC2HCHSH5CHFeCSCFeS2FeS2FeSFeHS2FeHSFeS2CFeCS2H2SHCH5C2NHC6HFeH2C6H4SC5H4NC3H3C4HC2H3C2HNCH3C2HCH2CHCSFeH3C2H3C2H2CHNHC3H3NH4CHCH2CHC3HC5HNSHCSCH3C2HC3HCH6C2H3FeS2FeSNFeSFeS3HCHFeSCSHFeSCFeS2FeSFeS4C6H6C2FeC4H3C2H2CH2CHC10H4C6H4C6HSH3NC6H8CH5C2HCHNHC3NC6H9CH4CH3C3S2H2C2HCHCHSNCFeCSH2SCSH2FeSHFeS2FeS2FeSFeS5CH2C2NH2C2H3CHC6H5CHCH2C6H4NC6H3FeCH2CNCNSCHCH2CH2CH3S2H3C2HC3H2C2HNHCH2CHCH2FeCSFeS2FeSFeHS2HFeSH2FeSCH2CH3C2HSCH3FeHSCHC6H4C3SCH3CH3C2NCN2C3S2CSH2FeCHCH3FeH2CH5CH4S2FeS2FeS2FeSFeS3FeS2CSCHFeS2FeSFeSFeS3FeS2FeSFeSFeS3FeS2FeS2FeSFeHS3C8HCH2C6H4C6H4C6H7C4HCHCHC6H4CHC7H4C7HCHC3H3C2FeHNHC4H3NC6H8NC6H5CH4FeH3CH4SHC2HC2S4NHSCHC2HC3H5NC3H5CH2CHCH2NC3HC3H4C4HCFeC3HC3N2CH2C3HCHCNCH2C4SHCHCH3C4H3CNCH3CH2CHC2H2FeH3CNSCH3CH4CH2SH2CHC2HC2H2CH7FeSFeS2FeSFeS3HFeS2FeS2FeCFeHS2FeSCHSFeSFeSFeSFeS2FeSFeS3FeHFeS2FeS2FeS2FeS2Fe2S3HC3H2SC7H4C6H4C2H2C6HCH3C4H2C6H4C6H3NC6HCH2CHCH4CHC2HC6H4C6H4C2SCH2CNHCFeHC5HSNH2C3NC6H8FeCHSH3SHCNCHNSCNC2H3C3HCHC2H2C2H7NCH3C2HC3H3CH2CHNC4HCH2CH2CHSH2CHCH2CHC2S2CNFeHC2HCHCNC2H2CSHCH4C3HSC2HSHCNCNHC3H3CH3CH3C3NC2HFeSHSHFeCFeS2FeSFeHS2H2FeS2FeSFeHS2FeS2FeS2H2FeS3FeS2HFeSHS2C5H2S2C6H2CHC6H4C6HCH2C6H4C2Fe2CFeCSCHCH3CH3C2HCNC2H2CHC2H2S2H2C2H2SHC2HCH2C3H2C4H2CFeH2NHC2NS2C3HCHCNCNC2HC2H2CHSC3H2NSH3FeH2CHSH4CHFeS2FeS2FeCFeS3H2C2FeS2FeS2FeSFeS3C6H4C3NCH2SCH3C2SC6H10C6H4C3H3CH2CFeH4CH2C5H2C2H2CH2CNHNHC2HC2H3NSCHCH2C3SCNCSH3CHCH3C3HCH3CH6CHCH3
_chemical_formula_sum              "Fe216 S432 C1296 N108 H1296"
_cell_length_a       73.8768
_cell_length_b       76.4946
_cell_length_c       44.9123
_cell_angle_alpha    84.3063
_cell_angle_beta     87.9
_cell_angle_gamma    112.145

_space_group_name_H-M_alt    "P 1"
_space_group_IT_number       1

loop_
  _space_group_symop_operation_xyz
  'x, y, z'

loop_
  _atom_site_type_symbol
  _atom_site_label
  _atom_site_symmetry_multiplicity
  _atom_site_fract_x
  _atom_site_fract_y
  _atom_site_fract_z
  _atom_site_occupancy
  Fe  Fe1       1.0  0.22841  0.23346  0.07939  1.0000
  S   S1        1.0  0.19997  0.23223  0.06072  1.0000
  Fe  Fe2       1.0  0.25887  0.21542  0.07221  1.0000
  S   S2        1.0  0.28125  0.23811  0.09426  1.0000
  S   S3        1.0  0.26482  0.19060  0.05624  1.0000
  Fe  Fe3       1.0  0.25640  0.23488  0.12789  1.0000
  C   C1        1.0  0.43690  0.03915  0.11218  1.0000
  S   S4        1.0  0.23446  0.21049  0.10770  1.0000
  S   S5        1.0  0.25088  0.23614  0.04243  1.0000
  S   S6        1.0  0.29121  0.15159  0.37870  1.0000
  Fe  Fe4       1.0  0.24719  0.22873  0.39495  1.0000
  N   N1        1.0  0.46496  0.07098  0.13154  1.0000
  S   S7        1.0  0.25693  0.20924  0.42558  1.0000
  H   H1        1.0  0.29414  0.24305  0.38639  1.0000
  C   C2        1.0  0.22974  0.18089  0.99796  1.0000
  H   H2        1.0  0.20510  0.23043  0.23442  1.0000
  H   H3        1.0  0.31825  0.19637  0.04551  1.0000
  H   H4        1.0  0.30707  0.04293  0.47577  1.0000
  C   C3        1.0  0.12123  0.23546  0.09009  1.0000
  S   S8        1.0  0.21641  0.22579  0.38589  1.0000
  C   C4        1.0  0.18344  0.23046  0.48565  1.0000
  H   H5        1.0  0.27628  0.22043  0.00556  1.0000
  C   C5        1.0  0.26758  0.19464  0.41050  1.0000
  C   C6        1.0  0.28137  0.18995  0.42657  1.0000
  C   C7        1.0  0.28950  0.17762  0.41606  1.0000
  C   C8        1.0  0.28340  0.16929  0.38996  1.0000
  C   C9        1.0  0.26989  0.17428  0.37352  1.0000
  C   C10       1.0  0.26214  0.18709  0.38358  1.0000
  H   H6        1.0  0.28580  0.19592  0.44726  1.0000
  H   H7        1.0  0.30020  0.17433  0.42856  1.0000
  H   H8        1.0  0.25149  0.19062  0.37104  1.0000
  C   C11       1.0  0.27524  0.19231  0.01949  1.0000
  H   H9        1.0  0.32655  0.16779  0.05118  1.0000
  Fe  Fe5       1.0  0.22957  0.23884  0.33879  1.0000
  H   H10       1.0  0.47646  0.07870  0.08565  1.0000
  H   H11       1.0  0.32653  0.21712  0.99678  1.0000
  C   C12       1.0  0.22810  0.15242  0.03063  1.0000
  H   H12       1.0  0.47274  0.09377  0.15834  1.0000
  C   C13       1.0  0.24980  0.23200  0.20896  1.0000
  H   H13       1.0  0.20114  0.19405  0.05970  1.0000
  C   C14       1.0  0.24697  0.23074  0.26359  1.0000
  C   C15       1.0  0.22802  0.23057  0.26288  1.0000
  S   S9        1.0  0.25947  0.23930  0.34726  1.0000
  C   C16       1.0  0.21474  0.20172  0.01452  1.0000
  N   N2        1.0  0.33672  0.24745  0.41659  1.0000
  C   C17       1.0  0.25773  0.23130  0.23679  1.0000
  H   H14       1.0  0.34783  0.03412  0.18604  1.0000
  C   C18       1.0  0.48066  0.07157  0.22488  1.0000
  C   C19       1.0  0.21369  0.17422  0.04699  1.0000
  C   C20       1.0  0.21982  0.23069  0.23512  1.0000
  C   C21       1.0  0.34023  0.23312  0.40473  1.0000
  C   C22       1.0  0.45153  0.05233  0.09177  1.0000
  H   H15       1.0  0.26994  0.10040  0.46945  1.0000
  C   C23       1.0  0.42723  0.11381  0.32091  1.0000
  C   C24       1.0  0.45099  0.05789  0.15183  1.0000
  C   C25       1.0  0.26536  0.11232  0.46670  1.0000
  Fe  Fe6       1.0  0.31604  0.11963  0.46321  1.0000
  S   S10       1.0  0.31140  0.11355  0.41561  1.0000
  H   H16       1.0  0.14836  0.24884  0.48973  1.0000
  Fe  Fe7       1.0  0.34663  0.16038  0.44375  1.0000
  S   S11       1.0  0.34509  0.15713  0.39456  1.0000
  S   S12       1.0  0.36181  0.18664  0.46666  1.0000
  Fe  Fe8       1.0  0.31249  0.14358  0.40658  1.0000
  Fe  Fe9       1.0  0.34431  0.12751  0.40763  1.0000
  S   S13       1.0  0.36215  0.11164  0.38949  1.0000
  S   S14       1.0  0.31413  0.14822  0.45487  1.0000
  S   S15       1.0  0.34882  0.13208  0.45611  1.0000
  C   C26       1.0  0.46551  0.06829  0.10188  1.0000
  C   C27       1.0  0.39798  0.24668  0.42026  1.0000
  Fe  Fe10      1.0  0.43299  0.07233  0.23018  1.0000
  S   S16       1.0  0.41569  0.04309  0.21931  1.0000
  S   S17       1.0  0.46594  0.08518  0.22378  1.0000
  Fe  Fe11      1.0  0.39686  0.08126  0.24401  1.0000
  S   S18       1.0  0.37660  0.05273  0.23355  1.0000
  S   S19       1.0  0.38459  0.10311  0.25578  1.0000
  Fe  Fe12      1.0  0.39602  0.04155  0.25947  1.0000
  H   H17       1.0  0.45148  0.05069  0.06801  1.0000
  Fe  Fe13      1.0  0.39780  0.05666  0.19396  1.0000
  S   S20       1.0  0.38554  0.04496  0.15141  1.0000
  S   S21       1.0  0.41498  0.06980  0.27310  1.0000
  S   S22       1.0  0.41659  0.08636  0.20174  1.0000
  S   S23       1.0  0.43538  0.07624  0.02584  1.0000
  C   C28       1.0  0.39863  0.05481  0.11610  1.0000
  C   C29       1.0  0.39236  0.04524  0.09095  1.0000
  C   C30       1.0  0.40309  0.05209  0.06283  1.0000
  C   C31       1.0  0.42015  0.06860  0.05968  1.0000
  C   C32       1.0  0.42610  0.07847  0.08465  1.0000
  C   C33       1.0  0.41542  0.07158  0.11281  1.0000
  H   H18       1.0  0.37935  0.03230  0.09328  1.0000
  H   H19       1.0  0.39840  0.04438  0.04373  1.0000
  H   H20       1.0  0.43922  0.09132  0.08230  1.0000
  H   H21       1.0  0.42027  0.07915  0.13198  1.0000
  H   H22       1.0  0.48057  0.02690  0.24198  1.0000
  C   C34       1.0  0.47332  0.05191  0.23421  1.0000
  C   C35       1.0  0.41362  0.12882  0.35534  1.0000
  N   N3        1.0  0.33962  0.17258  0.00633  1.0000
  H   H23       1.0  0.45795  0.04445  0.24151  1.0000
  C   C36       1.0  0.32586  0.19312  0.02699  1.0000
  C   C37       1.0  0.13369  0.22468  0.04824  1.0000
  C   C38       1.0  0.13109  0.22477  0.07915  1.0000
  C   C39       1.0  0.37506  0.10286  0.29267  1.0000
  C   C40       1.0  0.37771  0.09135  0.31690  1.0000
  C   C41       1.0  0.37260  0.09348  0.34644  1.0000
  C   C42       1.0  0.36454  0.10692  0.35203  1.0000
  C   C43       1.0  0.36079  0.11764  0.32773  1.0000
  C   C44       1.0  0.36623  0.11574  0.29817  1.0000
  H   H24       1.0  0.38442  0.08134  0.31298  1.0000
  H   H25       1.0  0.37548  0.08507  0.36510  1.0000
  H   H26       1.0  0.35453  0.12799  0.33174  1.0000
  H   H27       1.0  0.36402  0.12462  0.27951  1.0000
  C   C45       1.0  0.37471  0.20961  0.44749  1.0000
  C   C46       1.0  0.37741  0.22547  0.46275  1.0000
  C   C47       1.0  0.38877  0.24396  0.44906  1.0000
  H   H28       1.0  0.33397  0.02833  0.23882  1.0000
  C   C48       1.0  0.39507  0.23086  0.40482  1.0000
  C   C49       1.0  0.38323  0.21239  0.41820  1.0000
  H   H29       1.0  0.27244  0.23154  0.23758  1.0000
  H   H30       1.0  0.27612  0.16434  0.02632  1.0000
  H   H31       1.0  0.40224  0.23286  0.38259  1.0000
  H   H32       1.0  0.38135  0.20025  0.40635  1.0000
  H   H33       1.0  0.26514  0.16798  0.35319  1.0000
  C   C50       1.0  0.27920  0.20848  0.99890  1.0000
  C   C51       1.0  0.25464  0.14345  0.45993  1.0000
  H   H34       1.0  0.24448  0.10459  0.40238  1.0000
  H   H35       1.0  0.42504  0.03193  0.15831  1.0000
  H   H36       1.0  0.48723  0.09909  0.12337  1.0000
  C   C52       1.0  0.32732  0.22207  0.38560  1.0000
  C   C53       1.0  0.23071  0.23155  0.20818  1.0000
  H   H37       1.0  0.25079  0.15584  0.45668  1.0000
  C   C54       1.0  0.47972  0.08765  0.14208  1.0000
  C   C55       1.0  0.34430  0.15552  0.00928  1.0000
  H   H38       1.0  0.32264  0.07712  0.47654  1.0000
  H   H39       1.0  0.37834  0.01388  0.22694  1.0000
  C   C56       1.0  0.31082  0.22587  0.37853  1.0000
  H   H40       1.0  0.23584  0.15283  0.05151  1.0000
  H   H41       1.0  0.20954  0.16563  0.06871  1.0000
  H   H42       1.0  0.16375  0.23472  0.45423  1.0000
  H   H43       1.0  0.21145  0.21442  0.01074  1.0000
  C   C57       1.0  0.33053  0.20481  0.99964  1.0000
  H   H44       1.0  0.28183  0.07251  0.46815  1.0000
  H   H45       1.0  0.10726  0.25493  0.07871  1.0000
  C   C58       1.0  0.27913  0.17690  0.01047  1.0000
  C   C59       1.0  0.25713  0.10537  0.41558  1.0000
  S   S24       1.0  0.38177  0.01450  0.29052  1.0000
  H   H46       1.0  0.13725  0.21706  0.09458  1.0000
  H   H47       1.0  0.12873  0.23555  0.00463  1.0000
  C   C60       1.0  0.18730  0.24908  0.10412  1.0000
  H   H48       1.0  0.19401  0.24229  0.12003  1.0000
  C   C61       1.0  0.11433  0.24619  0.06989  1.0000
  H   H49       1.0  0.14173  0.21673  0.03955  1.0000
  H   H50       1.0  0.42545  0.02719  0.10438  1.0000
  S   S25       1.0  0.26503  0.23516  0.17593  1.0000
  S   S26       1.0  0.21456  0.23110  0.29597  1.0000
  H   H51       1.0  0.21428  0.13959  0.03316  1.0000
  H   H52       1.0  0.25337  0.23042  0.28477  1.0000
  C   C62       1.0  0.12648  0.23548  0.02866  1.0000
  H   H53       1.0  0.35178  0.24945  0.45618  1.0000
  C   C63       1.0  0.43663  0.04187  0.14243  1.0000
  C   C64       1.0  0.26719  0.12339  0.49026  1.0000
  C   C65       1.0  0.32930  0.01699  0.22463  1.0000
  H   H54       1.0  0.37089  0.22338  0.48546  1.0000
  H   H55       1.0  0.27074  0.11207  0.40031  1.0000
  H   H56       1.0  0.40898  0.12973  0.37817  1.0000
  C   C66       1.0  0.20893  0.19027  0.04207  1.0000
  C   C67       1.0  0.18870  0.24697  0.07367  1.0000
  H   H57       1.0  0.22445  0.23206  0.18688  1.0000
  N   N4        1.0  0.41040  0.13978  0.33176  1.0000
  H   H58       1.0  0.24826  0.13606  0.41554  1.0000
  C   C68       1.0  0.41576  0.13828  0.30291  1.0000
  C   C69       1.0  0.42416  0.12523  0.29705  1.0000
  C   C70       1.0  0.40178  0.15366  0.33753  1.0000
  H   H59       1.0  0.26016  0.03829  0.48041  1.0000
  H   H60       1.0  0.41283  0.14662  0.28412  1.0000
  H   H61       1.0  0.42749  0.12345  0.27406  1.0000
  H   H62       1.0  0.41351  0.16748  0.34045  1.0000
  H   H63       1.0  0.39309  0.15575  0.31879  1.0000
  H   H64       1.0  0.39143  0.14858  0.35808  1.0000
  H   H65       1.0  0.43321  0.10326  0.31654  1.0000
  H   H66       1.0  0.42389  0.10651  0.36897  1.0000
  N   N5        1.0  0.25825  0.11667  0.44048  1.0000
  H   H67       1.0  0.04008  0.24982  0.99983  1.0000
  H   H68       1.0  0.30056  0.21728  0.36400  1.0000
  C   C71       1.0  0.33705  0.02017  0.19476  1.0000
  C   C72       1.0  0.42200  0.11563  0.35028  1.0000
  C   C73       1.0  0.33047  0.17691  0.02994  1.0000
  H   H69       1.0  0.25535  0.09058  0.42379  1.0000
  C   C74       1.0  0.25312  0.13213  0.43677  1.0000
  H   H70       1.0  0.35303  0.23009  0.41018  1.0000
  Fe  Fe14      1.0  0.22567  0.25591  0.39706  1.0000
  H   H71       1.0  0.45074  0.06000  0.17536  1.0000
  C   C75       1.0  0.26183  0.13908  0.48676  1.0000
  H   H72       1.0  0.32993  0.21048  0.37666  1.0000
  C   C76       1.0  0.48611  0.04200  0.23456  1.0000
  H   H73       1.0  0.19068  0.22490  0.46976  1.0000
  H   H74       1.0  0.09778  0.24784  0.00637  1.0000
  H   H75       1.0  0.39099  0.25601  0.46125  1.0000
  S   S27       1.0  0.24840  0.25745  0.10223  1.0000
  H   H76       1.0  0.34433  0.02403  0.13623  1.0000
  N   N6        1.0  0.22381  0.16963  0.02497  1.0000
  H   H77       1.0  0.34105  0.14809  0.03254  1.0000
  H   H78       1.0  0.34575  0.07552  0.48500  1.0000
  C   C77       1.0  0.27882  0.06599  0.49123  1.0000
  C   C78       1.0  0.30723  0.24036  0.39101  1.0000
  C   C79       1.0  0.32041  0.25108  0.41011  1.0000
  N   N7        1.0  0.11705  0.24613  0.03959  1.0000
  H   H79       1.0  0.49081  0.08346  0.15354  1.0000
  H   H80       1.0  0.36016  0.15938  0.00285  1.0000
  H   H81       1.0  0.11977  0.23622  0.11403  1.0000
  C   C80       1.0  0.34063  0.00909  0.14634  1.0000
  H   H82       1.0  0.18091  0.25415  0.02968  1.0000
  H   H83       1.0  0.23783  0.15122  0.01216  1.0000
  C   C81       1.0  0.16828  0.23600  0.47691  1.0000
  C   C82       1.0  0.17987  0.25574  0.05328  1.0000
  C   C83       1.0  0.10977  0.25734  0.01844  1.0000
  C   C84       1.0  0.33144  0.07472  0.49493  1.0000
  S   S28       1.0  0.01713  0.23337  0.78707  1.0000
  Fe  Fe15      1.0  0.01149  0.24371  0.89767  1.0000
  Fe  Fe16      1.0  0.02165  0.23771  0.57449  1.0000
  H   H84       1.0  0.02438  0.22404  0.72839  1.0000
  Fe  Fe17      1.0  0.00635  0.24109  0.83024  1.0000
  C   C85       1.0  0.01198  0.22830  0.72762  1.0000
  S   S29       1.0  0.02509  0.24163  0.94232  1.0000
  H   H85       1.0  0.30121  0.07226  0.90936  1.0000
  H   H86       1.0  0.36115  0.22747  0.75360  1.0000
  C   C86       1.0  0.33706  0.09869  0.89529  1.0000
  H   H87       1.0  0.31673  0.03423  0.58371  1.0000
  C   C87       1.0  0.27958  0.07611  0.85722  1.0000
  S   S30       1.0  0.24512  0.03224  0.91844  1.0000
  H   H88       1.0  0.25515  0.06929  0.93754  1.0000
  H   H89       1.0  0.28610  0.07799  0.83455  1.0000
  C   C88       1.0  0.30737  0.04781  0.92466  1.0000
  Fe  Fe18      1.0  0.34590  0.15967  0.90765  1.0000
  H   H90       1.0  0.27486  0.10189  0.91234  1.0000
  S   S31       1.0  0.30157  0.19611  0.92372  1.0000
  C   C89       1.0  0.34640  0.07209  0.91302  1.0000
  H   H91       1.0  0.35022  0.10384  0.87904  1.0000
  H   H92       1.0  0.24698  0.01732  0.74713  1.0000
  C   C90       1.0  0.27106  0.04874  0.55096  1.0000
  H   H93       1.0  0.26803  0.04232  0.57404  1.0000
  C   C91       1.0  0.34170  0.05313  0.92485  1.0000
  Fe  Fe19      1.0  0.34190  0.18162  0.84924  1.0000
  S   S32       1.0  0.30918  0.17020  0.85770  1.0000
  C   C92       1.0  0.28298  0.06813  0.54406  1.0000
  C   C93       1.0  0.25992  0.05513  0.90060  1.0000
  C   C94       1.0  0.28694  0.07684  0.51426  1.0000
  C   C95       1.0  0.32205  0.04090  0.93043  1.0000
  C   C96       1.0  0.28186  0.09214  0.87179  1.0000
  N   N8        1.0  0.33190  0.07867  0.90701  1.0000
  H   H94       1.0  0.28913  0.07643  0.56202  1.0000
  S   S33       1.0  0.34324  0.15284  0.86034  1.0000
  S   S34       1.0  0.31347  0.14721  0.92099  1.0000
  H   H95       1.0  0.32504  0.10081  0.88311  1.0000
  C   C97       1.0  0.26271  0.03788  0.52812  1.0000
  C   C98       1.0  0.26215  0.07115  0.91521  1.0000
  C   C99       1.0  0.29109  0.19394  0.96057  1.0000
  C   C100      1.0  0.26891  0.05767  0.87169  1.0000
  S   S35       1.0  0.29471  0.11492  0.85200  1.0000
  Fe  Fe20      1.0  0.31478  0.17661  0.90509  1.0000
  C   C101      1.0  0.28698  0.20923  0.96954  1.0000
  C   C102      1.0  0.31463  0.03614  0.55999  1.0000
  H   H96       1.0  0.34015  0.10759  0.91403  1.0000
  S   S36       1.0  0.34757  0.18960  0.89569  1.0000
  C   C103      1.0  0.31263  0.06690  0.91323  1.0000
  H   H97       1.0  0.26727  0.04548  0.86017  1.0000
  S   S37       1.0  0.35386  0.19993  0.80445  1.0000
  C   C104      1.0  0.27333  0.08962  0.90103  1.0000
  Fe  Fe21      1.0  0.31086  0.14192  0.87260  1.0000
  H   H98       1.0  0.36170  0.08148  0.90867  1.0000
  H   H99       1.0  0.29007  0.22185  0.95378  1.0000
  C   C105      1.0  0.36886  0.22436  0.79905  1.0000
  H   H100      1.0  0.31820  0.02613  0.93937  1.0000
  H   H101      1.0  0.29201  0.03849  0.92910  1.0000
  H   H102      1.0  0.23052  0.20630  0.97125  1.0000
  C   C106      1.0  0.32558  0.22545  0.82907  1.0000
  H   H103      1.0  0.29016  0.16585  0.97440  1.0000
  H   H104      1.0  0.33580  0.22242  0.84443  1.0000
  C   C107      1.0  0.30246  0.02080  0.54646  1.0000
  H   H105      1.0  0.33394  0.08658  0.50879  1.0000
  H   H106      1.0  0.37014  0.02612  0.89628  1.0000
  N   N9        1.0  0.16654  0.24706  0.52479  1.0000
  H   H107      1.0  0.20506  0.01267  0.89243  1.0000
  H   H108      1.0  0.00957  0.22649  0.67998  1.0000
  C   C108      1.0  0.00465  0.23276  0.75394  1.0000
  S   S38       1.0  0.24766  0.01340  0.53612  1.0000
  S   S39       1.0  0.36507  0.01013  0.95884  1.0000
  H   H109      1.0  0.35127  0.18034  0.96070  1.0000
  C   C109      1.0  0.35521  0.01641  0.90145  1.0000
  S   S40       1.0  0.05196  0.23792  0.56414  1.0000
  S   S41       1.0  0.00545  0.24072  0.53421  1.0000
  C   C110      1.0  0.28706  0.17770  0.98111  1.0000
  C   C111      1.0  0.33963  0.20016  0.97561  1.0000
  S   S42       1.0  0.26480  0.01060  0.61845  1.0000
  C   C112      1.0  0.32390  0.05388  0.54276  1.0000
  H   H110      1.0  0.35322  0.04796  0.92972  1.0000
  H   H111      1.0  0.34272  0.20884  0.95398  1.0000
  H   H112      1.0  0.31854  0.23538  0.77330  1.0000
  H   H113      1.0  0.34705  0.02113  0.85668  1.0000
  C   C113      1.0  0.36991  0.23455  0.77090  1.0000
  C   C114      1.0  0.21919  0.03210  0.85312  1.0000
  S   S43       1.0  0.36466  0.15103  0.93986  1.0000
  C   C115      1.0  0.20680  0.01443  0.86806  1.0000
  H   H114      1.0  0.31253  0.22504  0.84268  1.0000
  H   H115      1.0  0.28992  0.01143  0.50558  1.0000
  H   H116      1.0  0.22667  0.04377  0.86581  1.0000
  C   C116      1.0  0.15766  0.25595  0.54526  1.0000
  H   H117      1.0  0.18676  0.24396  0.55559  1.0000
  N   N10       1.0  0.33515  0.24402  0.81088  1.0000
  H   H118      1.0  0.30187  0.01700  0.69295  1.0000
  C   C117      1.0  0.32963  0.24688  0.78262  1.0000
  C   C118      1.0  0.18117  0.24135  0.53377  1.0000
  H   H119      1.0  0.05394  0.25392  0.62043  1.0000
  H   H120      1.0  0.33575  0.14542  0.99396  1.0000
  C   C119      1.0  0.29336  0.00930  0.75126  1.0000
  H   H121      1.0  0.33324  0.06580  0.55346  1.0000
  H   H122      1.0  0.34428  0.01082  0.58894  1.0000
  H   H123      1.0  0.32101  0.21371  0.81471  1.0000
  C   C120      1.0  0.18985  0.23299  0.51434  1.0000
  C   C121      1.0  0.00362  0.22967  0.70018  1.0000
  S   S44       1.0  0.30209  0.10129  0.50735  1.0000
  S   S45       1.0  0.99513  0.21425  0.59934  1.0000
  C   C122      1.0  0.34418  0.18393  0.97942  1.0000
  C   C123      1.0  0.04817  0.25742  0.95231  1.0000
  C   C124      1.0  0.34212  0.01349  0.87894  1.0000
  H   H124      1.0  0.23831  0.17764  0.98080  1.0000
  C   C125      1.0  0.29976  0.02324  0.51602  1.0000
  C   C126      1.0  0.30938  0.04111  0.49939  1.0000
  C   C127      1.0  0.22196  0.03458  0.82188  1.0000
  H   H125      1.0  0.23172  0.04819  0.81013  1.0000
  H   H126      1.0  0.06029  0.25156  0.69847  1.0000
  C   C128      1.0  0.22538  0.19715  0.99239  1.0000
  H   H127      1.0  0.20200  0.22923  0.52100  1.0000
  C   C129      1.0  0.07177  0.25066  0.58426  1.0000
  C   C130      1.0  0.06872  0.25702  0.61140  1.0000
  C   C131      1.0  0.09100  0.25451  0.57274  1.0000
  H   H128      1.0  0.05849  0.25336  0.73766  1.0000
  H   H129      1.0  0.21440  0.02111  0.78159  1.0000
  H   H130      1.0  0.37804  0.14787  0.87970  1.0000
  H   H131      1.0  0.27319  0.12004  0.51078  1.0000
  C   C132      1.0  0.21223  0.01944  0.80591  1.0000
  N   N11       1.0  0.32108  0.05620  0.51290  1.0000
  H   H132      1.0  0.09340  0.24957  0.55175  1.0000
  H   H133      1.0  0.14394  0.24516  0.55709  1.0000
  H   H134      1.0  0.30359  0.02378  0.74452  1.0000
  H   H135      1.0  0.26356  0.14803  0.50461  1.0000
  H   H136      1.0  0.35339  0.25636  0.84510  1.0000
  H   H137      1.0  0.37869  0.12419  0.97023  1.0000
  C   C133      1.0  0.37692  0.13722  0.92619  1.0000
  C   C134      1.0  0.26658  0.04661  0.49821  1.0000
  H   H138      1.0  0.29800  0.01093  0.79839  1.0000
  C   C135      1.0  0.41150  0.25758  0.68244  1.0000
  H   H139      1.0  0.27603  0.01250  0.69293  1.0000
  H   H140      1.0  0.43101  0.25591  0.78229  1.0000
  C   C136      1.0  0.40725  0.23479  0.72598  1.0000
  H   H141      1.0  0.42532  0.25548  0.52096  1.0000
  C   C137      1.0  0.43417  0.01971  0.82818  1.0000
  H   H142      1.0  0.42485  0.03129  0.86497  1.0000
  S   S46       1.0  0.45846  0.04462  0.90082  1.0000
  C   C138      1.0  0.39564  0.11425  0.90498  1.0000
  C   C139      1.0  0.43032  0.06989  0.81081  1.0000
  H   H143      1.0  0.48672  0.08133  0.86609  1.0000
  C   C140      1.0  0.38236  0.25379  0.76475  1.0000
  Fe  Fe22      1.0  0.41130  0.07726  0.92273  1.0000
  C   C141      1.0  0.46739  0.02102  0.82716  1.0000
  C   C142      1.0  0.38019  0.23364  0.82130  1.0000
  C   C143      1.0  0.39299  0.25289  0.81489  1.0000
  H   H144      1.0  0.48731  0.10518  0.85663  1.0000
  C   C144      1.0  0.39124  0.11337  0.93581  1.0000
  C   C145      1.0  0.42656  0.24345  0.76938  1.0000
  H   H145      1.0  0.47248  0.08974  0.88909  1.0000
  C   C146      1.0  0.47784  0.09029  0.86542  1.0000
  C   C147      1.0  0.38201  0.12492  0.94637  1.0000
  H   H146      1.0  0.47588  0.07030  0.81927  1.0000
  S   S47       1.0  0.39450  0.06377  0.96713  1.0000
  C   C148      1.0  0.39082  0.12675  0.88488  1.0000
  H   H147      1.0  0.43887  0.23858  0.76721  1.0000
  S   S48       1.0  0.42034  0.03642  0.96996  1.0000
  S   S49       1.0  0.40706  0.04969  0.90491  1.0000
  C   C149      1.0  0.43677  0.02855  0.85458  1.0000
  S   S50       1.0  0.40630  0.09936  0.89062  1.0000
  C   C150      1.0  0.44735  0.06654  0.80517  1.0000
  C   C151      1.0  0.45471  0.03372  0.86740  1.0000
  N   N12       1.0  0.46136  0.08306  0.84676  1.0000
  H   H148      1.0  0.48404  0.03409  0.86317  1.0000
  H   H149      1.0  0.41594  0.08297  0.83885  1.0000
  H   H150      1.0  0.44376  0.09482  0.87015  1.0000
  H   H151      1.0  0.39501  0.10388  0.95155  1.0000
  H   H152      1.0  0.47923  0.01810  0.81672  1.0000
  H   H153      1.0  0.39425  0.12758  0.86102  1.0000
  N   N13       1.0  0.42115  0.24839  0.73955  1.0000
  C   C152      1.0  0.42908  0.08019  0.83424  1.0000
  H   H154      1.0  0.44839  0.05830  0.78728  1.0000
  H   H155      1.0  0.39969  0.22054  0.73762  1.0000
  S   S51       1.0  0.44067  0.08066  0.93893  1.0000
  C   C153      1.0  0.44488  0.08681  0.85199  1.0000
  C   C154      1.0  0.44936  0.01571  0.81452  1.0000
  H   H156      1.0  0.42021  0.01574  0.81843  1.0000
  Fe  Fe23      1.0  0.43491  0.05173  0.92483  1.0000
  Fe  Fe24      1.0  0.39269  0.03642  0.95076  1.0000
  C   C155      1.0  0.40206  0.23922  0.69738  1.0000
  C   C156      1.0  0.47007  0.03008  0.85344  1.0000
  H   H157      1.0  0.39069  0.22856  0.68698  1.0000
  C   C157      1.0  0.38146  0.13815  0.89542  1.0000
  C   C158      1.0  0.46286  0.07334  0.82341  1.0000
  H   H158      1.0  0.41807  0.06446  0.79712  1.0000
  H   H159      1.0  0.37955  0.22586  0.84305  1.0000
  Fe  Fe25      1.0  0.42355  0.06508  0.98262  1.0000
  H   H160      1.0  0.41391  0.23204  0.78281  1.0000
  C   C159      1.0  0.15984  0.24419  0.49696  1.0000
  H   H161      1.0  0.49091  0.42764  0.31854  1.0000
  S   S52       1.0  0.02109  0.47612  0.28580  1.0000
  Fe  Fe26      1.0  0.07811  0.41102  0.26125  1.0000
  S   S53       1.0  0.06356  0.39809  0.30711  1.0000
  S   S54       1.0  0.07628  0.43746  0.23654  1.0000
  Fe  Fe27      1.0  0.09547  0.38094  0.25483  1.0000
  S   S55       1.0  0.08226  0.36557  0.30067  1.0000
  S   S56       1.0  0.11609  0.37022  0.23028  1.0000
  Fe  Fe28      1.0  0.05540  0.37046  0.28794  1.0000
  S   S57       1.0  0.02574  0.34871  0.30492  1.0000
  Fe  Fe29      1.0  0.09142  0.39425  0.31655  1.0000
  S   S58       1.0  0.10566  0.39891  0.36048  1.0000
  S   S59       1.0  0.06764  0.38361  0.24078  1.0000
  S   S60       1.0  0.10708  0.40954  0.27199  1.0000
  H   H162      1.0  0.43208  0.44476  0.05923  1.0000
  N   N14       1.0  0.04340  0.35401  0.43883  1.0000
  N   N15       1.0  0.38689  0.41165  0.19739  1.0000
  Fe  Fe30      1.0  0.46691  0.46175  0.26588  1.0000
  S   S61       1.0  0.47618  0.45102  0.22576  1.0000
  S   S62       1.0  0.45698  0.44522  0.31251  1.0000
  N   N16       1.0  0.23872  0.30385  0.05984  1.0000
  Fe  Fe31      1.0  0.46016  0.46656  0.19927  1.0000
  S   S63       1.0  0.44162  0.44916  0.16455  1.0000
  H   H163      1.0  0.02029  0.35946  0.46077  1.0000
  S   S64       1.0  0.44956  0.47602  0.24010  1.0000
  Fe  Fe32      1.0  0.12358  0.30712  0.02177  1.0000
  S   S65       1.0  0.11334  0.29873  0.07093  1.0000
  H   H164      1.0  0.37170  0.37332  0.15895  1.0000
  Fe  Fe33      1.0  0.16450  0.33492  0.03615  1.0000
  S   S66       1.0  0.15702  0.32913  0.08582  1.0000
  S   S67       1.0  0.19451  0.35378  0.01394  1.0000
  Fe  Fe34      1.0  0.14358  0.29864  0.07693  1.0000
  C   C160      1.0  0.29492  0.27653  0.23651  1.0000
  Fe  Fe35      1.0  0.12782  0.33002  0.07564  1.0000
  S   S68       1.0  0.11227  0.34677  0.09739  1.0000
  S   S69       1.0  0.15263  0.30439  0.02773  1.0000
  S   S70       1.0  0.13643  0.33844  0.02600  1.0000
  Fe  Fe36      1.0  0.34218  0.42140  0.08612  1.0000
  S   S71       1.0  0.35325  0.40230  0.06332  1.0000
  S   S72       1.0  0.36245  0.44622  0.10844  1.0000
  Fe  Fe37      1.0  0.29920  0.39824  0.07361  1.0000
  S   S73       1.0  0.30743  0.37755  0.04978  1.0000
  S   S74       1.0  0.26758  0.39315  0.08751  1.0000
  Fe  Fe38      1.0  0.32709  0.37857  0.08708  1.0000
  S   S75       1.0  0.32847  0.35293  0.11398  1.0000
  Fe  Fe39      1.0  0.33273  0.40344  0.02792  1.0000
  S   S76       1.0  0.31728  0.39745  0.11254  1.0000
  S   S77       1.0  0.32321  0.42441  0.04913  1.0000
  H   H165      1.0  0.04965  0.42781  0.29064  1.0000
  H   H166      1.0  0.33817  0.34811  0.44258  1.0000
  S   S78       1.0  0.29002  0.28528  0.03832  1.0000
  Fe  Fe40      1.0  0.42312  0.32832  0.45590  1.0000
  S   S79       1.0  0.43801  0.32418  0.41396  1.0000
  Fe  Fe41      1.0  0.38349  0.31457  0.43170  1.0000
  S   S80       1.0  0.39477  0.30901  0.38827  1.0000
  S   S81       1.0  0.35211  0.30930  0.44465  1.0000
  Fe  Fe42      1.0  0.41203  0.29636  0.41665  1.0000
  Fe  Fe43      1.0  0.41951  0.33730  0.38890  1.0000
  S   S82       1.0  0.42846  0.35530  0.34324  1.0000
  S   S83       1.0  0.39871  0.29956  0.46037  1.0000
  S   S84       1.0  0.40674  0.34375  0.43055  1.0000
  C   C161      1.0  0.30999  0.29593  0.37091  1.0000
  C   C162      1.0  0.31610  0.29908  0.42316  1.0000
  C   C163      1.0  0.33611  0.30383  0.41609  1.0000
  C   C164      1.0  0.34303  0.30469  0.38637  1.0000
  C   C165      1.0  0.32999  0.30076  0.36377  1.0000
  H   H167      1.0  0.35841  0.30870  0.38057  1.0000
  H   H168      1.0  0.33540  0.30144  0.34079  1.0000
  C   C166      1.0  0.31948  0.33375  0.09307  1.0000
  C   C167      1.0  0.31013  0.31521  0.10763  1.0000
  C   C168      1.0  0.30150  0.30006  0.09084  1.0000
  C   C169      1.0  0.30257  0.30347  0.05951  1.0000
  C   C170      1.0  0.31234  0.32194  0.04497  1.0000
  C   C171      1.0  0.32072  0.33708  0.06175  1.0000
  H   H169      1.0  0.30914  0.31264  0.13187  1.0000
  H   H170      1.0  0.29390  0.28579  0.10214  1.0000
  H   H171      1.0  0.31312  0.32457  0.02075  1.0000
  H   H172      1.0  0.32825  0.35132  0.05042  1.0000
  C   C172      1.0  0.21489  0.36228  0.03547  1.0000
  C   C173      1.0  0.21243  0.36352  0.06609  1.0000
  C   C174      1.0  0.22878  0.37282  0.08181  1.0000
  C   C175      1.0  0.24776  0.38046  0.06729  1.0000
  C   C176      1.0  0.25033  0.37849  0.03699  1.0000
  C   C177      1.0  0.23391  0.36965  0.02105  1.0000
  H   H173      1.0  0.19788  0.35804  0.07739  1.0000
  H   H174      1.0  0.22671  0.37426  0.10529  1.0000
  H   H175      1.0  0.21319  0.41918  0.01525  1.0000
  S   S85       1.0  0.20510  0.26666  0.42180  1.0000
  C   C178      1.0  0.45815  0.30451  0.47918  1.0000
  H   H176      1.0  0.29845  0.27733  0.28397  1.0000
  C   C179      1.0  0.39813  0.46450  0.05011  1.0000
  C   C180      1.0  0.30307  0.29520  0.40057  1.0000
  C   C181      1.0  0.32998  0.34479  0.36902  1.0000
  C   C182      1.0  0.41968  0.44884  0.14927  1.0000
  C   C183      1.0  0.40994  0.43438  0.13170  1.0000
  C   C184      1.0  0.39226  0.43320  0.11952  1.0000
  C   C185      1.0  0.38429  0.44672  0.12431  1.0000
  C   C186      1.0  0.39410  0.46127  0.14169  1.0000
  C   C187      1.0  0.41162  0.46225  0.15435  1.0000
  H   H177      1.0  0.41604  0.42392  0.12767  1.0000
  H   H178      1.0  0.38493  0.42195  0.10615  1.0000
  H   H179      1.0  0.38811  0.47186  0.14547  1.0000
  H   H180      1.0  0.41899  0.47349  0.16775  1.0000
  C   C188      1.0  0.44866  0.42016  0.32059  1.0000
  C   C189      1.0  0.44687  0.40848  0.29790  1.0000
  C   C190      1.0  0.44070  0.38867  0.30531  1.0000
  C   C191      1.0  0.43628  0.38032  0.33538  1.0000
  C   C192      1.0  0.43802  0.39199  0.35808  1.0000
  C   C193      1.0  0.44418  0.41182  0.35067  1.0000
  H   H181      1.0  0.45027  0.41470  0.27468  1.0000
  H   H182      1.0  0.24583  0.28566  0.03214  1.0000
  H   H183      1.0  0.43478  0.38577  0.38132  1.0000
  H   H184      1.0  0.44559  0.42076  0.36837  1.0000
  C   C194      1.0  0.44769  0.28982  0.46270  1.0000
  H   H185      1.0  0.08343  0.50076  0.31608  1.0000
  C   C195      1.0  0.40858  0.43627  0.02985  1.0000
  C   C196      1.0  0.20856  0.27585  0.45686  1.0000
  C   C197      1.0  0.22219  0.27334  0.47586  1.0000
  S   S86       1.0  0.41444  0.26938  0.40398  1.0000
  H   H186      1.0  0.38740  0.36545  0.34113  1.0000
  H   H187      1.0  0.21833  0.33036  0.09379  1.0000
  C   C198      1.0  0.11416  0.36306  0.19369  1.0000
  C   C199      1.0  0.10104  0.36627  0.17432  1.0000
  C   C200      1.0  0.10051  0.36098  0.14506  1.0000
  C   C201      1.0  0.11284  0.35219  0.13499  1.0000
  C   C202      1.0  0.12578  0.34873  0.15450  1.0000
  C   C203      1.0  0.12652  0.35428  0.18361  1.0000
  H   H188      1.0  0.09149  0.37306  0.18169  1.0000
  H   H189      1.0  0.09050  0.36377  0.13011  1.0000
  H   H190      1.0  0.13535  0.34199  0.14706  1.0000
  H   H191      1.0  0.13676  0.35177  0.19832  1.0000
  C   C204      1.0  0.09178  0.39963  0.39288  1.0000
  C   C205      1.0  0.07311  0.40004  0.39105  1.0000
  C   C206      1.0  0.06231  0.40062  0.41704  1.0000
  C   C207      1.0  0.06992  0.40051  0.44519  1.0000
  C   C208      1.0  0.08864  0.40017  0.44713  1.0000
  C   C209      1.0  0.09956  0.39981  0.42098  1.0000
  H   H192      1.0  0.06691  0.39990  0.36967  1.0000
  H   H193      1.0  0.04784  0.40090  0.41540  1.0000
  H   H194      1.0  0.09464  0.40009  0.46875  1.0000
  H   H195      1.0  0.11406  0.39960  0.42259  1.0000
  H   H196      1.0  0.38381  0.43091  0.00341  1.0000
  H   H197      1.0  0.31069  0.29862  0.44607  1.0000
  H   H198      1.0  0.03357  0.35209  0.24050  1.0000
  H   H199      1.0  0.06479  0.34904  0.41149  1.0000
  C   C210      1.0  0.05932  0.44673  0.24937  1.0000
  C   C211      1.0  0.05749  0.46217  0.23201  1.0000
  C   C212      1.0  0.04481  0.47053  0.24221  1.0000
  C   C213      1.0  0.03432  0.46383  0.27030  1.0000
  C   C214      1.0  0.03608  0.44834  0.28763  1.0000
  C   C215      1.0  0.04832  0.43962  0.27702  1.0000
  H   H200      1.0  0.06601  0.46778  0.21063  1.0000
  H   H201      1.0  0.02809  0.44319  0.30947  1.0000
  H   H202      1.0  0.37203  0.35616  0.42151  1.0000
  H   H203      1.0  0.16206  0.27238  0.04757  1.0000
  H   H204      1.0  0.22676  0.27389  0.06171  1.0000
  H   H205      1.0  0.36529  0.26626  0.42409  1.0000
  C   C216      1.0  0.37037  0.45701  0.01891  1.0000
  H   H206      1.0  0.34640  0.41484  0.16837  1.0000
  Fe  Fe44      1.0  0.00471  0.48802  0.25337  1.0000
  C   C217      1.0  0.41967  0.44738  0.05059  1.0000
  C   C218      1.0  0.26359  0.32988  0.07905  1.0000
  C   C219      1.0  0.18374  0.39238  0.09954  1.0000
  C   C220      1.0  0.34934  0.34941  0.35768  1.0000
  C   C221      1.0  0.39239  0.43962  0.01952  1.0000
  H   H207      1.0  0.27893  0.33758  0.08242  1.0000
  C   C222      1.0  0.38426  0.35772  0.36420  1.0000
  S   S87       1.0  0.29379  0.29118  0.34263  1.0000
  C   C223      1.0  0.32595  0.34468  0.39964  1.0000
  H   H208      1.0  0.06857  0.35761  0.46312  1.0000
  C   C224      1.0  0.01810  0.34451  0.24613  1.0000
  H   H209      1.0  0.22547  0.40469  0.03233  1.0000
  H   H210      1.0  0.25447  0.27664  0.20342  1.0000
  C   C225      1.0  0.01980  0.40788  0.22471  1.0000
  H   H211      1.0  0.04378  0.48267  0.22890  1.0000
  C   C226      1.0  0.35743  0.40909  0.17380  1.0000
  C   C227      1.0  0.38664  0.39557  0.18614  1.0000
  C   C228      1.0  0.40223  0.42127  0.21677  1.0000
  H   H212      1.0  0.04705  0.33619  0.47544  1.0000
  C   C229      1.0  0.17658  0.38708  0.04026  1.0000
  H   H213      1.0  0.36065  0.44497  0.00766  1.0000
  C   C230      1.0  0.35716  0.39278  0.16206  1.0000
  C   C231      1.0  0.01056  0.34022  0.27614  1.0000
  H   H214      1.0  0.34572  0.38552  0.14797  1.0000
  H   H215      1.0  0.18552  0.28654  0.45236  1.0000
  C   C232      1.0  0.16093  0.38027  0.06244  1.0000
  C   C233      1.0  0.00557  0.33883  0.22319  1.0000
  H   H216      1.0  0.38633  0.34412  0.36350  1.0000
  H   H217      1.0  0.39734  0.41562  0.24067  1.0000
  C   C234      1.0  0.21143  0.40448  0.02385  1.0000
  H   H218      1.0  0.07311  0.49056  0.28296  1.0000
  N   N17       1.0  0.12745  0.34752  0.29965  1.0000
  C   C235      1.0  0.13407  0.36688  0.29875  1.0000
  C   C236      1.0  0.11848  0.33600  0.32559  1.0000
  C   C237      1.0  0.13212  0.37517  0.32444  1.0000
  C   C238      1.0  0.11642  0.34383  0.35178  1.0000
  C   C239      1.0  0.12335  0.36355  0.35113  1.0000
  C   C240      1.0  0.12905  0.33889  0.27244  1.0000
  H   H219      1.0  0.14071  0.37605  0.27801  1.0000
  H   H220      1.0  0.11283  0.32066  0.32610  1.0000
  H   H221      1.0  0.13707  0.39052  0.32359  1.0000
  H   H222      1.0  0.10939  0.33468  0.37236  1.0000
  H   H223      1.0  0.12172  0.36987  0.37116  1.0000
  H   H224      1.0  0.14038  0.34917  0.25549  1.0000
  H   H225      1.0  0.13315  0.32642  0.27759  1.0000
  H   H226      1.0  0.11481  0.33433  0.26203  1.0000
  N   N18       1.0  0.25843  0.27775  0.25015  1.0000
  H   H227      1.0  0.31738  0.26220  0.41985  1.0000
  C   C241      1.0  0.27067  0.27814  0.27244  1.0000
  H   H228      1.0  0.00436  0.36237  0.41400  1.0000
  S   S88       1.0  0.00366  0.48228  0.20537  1.0000
  C   C242      1.0  0.00513  0.38980  0.23280  1.0000
  C   C243      1.0  0.16928  0.26620  0.06336  1.0000
  H   H229      1.0  0.22193  0.28635  0.02865  1.0000
  H   H230      1.0  0.37277  0.43124  0.20018  1.0000
  H   H231      1.0  0.39381  0.47522  0.05884  1.0000
  H   H232      1.0  0.01891  0.35850  0.36531  1.0000
  H   H233      1.0  0.07199  0.27163  0.01525  1.0000
  H   H234      1.0  0.01143  0.34246  0.19997  1.0000
  S   S89       1.0  0.43991  0.34115  0.49463  1.0000
  Fe  Fe45      1.0  0.26518  0.26811  0.36102  1.0000
  N   N19       1.0  0.08041  0.47213  0.31506  1.0000
  C   C244      1.0  0.09201  0.46823  0.29440  1.0000
  C   C245      1.0  0.07581  0.46219  0.34320  1.0000
  C   C246      1.0  0.09900  0.45381  0.30151  1.0000
  C   C247      1.0  0.08271  0.44778  0.35116  1.0000
  C   C248      1.0  0.09437  0.44360  0.33012  1.0000
  C   C249      1.0  0.07359  0.48760  0.30761  1.0000
  H   H235      1.0  0.09547  0.47587  0.27190  1.0000
  H   H236      1.0  0.06669  0.46534  0.35962  1.0000
  H   H237      1.0  0.10766  0.45039  0.28468  1.0000
  H   H238      1.0  0.07903  0.43989  0.37348  1.0000
  H   H239      1.0  0.09974  0.43241  0.33592  1.0000
  C   C250      1.0  0.28254  0.27659  0.21382  1.0000
  C   C251      1.0  0.01756  0.35934  0.41328  1.0000
  H   H240      1.0  0.18671  0.39438  0.12270  1.0000
  H   H241      1.0  0.43941  0.37973  0.28762  1.0000
  C   C252      1.0  0.43591  0.27208  0.47778  1.0000
  H   H242      1.0  0.23352  0.27226  0.28068  1.0000
  C   C253      1.0  0.41454  0.46169  0.06063  1.0000
  C   C254      1.0  0.22453  0.30955  0.07065  1.0000
  H   H243      1.0  0.41609  0.41936  0.21091  1.0000
  C   C255      1.0  0.01457  0.42295  0.21393  1.0000
  C   C256      1.0  0.34123  0.34907  0.41852  1.0000
  N   N20       1.0  0.36426  0.35393  0.37630  1.0000
  S   S90       1.0  0.23628  0.26865  0.34918  1.0000
  H   H244      1.0  0.39540  0.36670  0.37811  1.0000
  C   C257      1.0  0.02573  0.35723  0.38601  1.0000
  C   C258      1.0  0.24929  0.33602  0.08964  1.0000
  N   N21       1.0  0.19534  0.39646  0.04758  1.0000
  H   H245      1.0  0.26916  0.30899  0.05597  1.0000
  H   H246      1.0  0.24057  0.29366  0.25441  1.0000
  C   C259      1.0  0.25799  0.31367  0.06413  1.0000
  H   H247      1.0  0.03512  0.41018  0.22671  1.0000
  H   H248      1.0  0.25347  0.34869  0.10103  1.0000
  H   H249      1.0  0.31807  0.34052  0.35441  1.0000
  S   S91       1.0  0.15100  0.27762  0.10792  1.0000
  H   H250      1.0  0.20860  0.39570  0.00491  1.0000
  H   H251      1.0  0.44859  0.29211  0.43834  1.0000
  C   C260      1.0  0.05231  0.35154  0.46678  1.0000
  C   C261      1.0  0.26425  0.27725  0.22107  1.0000
  C   C262      1.0  0.23306  0.28663  0.04479  1.0000
  H   H252      1.0  0.30891  0.27551  0.23127  1.0000
  H   H253      1.0  0.36139  0.45884  0.03790  1.0000
  C   C263      1.0  0.04278  0.35346  0.38539  1.0000
  H   H254      1.0  0.20917  0.30155  0.06778  1.0000
  H   H255      1.0  0.31093  0.34042  0.40891  1.0000
  C   C264      1.0  0.19605  0.28446  0.46697  1.0000
  C   C265      1.0  0.36040  0.35357  0.40644  1.0000
  C   C266      1.0  0.35060  0.25880  0.43642  1.0000
  N   N22       1.0  0.38723  0.45345  0.02998  1.0000
  H   H256      1.0  0.40599  0.43689  0.21383  1.0000
  C   C267      1.0  0.22960  0.32577  0.08553  1.0000
  H   H257      1.0  0.28777  0.29223  0.40603  1.0000
  S   S92       1.0  0.05490  0.39960  0.47722  1.0000
  C   C268      1.0  0.19903  0.39929  0.07674  1.0000
  H   H258      1.0  0.39808  0.39025  0.19068  1.0000
  H   H259      1.0  0.35228  0.34881  0.33405  1.0000
  C   C269      1.0  0.37182  0.38594  0.16823  1.0000
  H   H260      1.0  0.26489  0.38440  0.02557  1.0000
  H   H261      1.0  0.00928  0.37812  0.24105  1.0000
  H   H262      1.0  0.12179  0.26684  0.00170  1.0000
  C   C270      1.0  0.28902  0.27741  0.26602  1.0000
  C   C271      1.0  0.05146  0.35183  0.41219  1.0000
  S   S93       1.0  0.48736  0.49345  0.18935  1.0000
  H   H263      1.0  0.26618  0.27872  0.29545  1.0000
  H   H264      1.0  0.46701  0.31839  0.46730  1.0000
  C   C272      1.0  0.37245  0.41836  0.19165  1.0000
  C   C273      1.0  0.16457  0.38288  0.09224  1.0000
  C   C274      1.0  0.02660  0.35760  0.43966  1.0000
  H   H265      1.0  0.15250  0.37751  0.10957  1.0000
  Fe  Fe46      1.0  0.47818  0.50176  0.23239  1.0000
  H   H266      1.0  0.04920  0.35187  0.36417  1.0000
  H   H267      1.0  0.22823  0.27030  0.24265  1.0000
  H   H268      1.0  0.21392  0.40667  0.08255  1.0000
  C   C275      1.0  0.23930  0.27867  0.25724  1.0000
  H   H269      1.0  0.42277  0.47010  0.07732  1.0000
  H   H270      1.0  0.04850  0.35918  0.48432  1.0000
  H   H271      1.0  0.28672  0.27534  0.19092  1.0000
  H   H272      1.0  0.02577  0.43702  0.20750  1.0000
  C   C276      1.0  0.16694  0.26745  0.09403  1.0000
  Fe  Fe47      1.0  0.27125  0.25844  0.06716  1.0000
  H   H273      1.0  0.34595  0.26975  0.44493  1.0000
  H   H274      1.0  0.10396  0.26661  0.02984  1.0000
  H   H275      1.0  0.05836  0.48375  0.31760  1.0000
  C   C277      1.0  0.99488  0.41980  0.21118  1.0000
  H   H276      1.0  0.17439  0.25989  0.13809  1.0000
  H   H277      1.0  0.41236  0.42503  0.02197  1.0000
  H   H278      1.0  0.23188  0.26671  0.46841  1.0000
  H   H279      1.0  0.37548  0.47006  0.00248  1.0000
  H   H280      1.0  0.14601  0.37296  0.05669  1.0000
  H   H281      1.0  0.42777  0.26063  0.46513  1.0000
  H   H282      1.0  0.48895  0.43622  0.28053  1.0000
  H   H283      1.0  0.17365  0.38463  0.01720  1.0000
  H   H284      1.0  0.23591  0.36887  0.99729  1.0000
  C   C278      1.0  0.17618  0.25904  0.11431  1.0000
  S   S94       1.0  0.25537  0.25781  0.40962  1.0000
  C   C279      1.0  0.19670  0.28994  0.49609  1.0000
  Fe  Fe48      1.0  0.15387  0.30022  0.61316  1.0000
  S   S95       1.0  0.16169  0.30551  0.56353  1.0000
  S   S96       1.0  0.12376  0.28281  0.63643  1.0000
  Fe  Fe49      1.0  0.19418  0.32890  0.62735  1.0000
  S   S97       1.0  0.20479  0.33714  0.57824  1.0000
  S   S98       1.0  0.20908  0.33636  0.67085  1.0000
  Fe  Fe50      1.0  0.17431  0.33630  0.57119  1.0000
  S   S99       1.0  0.16441  0.35469  0.53852  1.0000
  Fe  Fe51      1.0  0.19127  0.30576  0.57430  1.0000
  S   S100      1.0  0.20900  0.29052  0.55383  1.0000
  S   S101      1.0  0.16492  0.33094  0.62030  1.0000
  S   S102      1.0  0.18223  0.29750  0.62378  1.0000
  Fe  Fe52      1.0  0.04915  0.38031  0.58719  1.0000
  S   S103      1.0  0.07077  0.40274  0.61016  1.0000
  S   S104      1.0  0.02719  0.35510  0.61563  1.0000
  Fe  Fe53      1.0  0.06440  0.40131  0.52470  1.0000
  S   S105      1.0  0.08739  0.42592  0.54279  1.0000
  Fe  Fe54      1.0  0.09221  0.40301  0.57320  1.0000
  S   S106      1.0  0.12082  0.40384  0.59003  1.0000
  Fe  Fe55      1.0  0.06385  0.42328  0.57841  1.0000
  S   S107      1.0  0.05697  0.44781  0.59314  1.0000
  S   S108      1.0  0.07098  0.37861  0.55269  1.0000
  S   S109      1.0  0.04051  0.40064  0.55783  1.0000
  H   H285      1.0  0.33652  0.36307  0.95921  1.0000
  H   H286      1.0  0.01819  0.33070  0.51858  1.0000
  Fe  Fe56      1.0  0.01151  0.49570  0.78395  1.0000
  S   S110      1.0  0.01285  0.49362  0.73456  1.0000
  S   S111      1.0  0.01720  0.26104  0.59629  1.0000
  Fe  Fe57      1.0  0.01154  0.46394  0.74692  1.0000
  S   S112      1.0  0.03167  0.45028  0.72916  1.0000
  N   N23       1.0  0.44521  0.41648  0.80294  1.0000
  S   S113      1.0  0.01317  0.46723  0.79610  1.0000
  C   C280      1.0  0.06891  0.29604  0.55929  1.0000
  Fe  Fe58      1.0  0.42071  0.34556  0.70473  1.0000
  S   S114      1.0  0.40231  0.33519  0.66619  1.0000
  Fe  Fe59      1.0  0.41002  0.30486  0.73590  1.0000
  S   S115      1.0  0.39123  0.29209  0.69973  1.0000
  S   S116      1.0  0.41168  0.28656  0.77803  1.0000
  Fe  Fe60      1.0  0.41530  0.31301  0.66746  1.0000
  S   S117      1.0  0.42188  0.29973  0.62767  1.0000
  Fe  Fe61      1.0  0.38014  0.31532  0.70182  1.0000
  S   S118      1.0  0.34755  0.30681  0.70313  1.0000
  S   S119      1.0  0.43545  0.32450  0.70369  1.0000
  S   S120      1.0  0.39727  0.32691  0.74026  1.0000
  Fe  Fe62      1.0  0.30654  0.38621  0.75436  1.0000
  S   S121      1.0  0.29284  0.37047  0.79963  1.0000
  S   S122      1.0  0.29447  0.38596  0.70805  1.0000
  Fe  Fe63      1.0  0.34829  0.39990  0.77634  1.0000
  S   S123      1.0  0.33817  0.38468  0.82295  1.0000
  S   S124      1.0  0.37949  0.41266  0.75510  1.0000
  Fe  Fe64      1.0  0.31786  0.36082  0.80080  1.0000
  S   S125      1.0  0.31238  0.33035  0.81511  1.0000
  Fe  Fe65      1.0  0.31398  0.39565  0.81937  1.0000
  S   S126      1.0  0.30262  0.40404  0.86113  1.0000
  S   S127      1.0  0.33013  0.37452  0.75458  1.0000
  S   S128      1.0  0.32551  0.41276  0.77369  1.0000
  S   S129      1.0  0.34683  0.40741  0.98076  1.0000
  H   H287      1.0  0.00794  0.31444  0.62926  1.0000
  C   C281      1.0  0.31520  0.40561  0.89421  1.0000
  C   C282      1.0  0.33436  0.40620  0.89366  1.0000
  C   C283      1.0  0.34393  0.40714  0.92029  1.0000
  C   C284      1.0  0.33440  0.40729  0.94782  1.0000
  C   C285      1.0  0.31528  0.40685  0.94848  1.0000
  C   C286      1.0  0.30577  0.40612  0.92170  1.0000
  H   H288      1.0  0.34198  0.40633  0.87263  1.0000
  H   H289      1.0  0.35877  0.40764  0.91953  1.0000
  H   H290      1.0  0.30783  0.40708  0.96954  1.0000
  H   H291      1.0  0.29101  0.40585  0.92228  1.0000
  N   N24       1.0  0.36005  0.39695  0.68542  1.0000
  C   C287      1.0  0.44557  0.28409  0.52486  1.0000
  C   C288      1.0  0.00438  0.33145  0.92571  1.0000
  H   H292      1.0  0.28359  0.36346  0.86761  1.0000
  C   C289      1.0  0.42409  0.31195  0.59140  1.0000
  C   C290      1.0  0.43481  0.33155  0.58556  1.0000
  C   C291      1.0  0.43888  0.34053  0.55581  1.0000
  C   C292      1.0  0.43177  0.33011  0.53179  1.0000
  C   C293      1.0  0.42027  0.31067  0.53778  1.0000
  C   C294      1.0  0.41676  0.30156  0.56743  1.0000
  H   H293      1.0  0.44069  0.33965  0.60384  1.0000
  H   H294      1.0  0.44788  0.35555  0.55135  1.0000
  H   H295      1.0  0.41481  0.30247  0.51950  1.0000
  H   H296      1.0  0.40845  0.28640  0.57180  1.0000
  C   C295      1.0  0.33819  0.31314  0.73487  1.0000
  C   C296      1.0  0.34938  0.32945  0.74746  1.0000
  C   C297      1.0  0.34154  0.33457  0.77250  1.0000
  C   C298      1.0  0.32275  0.32308  0.78549  1.0000
  C   C299      1.0  0.31178  0.30649  0.77342  1.0000
  C   C300      1.0  0.31937  0.30169  0.74780  1.0000
  H   H297      1.0  0.36383  0.33844  0.73742  1.0000
  H   H298      1.0  0.35001  0.34747  0.78170  1.0000
  H   H299      1.0  0.29717  0.29771  0.78327  1.0000
  H   H300      1.0  0.31069  0.28909  0.73806  1.0000
  C   C301      1.0  0.43232  0.46113  0.78380  1.0000
  C   C302      1.0  0.43404  0.45215  0.75882  1.0000
  C   C303      1.0  0.41753  0.43775  0.74986  1.0000
  C   C304      1.0  0.39912  0.43221  0.76565  1.0000
  C   C305      1.0  0.39719  0.44146  0.79020  1.0000
  C   C306      1.0  0.41378  0.45586  0.79926  1.0000
  H   H301      1.0  0.44813  0.45602  0.74670  1.0000
  H   H302      1.0  0.41912  0.43063  0.73090  1.0000
  H   H303      1.0  0.38305  0.43732  0.80251  1.0000
  C   C307      1.0  0.04950  0.44805  0.63094  1.0000
  C   C308      1.0  0.05343  0.43687  0.65436  1.0000
  C   C309      1.0  0.04818  0.43803  0.68430  1.0000
  C   C310      1.0  0.03843  0.44993  0.69110  1.0000
  C   C311      1.0  0.03415  0.46087  0.66769  1.0000
  C   C312      1.0  0.03990  0.46009  0.63773  1.0000
  H   H304      1.0  0.06078  0.42754  0.64953  1.0000
  H   H305      1.0  0.05150  0.42950  0.70232  1.0000
  H   H306      1.0  0.02659  0.47004  0.67264  1.0000
  H   H307      1.0  0.03682  0.46881  0.61972  1.0000
  C   C313      1.0  0.01873  0.33703  0.59254  1.0000
  C   C314      1.0  0.02148  0.34162  0.56133  1.0000
  C   C315      1.0  0.01651  0.28380  0.70285  1.0000
  H   H308      1.0  0.40753  0.26134  0.66035  1.0000
  C   C316      1.0  0.06711  0.31556  0.95589  1.0000
  S   S130      1.0  0.10804  0.29788  0.97924  1.0000
  H   H309      1.0  0.02781  0.35632  0.55150  1.0000
  C   C317      1.0  0.03806  0.27493  0.73467  1.0000
  H   H310      1.0  0.23287  0.27607  0.51998  1.0000
  C   C318      1.0  0.35813  0.27648  0.80586  1.0000
  C   C319      1.0  0.23269  0.35111  0.68048  1.0000
  C   C320      1.0  0.23667  0.35053  0.71091  1.0000
  C   C321      1.0  0.25540  0.36115  0.71977  1.0000
  C   C322      1.0  0.27041  0.37267  0.69825  1.0000
  C   C323      1.0  0.26639  0.37345  0.66783  1.0000
  C   C324      1.0  0.24767  0.36271  0.65894  1.0000
  H   H311      1.0  0.22517  0.34169  0.72778  1.0000
  H   H312      1.0  0.25820  0.36048  0.74324  1.0000
  H   H313      1.0  0.27784  0.38244  0.65101  1.0000
  H   H314      1.0  0.24482  0.36349  0.63550  1.0000
  H   H315      1.0  0.02212  0.41191  0.60964  1.0000
  H   H316      1.0  0.28864  0.34345  0.85737  1.0000
  H   H317      1.0  0.34830  0.41278  0.71050  1.0000
  H   H318      1.0  0.04594  0.30177  0.99337  1.0000
  N   N25       1.0  0.00728  0.39981  0.65237  1.0000
  H   H319      1.0  0.46930  0.37671  0.71845  1.0000
  H   H320      1.0  0.08244  0.27150  0.64843  1.0000
  C   C325      1.0  0.45402  0.41351  0.71488  1.0000
  C   C326      1.0  0.15174  0.36764  0.55360  1.0000
  C   C327      1.0  0.13757  0.37154  0.53723  1.0000
  C   C328      1.0  0.12745  0.38207  0.54866  1.0000
  C   C329      1.0  0.13186  0.38916  0.57617  1.0000
  C   C330      1.0  0.14589  0.38513  0.59262  1.0000
  C   C331      1.0  0.15564  0.37421  0.58155  1.0000
  C   C332      1.0  0.06323  0.26863  0.93066  1.0000
  C   C333      1.0  0.33843  0.26460  0.76516  1.0000
  H   H321      1.0  0.14939  0.39060  0.61389  1.0000
  H   H322      1.0  0.16661  0.37136  0.59422  1.0000
  H   H323      1.0  0.15434  0.26752  0.53275  1.0000
  C   C334      1.0  0.08149  0.28057  0.93946  1.0000
  H   H324      1.0  0.01830  0.38116  0.71744  1.0000
  C   C335      1.0  0.01242  0.32780  0.89935  1.0000
  H   H325      1.0  0.38791  0.41910  0.68807  1.0000
  H   H326      1.0  0.06262  0.28241  0.55060  1.0000
  N   N26       1.0  0.09615  0.31967  0.57875  1.0000
  C   C336      1.0  0.08528  0.33051  0.58222  1.0000
  C   C337      1.0  0.08828  0.30275  0.56719  1.0000
  C   C338      1.0  0.11624  0.32579  0.58789  1.0000
  H   H327      1.0  0.09158  0.34406  0.59107  1.0000
  H   H328      1.0  0.09698  0.29430  0.56420  1.0000
  H   H329      1.0  0.12660  0.32674  0.56862  1.0000
  H   H330      1.0  0.12120  0.33996  0.59607  1.0000
  H   H331      1.0  0.11726  0.31544  0.60630  1.0000
  H   H332      1.0  0.28779  0.33933  0.68603  1.0000
  H   H333      1.0  0.04271  0.27293  0.75698  1.0000
  S   S131      1.0  0.48777  0.48088  0.72669  1.0000
  C   C339      1.0  0.00499  0.40191  0.71377  1.0000
  H   H334      1.0  0.00457  0.28863  0.69996  1.0000
  H   H335      1.0  0.27497  0.33749  0.63577  1.0000
  C   C340      1.0  0.34901  0.25861  0.82273  1.0000
  H   H336      1.0  0.44457  0.28176  0.54920  1.0000
  H   H337      1.0  0.41230  0.46277  0.81858  1.0000
  C   C341      1.0  0.46931  0.31655  0.52668  1.0000
  C   C342      1.0  0.44278  0.40134  0.78743  1.0000
  H   H338      1.0  0.11677  0.38525  0.53572  1.0000
  C   C343      1.0  0.46468  0.43160  0.80263  1.0000
  H   H339      1.0  0.45535  0.39985  0.77647  1.0000
  N   N27       1.0  0.11831  0.44715  0.61446  1.0000
  H   H340      1.0  0.05438  0.47967  0.76721  1.0000
  H   H341      1.0  0.35989  0.29314  0.76347  1.0000
  H   H342      1.0  0.23099  0.30086  0.72487  1.0000
  C   C344      1.0  0.26547  0.32884  0.65511  1.0000
  C   C345      1.0  0.05160  0.25849  0.98288  1.0000
  C   C346      1.0  0.99981  0.41200  0.66330  1.0000
  H   H343      1.0  0.99819  0.28879  0.59619  1.0000
  C   C347      1.0  0.07049  0.31831  0.92468  1.0000
  C   C348      1.0  0.29447  0.35806  0.92620  1.0000
  Fe  Fe66      1.0  0.99904  0.26236  0.55787  1.0000
  H   H344      1.0  0.26587  0.32078  0.73084  1.0000
  C   C349      1.0  0.06584  0.32426  0.57446  1.0000
  H   H345      1.0  0.33407  0.37213  0.68492  1.0000
  H   H346      1.0  0.22692  0.30355  0.62003  1.0000
  H   H347      1.0  0.04569  0.26751  0.66364  1.0000
  C   C350      1.0  0.10405  0.27074  0.61566  1.0000
  C   C351      1.0  0.13376  0.44941  0.59461  1.0000
  H   H348      1.0  0.47140  0.44200  0.72300  1.0000
  H   H349      1.0  0.00222  0.28497  0.95141  1.0000
  H   H350      1.0  0.26982  0.33981  0.88637  1.0000
  H   H351      1.0  0.08506  0.32677  0.91422  1.0000
  H   H352      1.0  0.01241  0.26882  0.96903  1.0000
  H   H353      1.0  0.12546  0.47741  0.53749  1.0000
  S   S132      1.0  0.01263  0.30620  0.85436  1.0000
  C   C352      1.0  0.02325  0.28202  0.73118  1.0000
  C   C353      1.0  0.37998  0.40411  0.68641  1.0000
  H   H354      1.0  0.02676  0.33743  0.88960  1.0000
  H   H355      1.0  0.35734  0.42337  0.67244  1.0000
  C   C354      1.0  0.02482  0.27879  0.67836  1.0000
  H   H356      1.0  0.46644  0.43837  0.82370  1.0000
  Fe  Fe67      1.0  0.00437  0.27466  0.85854  1.0000
  C   C355      1.0  0.01014  0.31799  0.60513  1.0000
  C   C356      1.0  0.23855  0.31759  0.62243  1.0000
  N   N28       1.0  0.04574  0.26954  0.71068  1.0000
  N   N29       1.0  0.45709  0.30149  0.50987  1.0000
  H   H357      1.0  0.05715  0.33277  0.57745  1.0000
  C   C357      1.0  0.24095  0.30835  0.70532  1.0000
  C   C358      1.0  0.08482  0.26687  0.62719  1.0000
  H   H358      1.0  0.43323  0.28555  0.68475  1.0000
  H   H359      1.0  0.25011  0.32055  0.60396  1.0000
  H   H360      1.0  0.09998  0.42954  0.65252  1.0000
  H   H361      1.0  0.09801  0.47392  0.57447  1.0000
  H   H362      1.0  0.12012  0.42347  0.64169  1.0000
  C   C359      1.0  0.26048  0.31957  0.70866  1.0000
  C   C360      1.0  0.01283  0.38969  0.70240  1.0000
  H   H363      1.0  0.47164  0.33087  0.51507  1.0000
  H   H364      1.0  0.44120  0.41671  0.71079  1.0000
  C   C361      1.0  0.42933  0.41835  0.81671  1.0000
  H   H365      1.0  0.43119  0.43063  0.82834  1.0000
  N   N30       1.0  0.29881  0.35307  0.89923  1.0000
  H   H366      1.0  0.34434  0.35420  0.90981  1.0000
  C   C362      1.0  0.03670  0.29812  0.92113  1.0000
  H   H367      1.0  0.09374  0.45463  0.62350  1.0000
  C   C363      1.0  0.04834  0.30420  0.96910  1.0000
  H   H368      1.0  0.01933  0.27972  0.65641  1.0000
  H   H369      1.0  0.40217  0.25987  0.83186  1.0000
  C   C364      1.0  0.05520  0.30953  0.90713  1.0000
  C   C365      1.0  0.34993  0.37787  0.68489  1.0000
  C   C366      1.0  0.48720  0.40559  0.72572  1.0000
  C   C367      1.0  0.12368  0.46920  0.55929  1.0000
  H   H370      1.0  0.33443  0.40338  0.67958  1.0000
  C   C368      1.0  0.42403  0.38790  0.78458  1.0000
  C   C369      1.0  0.41038  0.40501  0.81473  1.0000
  C   C370      1.0  0.46980  0.39097  0.71923  1.0000
  Fe  Fe68      1.0  0.48342  0.48697  0.77345  1.0000
  C   C371      1.0  0.45312  0.39494  0.71375  1.0000
  H   H371      1.0  0.42214  0.37633  0.77127  1.0000
  S   S133      1.0  0.45317  0.47775  0.79773  1.0000
  C   C372      1.0  0.10830  0.46726  0.58001  1.0000
  H   H372      1.0  0.35178  0.35024  0.68540  1.0000
  S   S134      1.0  0.43045  0.37735  0.70687  1.0000
  C   C373      1.0  0.40773  0.38990  0.79806  1.0000
  C   C374      1.0  0.06053  0.49486  0.75985  1.0000
  H   H373      1.0  0.33426  0.26691  0.74261  1.0000
  C   C375      1.0  0.35281  0.27942  0.77690  1.0000
  C   C376      1.0  0.22269  0.27863  0.50512  1.0000
  C   C377      1.0  0.11564  0.43569  0.64367  1.0000
  C   C378      1.0  0.28453  0.34977  0.87651  1.0000
  H   H374      1.0  0.13455  0.36651  0.51557  1.0000
  H   H375      1.0  0.39775  0.40695  0.82465  1.0000
  H   H376      1.0  0.06094  0.26785  0.90710  1.0000
  C   C379      1.0  0.05765  0.30688  0.56298  1.0000
  C   C380      1.0  0.01390  0.38884  0.67141  1.0000
  H   H377      1.0  0.14371  0.44233  0.60001  1.0000
  H   H378      1.0  0.21863  0.29968  0.67439  1.0000
  C   C381      1.0  0.48797  0.42414  0.72722  1.0000
  H   H379      1.0  0.07911  0.32167  0.96978  1.0000
  C   C382      1.0  0.10586  0.45617  0.60769  1.0000
  H   H380      1.0  0.39304  0.38006  0.79499  1.0000
  C   C383      1.0  0.01596  0.32716  0.54270  1.0000
  H   H381      1.0  0.23215  0.32860  0.61958  1.0000
  H   H382      1.0  0.02507  0.29093  0.90743  1.0000
  H   H383      1.0  0.01104  0.28829  0.98772  1.0000
  C   C384      1.0  0.30779  0.36131  0.94838  1.0000
  N   N31       1.0  0.03334  0.29597  0.95166  1.0000
  H   H384      1.0  0.12459  0.44458  0.65999  1.0000
  H   H385      1.0  0.36958  0.28788  0.81487  1.0000
  H   H386      1.0  0.01237  0.34405  0.93601  1.0000
  N   N32       1.0  0.24637  0.31762  0.65198  1.0000
  C   C385      1.0  0.08486  0.28185  0.96996  1.0000
  C   C386      1.0  0.47122  0.42794  0.72188  1.0000
  H   H387      1.0  0.40604  0.39775  0.68870  1.0000
  H   H388      1.0  0.18676  0.29624  0.50372  1.0000
  C   C387      1.0  0.33026  0.35508  0.91477  1.0000
  H   H389      1.0  0.16785  0.26266  0.56221  1.0000
  S   S135      1.0  0.02767  0.26275  0.85601  1.0000
  C   C388      1.0  0.34950  0.40972  0.68698  1.0000
  H   H390      1.0  0.09306  0.28901  0.92242  1.0000
  H   H391      1.0  0.02022  0.37945  0.66265  1.0000
  C   C389      1.0  0.43055  0.26639  0.72498  1.0000
  C   C390      1.0  0.27283  0.32994  0.68345  1.0000
  C   C391      1.0  0.38013  0.37264  0.68660  1.0000
  C   C392      1.0  0.31648  0.35166  0.89325  1.0000
  H   H392      1.0  0.32005  0.34797  0.87168  1.0000
  C   C393      1.0  0.35982  0.36543  0.68536  1.0000
  H   H393      1.0  0.14842  0.46142  0.55060  1.0000
  C   C394      1.0  0.39030  0.39208  0.68707  1.0000
  H   H394      1.0  0.28080  0.35993  0.93045  1.0000
  C   C395      1.0  0.10713  0.26469  0.58824  1.0000
  H   H395      1.0  0.48375  0.31549  0.52917  1.0000
  C   C396      1.0  0.39424  0.26299  0.78646  1.0000
  C   C397      1.0  0.32583  0.35991  0.94251  1.0000
  H   H396      1.0  0.47656  0.42614  0.79996  1.0000
  C   C398      1.0  0.23407  0.30762  0.67665  1.0000
  H   H397      1.0  0.12189  0.26752  0.57931  1.0000
  H   H398      1.0  0.38800  0.36318  0.68770  1.0000
  H   H399      1.0  0.99589  0.39976  0.60947  1.0000
  H   H400      1.0  0.04260  0.30177  0.55695  1.0000
  H   H401      1.0  0.46210  0.31559  0.54932  1.0000
  C   C399      1.0  0.00203  0.31156  0.88595  1.0000
  C   C400      1.0  0.20974  0.28666  0.51555  1.0000
  H   H402      1.0  0.44139  0.27726  0.73585  1.0000
  C   C401      1.0  0.13655  0.46026  0.56662  1.0000
  H   H403      1.0  0.30449  0.36561  0.96956  1.0000
  H   H404      1.0  0.38317  0.26124  0.74282  1.0000
  C   C402      1.0  0.01381  0.28389  0.96573  1.0000
  C   C403      1.0  0.00786  0.30811  0.55524  1.0000
  C   C404      1.0  0.00477  0.30350  0.58645  1.0000
  H   H405      1.0  0.46668  0.44277  0.78357  1.0000
  H   H406      1.0  0.07562  0.27325  0.71253  1.0000
  H   H407      1.0  0.05761  0.31122  0.88285  1.0000
  H   H408      1.0  0.01660  0.28542  0.75056  1.0000
  C   C405      1.0  0.42592  0.27122  0.69620  1.0000
  C   C406      1.0  0.99831  0.41304  0.69416  1.0000
  C   C407      1.0  0.03962  0.27177  0.68266  1.0000
  H   H409      1.0  0.05741  0.49139  0.71308  1.0000
  H   H410      1.0  0.00457  0.40320  0.73764  1.0000
  C   C408      1.0  0.43466  0.26919  0.50907  1.0000
  C   C409      1.0  0.00916  0.39939  0.61990  1.0000
  S   S136      1.0  0.00310  0.29028  0.53169  1.0000
  C   C410      1.0  0.06229  0.50145  0.72938  1.0000
  C   C411      1.0  0.06975  0.27076  0.99170  1.0000
  H   H411      1.0  0.01096  0.38622  0.61443  1.0000
  H   H412      1.0  0.49240  0.47493  0.65975  1.0000
  H   H413      1.0  0.99534  0.42129  0.64809  1.0000
  C   C412      1.0  0.06085  0.26163  0.71500  1.0000
  H   H414      1.0  0.06444  0.50269  0.80447  1.0000
  S   S137      1.0  0.00936  0.72907  0.14311  1.0000
  S   S138      1.0  0.01908  0.53008  0.15078  1.0000
  Fe  Fe69      1.0  0.08221  0.67768  0.04739  1.0000
  Fe  Fe70      1.0  0.06645  0.63619  0.07744  1.0000
  S   S139      1.0  0.05029  0.62485  0.03788  1.0000
  S   S140      1.0  0.06671  0.61871  0.12130  1.0000
  Fe  Fe71      1.0  0.04158  0.64986  0.03584  1.0000
  S   S141      1.0  0.01192  0.64865  0.02424  1.0000
  S   S142      1.0  0.05537  0.65976  0.07779  1.0000
  S   S143      1.0  0.02003  0.72966  0.39736  1.0000
  C   C413      1.0  0.02883  0.55524  0.14506  1.0000
  C   C414      1.0  0.02899  0.56446  0.11632  1.0000
  C   C415      1.0  0.03938  0.58421  0.10935  1.0000
  C   C416      1.0  0.05014  0.59484  0.13090  1.0000
  C   C417      1.0  0.04938  0.58575  0.15999  1.0000
  C   C418      1.0  0.03863  0.56605  0.16715  1.0000
  H   H415      1.0  0.02142  0.55620  0.09913  1.0000
  H   H416      1.0  0.03980  0.59100  0.08692  1.0000
  H   H417      1.0  0.05767  0.59387  0.17679  1.0000
  H   H418      1.0  0.03877  0.55909  0.18926  1.0000
  N   N33       1.0  0.07917  0.58013  0.08643  1.0000
  C   C419      1.0  0.06634  0.56618  0.07204  1.0000
  C   C420      1.0  0.08858  0.59814  0.07189  1.0000
  C   C421      1.0  0.08515  0.60258  0.04221  1.0000
  C   C422      1.0  0.07185  0.58856  0.02752  1.0000
  Fe  Fe72      1.0  0.00454  0.51208  0.19506  1.0000
  N   N34       1.0  0.04796  0.70994  0.06807  1.0000
  C   C423      1.0  0.05986  0.72646  0.07791  1.0000
  C   C424      1.0  0.03635  0.69494  0.08816  1.0000
  C   C425      1.0  0.06026  0.72826  0.10861  1.0000
  C   C426      1.0  0.03643  0.69616  0.11901  1.0000
  C   C427      1.0  0.04837  0.71301  0.12925  1.0000
  H   H419      1.0  0.02691  0.68200  0.08029  1.0000
  H   H420      1.0  0.02693  0.68422  0.13473  1.0000
  H   H421      1.0  0.04807  0.71434  0.15305  1.0000
  S   S144      1.0  0.09295  0.70873  0.05575  1.0000
  C   C428      1.0  0.08356  0.57557  0.11712  1.0000
  S   S145      1.0  0.00860  0.51880  0.24265  1.0000
  Fe  Fe73      1.0  0.00090  0.73246  0.36063  1.0000
  S   S146      1.0  0.09461  0.65475  0.04999  1.0000
  H   H422      1.0  0.01088  0.63552  0.08697  1.0000
  C   C429      1.0  0.00290  0.64484  0.08475  1.0000
  H   H423      1.0  0.10494  0.74822  0.06026  1.0000
  H   H424      1.0  0.10074  0.73502  0.13126  1.0000
  C   C430      1.0  0.06232  0.57023  0.04250  1.0000
  H   H425      1.0  0.05871  0.55195  0.08370  1.0000
  C   C431      1.0  0.04674  0.70880  0.03578  1.0000
  H   H426      1.0  0.00553  0.73154  0.20547  1.0000
  C   C432      1.0  0.00233  0.73648  0.27992  1.0000
  H   H427      1.0  0.06924  0.74161  0.11614  1.0000
  H   H428      1.0  0.05178  0.55927  0.03141  1.0000
  H   H429      1.0  0.06875  0.73847  0.06188  1.0000
  Fe  Fe74      1.0  0.07733  0.64505  0.01005  1.0000
  H   H430      1.0  0.06890  0.59202  0.00463  1.0000
  C   C433      1.0  0.00101  0.73563  0.22585  1.0000
  S   S147      1.0  0.01130  0.73017  0.31351  1.0000
  C   C434      1.0  0.00834  0.73166  0.25301  1.0000
  Fe  Fe75      1.0  0.01474  0.74477  0.09662  1.0000
  H   H431      1.0  0.01853  0.72454  0.25322  1.0000
  C   C435      1.0  0.99985  0.65190  0.05623  1.0000
  H   H432      1.0  0.01217  0.56793  0.29627  1.0000
  H   H433      1.0  0.03707  0.71595  0.02709  1.0000
  H   H434      1.0  0.04076  0.69378  0.03088  1.0000
  H   H435      1.0  0.09654  0.57162  0.11663  1.0000
  H   H436      1.0  0.08648  0.58794  0.13000  1.0000
  H   H437      1.0  0.07089  0.56362  0.12955  1.0000
  C   C436      1.0  0.11664  0.72662  0.05564  1.0000
  S   S148      1.0  0.06730  0.66933  0.00516  1.0000
  H   H438      1.0  0.06155  0.71577  0.02367  1.0000
  H   H439      1.0  0.05070  0.74828  0.45413  1.0000
  C   C437      1.0  0.99622  0.55950  0.29643  1.0000
  H   H440      1.0  0.99976  0.64587  0.13239  1.0000
  H   H441      1.0  0.09853  0.60928  0.08343  1.0000
  H   H442      1.0  0.09259  0.61686  0.03068  1.0000
  C   C438      1.0  0.11804  0.74510  0.05923  1.0000
  C   C439      1.0  0.11559  0.73576  0.13288  1.0000
  C   C440      1.0  0.11952  0.71952  0.12944  1.0000
  H   H443      1.0  0.10786  0.70648  0.12504  1.0000
  H   H444      1.0  0.07925  0.74963  0.48274  1.0000
  C   C441      1.0  0.99653  0.65062  0.11046  1.0000
  S   S149      1.0  0.99513  0.71926  0.07632  1.0000
  H   H445      1.0  0.05041  0.75484  0.32448  1.0000
  Fe  Fe76      1.0  0.01234  0.75186  0.41770  1.0000
  S   S150      1.0  0.99518  0.75643  0.37884  1.0000
  C   C442      1.0  0.15332  0.75581  0.06160  1.0000
  C   C443      1.0  0.14934  0.75368  0.13703  1.0000
  C   C444      1.0  0.15381  0.73773  0.13364  1.0000
  N   N35       1.0  0.13041  0.75250  0.13690  1.0000
  S   S151      1.0  0.48203  0.53265  0.23353  1.0000
  C   C445      1.0  0.13877  0.72055  0.12987  1.0000
  C   C446      1.0  0.15205  0.73744  0.05718  1.0000
  H   H446      1.0  0.16896  0.73899  0.13248  1.0000
  H   H447      1.0  0.13287  0.70867  0.05143  1.0000
  H   H448      1.0  0.16521  0.73439  0.05663  1.0000
  H   H449      1.0  0.14212  0.70827  0.12605  1.0000
  C   C447      1.0  0.13375  0.72285  0.05420  1.0000
  Fe  Fe77      1.0  0.07222  0.63190  0.75814  1.0000
  S   S152      1.0  0.06003  0.63653  0.80198  1.0000
  S   S153      1.0  0.06931  0.60446  0.73976  1.0000
  Fe  Fe78      1.0  0.08748  0.67432  0.73292  1.0000
  S   S154      1.0  0.07633  0.68237  0.77438  1.0000
  S   S155      1.0  0.10501  0.69357  0.69117  1.0000
  Fe  Fe79      1.0  0.08777  0.66253  0.80010  1.0000
  S   S156      1.0  0.10444  0.67525  0.83904  1.0000
  Fe  Fe80      1.0  0.04951  0.65595  0.77331  1.0000
  S   S157      1.0  0.01949  0.65462  0.78684  1.0000
  S   S158      1.0  0.10119  0.65635  0.75861  1.0000
  S   S159      1.0  0.05944  0.64942  0.72955  1.0000
  S   S160      1.0  0.08423  0.63138  0.97114  1.0000
  H   H450      1.0  0.00400  0.64687  0.68264  1.0000
  C   C448      1.0  0.12436  0.74697  0.64687  1.0000
  C   C449      1.0  0.10886  0.71775  0.68158  1.0000
  C   C450      1.0  0.12057  0.72761  0.65522  1.0000
  C   C451      1.0  0.99822  0.64441  0.70584  1.0000
  H   H451      1.0  0.08115  0.55472  0.78532  1.0000
  C   C452      1.0  0.14779  0.69069  0.73010  1.0000
  C   C453      1.0  0.10100  0.72743  0.69968  1.0000
  H   H452      1.0  0.12674  0.72023  0.64112  1.0000
  H   H453      1.0  0.04657  0.66845  0.83419  1.0000
  C   C454      1.0  0.14027  0.73596  0.73582  1.0000
  H   H454      1.0  0.09197  0.71998  0.72005  1.0000
  C   C455      1.0  0.09799  0.66289  0.87564  1.0000
  C   C456      1.0  0.08699  0.64332  0.88058  1.0000
  C   C457      1.0  0.08273  0.63380  0.91000  1.0000
  C   C458      1.0  0.08893  0.64388  0.93468  1.0000
  C   C459      1.0  0.09937  0.66355  0.92980  1.0000
  C   C460      1.0  0.10412  0.67297  0.90033  1.0000
  H   H455      1.0  0.08225  0.63541  0.86172  1.0000
  H   H456      1.0  0.07474  0.61856  0.91362  1.0000
  H   H457      1.0  0.10437  0.67141  0.94865  1.0000
  H   H458      1.0  0.11267  0.68811  0.89668  1.0000
  H   H459      1.0  0.06424  0.67072  0.92420  1.0000
  C   C461      1.0  0.07953  0.75047  0.61800  1.0000
  C   C462      1.0  0.02458  0.63907  0.89813  1.0000
  H   H460      1.0  0.09151  0.73680  0.53548  1.0000
  C   C463      1.0  0.01088  0.65134  0.72823  1.0000
  H   H461      1.0  0.12761  0.74364  0.77394  1.0000
  C   C464      1.0  0.12932  0.71615  0.78335  1.0000
  H   H462      1.0  0.10420  0.72246  0.55135  1.0000
  H   H463      1.0  0.02627  0.65950  0.72216  1.0000
  C   C465      1.0  0.10102  0.73538  0.55343  1.0000
  C   C466      1.0  0.03793  0.54421  0.78848  1.0000
  C   C467      1.0  0.04009  0.54743  0.75714  1.0000
  C   C468      1.0  0.04961  0.56603  0.74254  1.0000
  C   C469      1.0  0.05649  0.58158  0.75909  1.0000
  C   C470      1.0  0.05365  0.57844  0.79041  1.0000
  C   C471      1.0  0.04462  0.55977  0.80506  1.0000
  H   H464      1.0  0.03494  0.53556  0.74417  1.0000
  H   H465      1.0  0.05168  0.56842  0.71827  1.0000
  H   H466      1.0  0.05897  0.59033  0.80336  1.0000
  H   H467      1.0  0.04304  0.55735  0.82934  1.0000
  H   H468      1.0  0.02230  0.62603  0.95439  1.0000
  C   C472      1.0  0.06996  0.52099  0.72013  1.0000
  H   H469      1.0  0.08705  0.70585  0.59706  1.0000
  C   C473      1.0  0.03453  0.64017  0.94992  1.0000
  H   H470      1.0  0.09899  0.75432  0.70573  1.0000
  H   H471      1.0  0.09612  0.54202  0.79881  1.0000
  C   C474      1.0  0.01039  0.58913  0.75017  1.0000
  H   H472      1.0  0.13338  0.75437  0.62649  1.0000
  H   H473      1.0  0.14797  0.67956  0.74786  1.0000
  C   C475      1.0  0.08107  0.54049  0.79363  1.0000
  H   H474      1.0  0.08188  0.54885  0.73426  1.0000
  H   H475      1.0  0.03097  0.65003  0.96347  1.0000
  H   H476      1.0  0.01277  0.56404  0.77235  1.0000
  H   H477      1.0  0.12277  0.71355  0.80623  1.0000
  C   C476      1.0  0.99760  0.59725  0.73903  1.0000
  C   C477      1.0  0.04406  0.66270  0.85775  1.0000
  C   C478      1.0  0.02756  0.64640  0.86772  1.0000
  C   C479      1.0  0.05729  0.67152  0.87818  1.0000
  C   C480      1.0  0.13479  0.70242  0.77164  1.0000
  C   C481      1.0  0.07599  0.53367  0.74159  1.0000
  H   H478      1.0  0.16253  0.69703  0.71774  1.0000
  H   H479      1.0  0.07036  0.68402  0.87051  1.0000
  N   N36       1.0  0.14276  0.70541  0.74268  1.0000
  C   C482      1.0  0.10504  0.74689  0.69156  1.0000
  C   C483      1.0  0.13206  0.73300  0.76527  1.0000
  C   C484      1.0  0.05384  0.66385  0.90844  1.0000
  H   H480      1.0  0.04792  0.63844  0.95784  1.0000
  N   N37       1.0  0.03774  0.64774  0.91800  1.0000
  C   C485      1.0  0.07543  0.71773  0.63058  1.0000
  C   C486      1.0  0.00358  0.64773  0.75834  1.0000
  C   C487      1.0  0.11665  0.75671  0.66506  1.0000
  H   H481      1.0  0.01169  0.62640  0.90566  1.0000
  H   H482      1.0  0.14206  0.74882  0.72128  1.0000
  S   S161      1.0  0.02869  0.52097  0.80759  1.0000
  H   H483      1.0  0.01720  0.63955  0.85183  1.0000
  H   H484      1.0  0.02610  0.59733  0.74793  1.0000
  H   H485      1.0  0.13240  0.68929  0.78586  1.0000
  H   H486      1.0  0.15100  0.72390  0.70145  1.0000
  N   N38       1.0  0.09144  0.73477  0.58290  1.0000
  C   C488      1.0  0.00278  0.57033  0.76397  1.0000
  H   H487      1.0  0.07066  0.70489  0.64649  1.0000
  C   C489      1.0  0.07277  0.73388  0.63824  1.0000
  H   H488      1.0  0.11517  0.74788  0.54948  1.0000
  C   C490      1.0  0.08487  0.71843  0.60264  1.0000
  C   C491      1.0  0.14541  0.72186  0.72475  1.0000
  N   N39       1.0  0.07401  0.52707  0.77148  1.0000
  H   H489      1.0  0.06588  0.73366  0.66012  1.0000
  H   H490      1.0  0.07121  0.53547  0.81470  1.0000
  H   H491      1.0  0.13679  0.68370  0.71432  1.0000
  C   C492      1.0  0.08880  0.75064  0.59020  1.0000
  H   H492      1.0  0.00334  0.61175  0.72813  1.0000
  H   H493      1.0  0.07109  0.52626  0.69653  1.0000
  C   C493      1.0  0.06636  0.50793  0.78075  1.0000
  Fe  Fe81      1.0  0.15202  0.82158  0.10015  1.0000
  S   S162      1.0  0.15590  0.81340  0.05467  1.0000
  S   S163      1.0  0.12190  0.81412  0.12388  1.0000
  Fe  Fe82      1.0  0.19666  0.83888  0.10660  1.0000
  S   S164      1.0  0.20328  0.83070  0.06172  1.0000
  S   S165      1.0  0.22005  0.86014  0.13143  1.0000
  Fe  Fe83      1.0  0.18086  0.84184  0.04521  1.0000
  Fe  Fe84      1.0  0.17756  0.80292  0.07539  1.0000
  S   S166      1.0  0.17605  0.77333  0.06875  1.0000
  S   S167      1.0  0.17506  0.85112  0.08908  1.0000
  S   S168      1.0  0.17289  0.81010  0.12176  1.0000
  N   N40       1.0  0.06573  0.78718  0.37378  1.0000
  Fe  Fe85      1.0  0.30606  0.87988  0.24184  1.0000
  S   S169      1.0  0.29828  0.90171  0.26321  1.0000
  S   S170      1.0  0.28385  0.85519  0.22121  1.0000
  Fe  Fe86      1.0  0.34929  0.89788  0.25664  1.0000
  S   S171      1.0  0.34461  0.92093  0.27876  1.0000
  Fe  Fe87      1.0  0.31686  0.89802  0.30018  1.0000
  S   S172      1.0  0.30547  0.89917  0.34720  1.0000
  Fe  Fe88      1.0  0.32670  0.92256  0.24022  1.0000
  S   S173      1.0  0.33133  0.95084  0.21503  1.0000
  S   S174      1.0  0.32256  0.87434  0.28095  1.0000
  S   S175      1.0  0.33338  0.90123  0.21611  1.0000
  S   S176      1.0  0.34359  0.88990  0.46953  1.0000
  C   C494      1.0  0.31671  0.89670  0.38052  1.0000
  C   C495      1.0  0.30896  0.90014  0.40724  1.0000
  C   C496      1.0  0.31704  0.89802  0.43451  1.0000
  C   C497      1.0  0.33288  0.89228  0.43549  1.0000
  C   C498      1.0  0.34057  0.88866  0.40871  1.0000
  C   C499      1.0  0.33262  0.89100  0.38123  1.0000
  H   H494      1.0  0.29657  0.90442  0.40693  1.0000
  H   H495      1.0  0.31074  0.90053  0.45484  1.0000
  H   H496      1.0  0.35280  0.88415  0.40925  1.0000
  H   H497      1.0  0.33867  0.88822  0.36075  1.0000
  C   C500      1.0  0.34452  0.96868  0.23631  1.0000
  C   C501      1.0  0.34247  0.96549  0.26771  1.0000
  C   C502      1.0  0.35386  0.97963  0.28447  1.0000
  H   H498      1.0  0.33201  0.95219  0.27907  1.0000
  H   H499      1.0  0.35247  0.97712  0.30873  1.0000
  C   C503      1.0  0.05314  0.77649  0.46098  1.0000
  H   H500      1.0  0.33442  0.95424  0.38181  1.0000
  C   C504      1.0  0.20403  0.89452  0.01499  1.0000
  H   H501      1.0  0.20110  0.88800  0.03809  1.0000
  C   C505      1.0  0.23762  0.85821  0.15634  1.0000
  C   C506      1.0  0.23956  0.84097  0.16507  1.0000
  C   C507      1.0  0.25380  0.84031  0.18485  1.0000
  C   C508      1.0  0.26629  0.85683  0.19606  1.0000
  C   C509      1.0  0.26433  0.87406  0.18733  1.0000
  C   C510      1.0  0.25009  0.87472  0.16762  1.0000
  H   H502      1.0  0.23013  0.82816  0.15659  1.0000
  H   H503      1.0  0.25520  0.82691  0.19139  1.0000
  H   H504      1.0  0.27380  0.88689  0.19575  1.0000
  H   H505      1.0  0.24871  0.88813  0.16112  1.0000
  C   C511      1.0  0.10070  0.79774  0.11038  1.0000
  C   C512      1.0  0.10134  0.79166  0.08218  1.0000
  C   C513      1.0  0.08397  0.78031  0.07057  1.0000
  C   C514      1.0  0.06582  0.77459  0.08725  1.0000
  C   C515      1.0  0.06522  0.77990  0.11606  1.0000
  C   C516      1.0  0.08262  0.79156  0.12750  1.0000
  H   H506      1.0  0.11507  0.79625  0.06874  1.0000
  H   H507      1.0  0.05129  0.77550  0.12916  1.0000
  H   H508      1.0  0.08198  0.79615  0.14941  1.0000
  H   H509      1.0  0.13691  0.77356  0.06542  1.0000
  C   C517      1.0  0.06485  0.77246  0.35814  1.0000
  S   S177      1.0  0.03439  0.77711  0.43754  1.0000
  N   N41       1.0  0.27973  0.84862  0.34196  1.0000
  C   C518      1.0  0.26860  0.85937  0.33806  1.0000
  C   C519      1.0  0.28140  0.83775  0.32040  1.0000
  C   C520      1.0  0.25892  0.85954  0.31189  1.0000
  C   C521      1.0  0.27173  0.83742  0.29414  1.0000
  C   C522      1.0  0.26049  0.84846  0.28986  1.0000
  C   C523      1.0  0.29052  0.84904  0.36882  1.0000
  H   H510      1.0  0.26759  0.86832  0.35481  1.0000
  H   H511      1.0  0.29059  0.82959  0.32312  1.0000
  H   H512      1.0  0.25062  0.86853  0.30843  1.0000
  H   H513      1.0  0.27346  0.82919  0.27666  1.0000
  H   H514      1.0  0.25344  0.84875  0.26910  1.0000
  H   H515      1.0  0.28666  0.83443  0.38036  1.0000
  H   H516      1.0  0.30654  0.85555  0.36237  1.0000
  H   H517      1.0  0.28726  0.85769  0.38518  1.0000
  H   H518      1.0  0.36677  0.95275  0.34120  1.0000
  H   H519      1.0  0.08458  0.77615  0.04833  1.0000
  C   C524      1.0  0.35633  0.93919  0.35369  1.0000
  N   N42       1.0  0.35512  0.94100  0.38584  1.0000
  C   C525      1.0  0.34328  0.94943  0.39669  1.0000
  C   C526      1.0  0.34235  0.95185  0.42713  1.0000
  H   H520      1.0  0.36126  0.92755  0.34935  1.0000
  H   H521      1.0  0.34169  0.93558  0.34470  1.0000
  H   H522      1.0  0.22084  0.92259  0.02615  1.0000
  S   S178      1.0  0.37975  0.89785  0.24850  1.0000
  C   C527      1.0  0.35746  0.98618  0.22172  1.0000
  H   H523      1.0  0.35919  0.98864  0.19747  1.0000
  C   C528      1.0  0.40046  0.91536  0.26125  1.0000
  C   C529      1.0  0.39841  0.92672  0.28262  1.0000
  H   H524      1.0  0.38402  0.92453  0.29228  1.0000
  H   H525      1.0  0.38058  0.96574  0.25005  1.0000
  C   C530      1.0  0.36644  0.93508  0.40458  1.0000
  C   C531      1.0  0.36575  0.93716  0.43515  1.0000
  C   C532      1.0  0.35365  0.94564  0.44640  1.0000
  H   H526      1.0  0.37575  0.92828  0.39614  1.0000
  H   H527      1.0  0.37418  0.93181  0.45019  1.0000
  C   C533      1.0  0.39599  0.96932  0.24408  1.0000
  C   C534      1.0  0.36693  0.99709  0.26981  1.0000
  N   N43       1.0  0.10275  0.83538  0.06076  1.0000
  H   H528      1.0  0.33292  0.95844  0.43590  1.0000
  C   C535      1.0  0.09699  0.82569  0.03649  1.0000
  C   C536      1.0  0.08066  0.79345  0.39528  1.0000
  H   H529      1.0  0.07451  0.76495  0.36253  1.0000
  C   C537      1.0  0.08815  0.83394  0.08489  1.0000
  H   H530      1.0  0.07715  0.80236  0.41088  1.0000
  H   H531      1.0  0.09523  0.80182  0.38321  1.0000
  H   H532      1.0  0.08137  0.78100  0.40949  1.0000
  C   C538      1.0  0.24203  0.88002  0.05653  1.0000
  C   C539      1.0  0.24291  0.88111  0.02520  1.0000
  H   H533      1.0  0.35297  0.94735  0.47004  1.0000
  H   H534      1.0  0.07523  0.82027  0.08631  1.0000
  H   H535      1.0  0.23602  0.86635  0.07033  1.0000
  H   H536      1.0  0.24788  0.89587  0.09445  1.0000
  C   C540      1.0  0.12192  0.84714  0.06199  1.0000
  C   C541      1.0  0.06383  0.79277  0.47446  1.0000
  N   N44       1.0  0.40169  0.95940  0.22452  1.0000
  C   C542      1.0  0.38670  0.94434  0.21096  1.0000
  C   C543      1.0  0.24882  0.89668  0.07010  1.0000
  H   H537      1.0  0.38007  0.95062  0.19326  1.0000
  H   H538      1.0  0.39277  0.93467  0.20126  1.0000
  H   H539      1.0  0.31481  0.97634  0.17484  1.0000
  H   H540      1.0  0.08312  0.84588  0.08097  1.0000
  H   H541      1.0  0.37492  0.93522  0.22824  1.0000
  H   H542      1.0  0.09445  0.83430  0.10707  1.0000
  H   H543      1.0  0.12653  0.85468  0.08135  1.0000
  H   H544      1.0  0.15113  0.85873  0.03946  1.0000
  C   C544      1.0  0.13592  0.84937  0.03856  1.0000
  H   H545      1.0  0.08180  0.81630  0.03555  1.0000
  C   C545      1.0  0.21522  0.91412  0.00816  1.0000
  C   C546      1.0  0.25665  0.91424  0.05225  1.0000
  C   C547      1.0  0.03866  0.77614  0.33101  1.0000
  C   C548      1.0  0.05334  0.79649  0.36853  1.0000
  C   C549      1.0  0.03959  0.79108  0.34715  1.0000
  H   H546      1.0  0.05361  0.80779  0.38155  1.0000
  H   H547      1.0  0.02787  0.77159  0.31465  1.0000
  H   H548      1.0  0.02943  0.79813  0.34363  1.0000
  C   C550      1.0  0.05133  0.76673  0.33654  1.0000
  C   C551      1.0  0.07995  0.79351  0.49104  1.0000
  H   H549      1.0  0.05974  0.80497  0.47184  1.0000
  C   C552      1.0  0.12629  0.76968  0.13883  1.0000
  C   C553      1.0  0.31040  0.98438  0.21806  1.0000
  H   H550      1.0  0.30068  0.97007  0.22720  1.0000
  C   C554      1.0  0.11071  0.82731  0.01295  1.0000
  C   C555      1.0  0.13623  0.75958  0.06216  1.0000
  C   C556      1.0  0.13028  0.83928  0.01402  1.0000
  N   N45       1.0  0.25053  0.89839  0.00786  1.0000
  C   C557      1.0  0.31845  0.98803  0.18832  1.0000
  C   C558      1.0  0.36847  0.00043  0.23846  1.0000
  H   H551      1.0  0.11056  0.76633  0.14519  1.0000
  H   H552      1.0  0.23719  0.86806  0.01488  1.0000
  H   H553      1.0  0.26179  0.92730  0.06257  1.0000
  S   S179      1.0  0.18395  0.85851  0.99925  1.0000
  S   S180      1.0  0.04444  0.76113  0.07080  1.0000
  C   C559      1.0  0.05868  0.76086  0.46447  1.0000
  H   H554      1.0  0.16125  0.76717  0.13854  1.0000
  C   C560      1.0  0.25757  0.91484  0.02095  1.0000
  H   H555      1.0  0.26334  0.92857  0.00720  1.0000
  H   H556      1.0  0.33075  0.99962  0.13151  1.0000
  H   H557      1.0  0.13486  0.77815  0.15594  1.0000
  H   H558      1.0  0.13035  0.77871  0.11679  1.0000
  H   H559      1.0  0.40536  0.99157  0.27301  1.0000
  C   C561      1.0  0.07493  0.76169  0.48071  1.0000
  C   C562      1.0  0.40994  0.98390  0.25715  1.0000
  C   C563      1.0  0.08571  0.77802  0.49402  1.0000
  H   H560      1.0  0.31037  0.99614  0.25971  1.0000
  C   C564      1.0  0.41507  0.94076  0.29195  1.0000
  H   H561      1.0  0.41335  0.94949  0.30851  1.0000
  C   C565      1.0  0.31598  0.99895  0.23633  1.0000
  N   N46       1.0  0.33147  0.00580  0.17697  1.0000
  H   H562      1.0  0.35446  0.00650  0.14677  1.0000
  C   C566      1.0  0.42983  0.98826  0.25010  1.0000
  Fe  Fe89      1.0  0.48636  0.97293  0.27468  1.0000
  H   H563      1.0  0.45095  0.98105  0.22514  1.0000
  H   H564      1.0  0.42573  0.95563  0.20220  1.0000
  C   C567      1.0  0.43552  0.97825  0.22982  1.0000
  H   H565      1.0  0.44084  0.99902  0.26093  1.0000
  S   S181      1.0  0.45415  0.96236  0.29135  1.0000
  H   H566      1.0  0.42108  0.90936  0.23292  1.0000
  C   C568      1.0  0.43608  0.93236  0.25851  1.0000
  C   C569      1.0  0.41936  0.91817  0.24935  1.0000
  C   C570      1.0  0.42117  0.96378  0.21711  1.0000
  C   C571      1.0  0.43396  0.94370  0.27991  1.0000
  H   H567      1.0  0.45055  0.93447  0.24914  1.0000
  Fe  Fe90      1.0  0.23414  0.97473  0.86153  1.0000
  S   S182      1.0  0.22217  0.97787  0.90676  1.0000
  S   S183      1.0  0.21575  0.96229  0.82393  1.0000
  Fe  Fe91      1.0  0.24297  0.96538  0.92591  1.0000
  S   S184      1.0  0.23669  0.94656  0.97079  1.0000
  S   S185      1.0  0.25295  0.95992  0.88103  1.0000
  Fe  Fe92      1.0  0.12655  0.79901  0.54287  1.0000
  S   S186      1.0  0.11588  0.80896  0.58293  1.0000
  C   C572      1.0  0.19597  0.90185  0.52439  1.0000
  Fe  Fe93      1.0  0.16923  0.81426  0.56130  1.0000
  S   S187      1.0  0.16106  0.82405  0.60325  1.0000
  S   S188      1.0  0.20069  0.81974  0.54552  1.0000
  Fe  Fe94      1.0  0.13452  0.79667  0.60925  1.0000
  Fe  Fe95      1.0  0.14345  0.83549  0.57334  1.0000
  S   S189      1.0  0.14478  0.86548  0.57544  1.0000
  S   S190      1.0  0.14420  0.78557  0.56990  1.0000
  S   S191      1.0  0.15256  0.82672  0.53081  1.0000
  H   H568      1.0  0.29046  0.96220  0.58957  1.0000
  S   S192      1.0  0.32653  0.88605  0.55798  1.0000
  Fe  Fe96      1.0  0.33536  0.93784  0.52850  1.0000
  S   S193      1.0  0.32553  0.92595  0.57625  1.0000
  H   H569      1.0  0.44880  0.98549  0.86562  1.0000
  Fe  Fe97      1.0  0.34799  0.91293  0.57350  1.0000
  S   S194      1.0  0.36408  0.91250  0.61621  1.0000
  Fe  Fe98      1.0  0.30469  0.90007  0.55834  1.0000
  S   S195      1.0  0.27418  0.88813  0.58282  1.0000
  S   S196      1.0  0.35935  0.92677  0.52640  1.0000
  H   H570      1.0  0.27116  0.90869  0.63885  1.0000
  H   H571      1.0  0.32042  0.96094  0.64165  1.0000
  S   S197      1.0  0.26772  0.99402  0.92449  1.0000
  Fe  Fe99      1.0  0.23416  0.95697  0.61570  1.0000
  S   S198      1.0  0.25171  0.96763  0.65479  1.0000
  S   S199      1.0  0.22374  0.92504  0.61543  1.0000
  Fe  Fe100     1.0  0.23985  0.99063  0.65047  1.0000
  H   H572      1.0  0.45470  0.88561  0.78708  1.0000
  Fe  Fe101     1.0  0.27492  0.98659  0.61995  1.0000
  H   H573      1.0  0.44856  0.92071  0.60118  1.0000
  S   S200      1.0  0.22028  0.97878  0.61366  1.0000
  S   S201      1.0  0.25867  0.97440  0.58113  1.0000
  Fe  Fe102     1.0  0.46916  0.95450  0.74993  1.0000
  C   C573      1.0  0.41164  0.98008  0.87210  1.0000
  S   S202      1.0  0.46170  0.92448  0.77168  1.0000
  Fe  Fe103     1.0  0.46286  0.99130  0.75545  1.0000
  C   C574      1.0  0.26674  0.97256  0.76927  1.0000
  C   C575      1.0  0.23108  0.99193  0.72734  1.0000
  Fe  Fe104     1.0  0.45984  0.97546  0.69464  1.0000
  S   S203      1.0  0.44574  0.97232  0.64984  1.0000
  H   H574      1.0  0.24137  0.83539  0.52382  1.0000
  S   S204      1.0  0.44411  0.96342  0.73998  1.0000
  C   C576      1.0  0.29429  0.93596  0.64133  1.0000
  H   H575      1.0  0.40655  0.88723  0.69916  1.0000
  C   C577      1.0  0.19995  0.00194  0.82155  1.0000
  H   H576      1.0  0.14707  0.81664  0.67968  1.0000
  C   C578      1.0  0.28655  0.91622  0.64211  1.0000
  H   H577      1.0  0.35122  0.95983  0.65609  1.0000
  C   C579      1.0  0.38600  0.93033  0.62577  1.0000
  C   C580      1.0  0.39173  0.92899  0.65520  1.0000
  C   C581      1.0  0.40954  0.94221  0.66338  1.0000
  C   C582      1.0  0.42195  0.95684  0.64208  1.0000
  C   C583      1.0  0.41597  0.95843  0.61286  1.0000
  C   C584      1.0  0.39807  0.94533  0.60476  1.0000
  H   H578      1.0  0.38247  0.91750  0.67170  1.0000
  H   H579      1.0  0.41393  0.94078  0.68593  1.0000
  H   H580      1.0  0.42543  0.96970  0.59619  1.0000
  H   H581      1.0  0.39387  0.94661  0.58206  1.0000
  C   C585      1.0  0.33168  0.97632  0.54234  1.0000
  C   C586      1.0  0.34293  0.99294  0.55416  1.0000
  H   H582      1.0  0.39836  0.00149  0.93983  1.0000
  C   C587      1.0  0.31645  0.98717  0.59214  1.0000
  C   C588      1.0  0.30505  0.97086  0.57977  1.0000
  C   C589      1.0  0.31277  0.96526  0.55522  1.0000
  H   H583      1.0  0.42657  0.92547  0.60679  1.0000
  H   H584      1.0  0.23486  0.87968  0.52863  1.0000
  H   H585      1.0  0.24020  0.00112  0.79926  1.0000
  H   H586      1.0  0.30412  0.95232  0.54624  1.0000
  C   C590      1.0  0.16666  0.88224  0.58652  1.0000
  C   C591      1.0  0.16838  0.90101  0.58869  1.0000
  C   C592      1.0  0.18574  0.91446  0.59771  1.0000
  C   C593      1.0  0.20129  0.90904  0.60500  1.0000
  C   C594      1.0  0.19939  0.89026  0.60317  1.0000
  C   C595      1.0  0.18232  0.87702  0.59363  1.0000
  H   H587      1.0  0.15636  0.90522  0.58314  1.0000
  H   H588      1.0  0.18709  0.92895  0.59898  1.0000
  H   H589      1.0  0.21141  0.88602  0.60854  1.0000
  H   H590      1.0  0.18148  0.86287  0.59138  1.0000
  C   C596      1.0  0.22117  0.83826  0.55702  1.0000
  C   C597      1.0  0.21930  0.84834  0.58052  1.0000
  C   C598      1.0  0.23584  0.86315  0.58875  1.0000
  C   C599      1.0  0.25432  0.86829  0.57326  1.0000
  C   C600      1.0  0.25626  0.85818  0.54986  1.0000
  C   C601      1.0  0.23975  0.84316  0.54193  1.0000
  H   H591      1.0  0.20515  0.84467  0.59247  1.0000
  H   H592      1.0  0.23428  0.87079  0.60702  1.0000
  H   H593      1.0  0.27042  0.86196  0.53779  1.0000
  H   H594      1.0  0.43117  0.00012  0.93278  1.0000
  C   C602      1.0  0.32259  0.00100  0.88534  1.0000
  C   C603      1.0  0.22271  0.97369  0.78681  1.0000
  C   C604      1.0  0.21556  0.96338  0.76271  1.0000
  C   C605      1.0  0.22000  0.97240  0.73298  1.0000
  H   H595      1.0  0.14115  0.84069  0.99599  1.0000
  N   N47       1.0  0.28364  0.99819  0.73027  1.0000
  H   H596      1.0  0.26181  0.97167  0.72250  1.0000
  H   H597      1.0  0.20636  0.94840  0.76705  1.0000
  H   H598      1.0  0.21417  0.96442  0.71455  1.0000
  H   H599      1.0  0.45570  0.99710  0.89842  1.0000
  C   C606      1.0  0.43643  0.90432  0.70636  1.0000
  N   N48       1.0  0.32636  0.93561  0.64745  1.0000
  C   C607      1.0  0.25180  0.89914  0.97507  1.0000
  C   C608      1.0  0.21214  0.91172  0.95518  1.0000
  C   C609      1.0  0.20072  0.89214  0.96203  1.0000
  H   H600      1.0  0.21551  0.91817  0.93205  1.0000
  H   H601      1.0  0.19520  0.88364  0.94404  1.0000
  N   N49       1.0  0.42507  0.98690  0.89258  1.0000
  H   H602      1.0  0.40953  0.90079  0.64595  1.0000
  H   H603      1.0  0.26475  0.89632  0.96728  1.0000
  S   S205      1.0  0.44476  0.00399  0.78196  1.0000
  H   H604      1.0  0.25582  0.95838  0.77621  1.0000
  S   S206      1.0  0.30619  0.99824  0.85741  1.0000
  H   H605      1.0  0.27426  0.97803  0.81436  1.0000
  H   H606      1.0  0.28487  0.94386  0.63806  1.0000
  H   H607      1.0  0.43535  0.89860  0.72979  1.0000
  H   H608      1.0  0.35448  0.94844  0.62406  1.0000
  Fe  Fe105     1.0  0.33576  0.90146  0.51080  1.0000
  C   C610      1.0  0.40204  0.99554  0.92065  1.0000
  S   S207      1.0  0.10657  0.77839  0.51309  1.0000
  C   C611      1.0  0.24697  0.91378  0.54780  1.0000
  H   H609      1.0  0.47538  0.86686  0.78378  1.0000
  H   H610      1.0  0.19278  0.99007  0.80904  1.0000
  H   H611      1.0  0.46662  0.92304  0.70649  1.0000
  C   C612      1.0  0.27689  0.98365  0.79073  1.0000
  H   H612      1.0  0.21764  0.92580  0.54095  1.0000
  C   C613      1.0  0.22400  0.88599  0.52756  1.0000
  C   C614      1.0  0.34892  0.00663  0.93029  1.0000
  Fe  Fe106     1.0  0.24663  0.99725  0.58192  1.0000
  C   C615      1.0  0.21453  0.91187  0.53380  1.0000
  H   H613      1.0  0.25303  0.91327  0.96398  1.0000
  N   N50       1.0  0.43931  0.91976  0.64679  1.0000
  C   C616      1.0  0.33542  0.99820  0.57941  1.0000
  C   C617      1.0  0.44114  0.92760  0.61517  1.0000
  C   C618      1.0  0.42212  0.90574  0.65914  1.0000
  C   C619      1.0  0.42048  0.99455  0.91666  1.0000
  S   S208      1.0  0.48367  0.96460  0.70360  1.0000
  N   N51       1.0  0.22825  0.90387  0.53535  1.0000
  C   C620      1.0  0.46986  0.89262  0.77823  1.0000
  H   H614      1.0  0.44973  0.94323  0.61231  1.0000
  C   C621      1.0  0.38831  0.98876  0.89981  1.0000
  C   C622      1.0  0.47749  0.91214  0.76853  1.0000
  C   C623      1.0  0.31440  0.94552  0.64363  1.0000
  C   C624      1.0  0.31626  0.99108  0.91410  1.0000
  H   H615      1.0  0.38260  0.97588  0.85878  1.0000
  C   C625      1.0  0.34760  0.94592  0.64737  1.0000
  H   H616      1.0  0.29306  0.89095  0.64540  1.0000
  C   C626      1.0  0.23454  0.99304  0.78097  1.0000
  C   C627      1.0  0.32948  0.99377  0.93648  1.0000
  C   C628      1.0  0.21973  0.92272  0.97824  1.0000
  H   H617      1.0  0.32456  0.98604  0.95870  1.0000
  N   N52       1.0  0.12873  0.84823  0.64966  1.0000
  C   C629      1.0  0.14409  0.86485  0.65244  1.0000
  C   C630      1.0  0.12957  0.83112  0.65983  1.0000
  C   C631      1.0  0.16118  0.86458  0.66454  1.0000
  C   C632      1.0  0.14633  0.83032  0.67240  1.0000
  C   C633      1.0  0.16232  0.84718  0.67442  1.0000
  C   C634      1.0  0.11105  0.84862  0.63632  1.0000
  H   H618      1.0  0.14351  0.87844  0.64424  1.0000
  H   H619      1.0  0.11738  0.81792  0.65774  1.0000
  H   H620      1.0  0.17364  0.87780  0.66547  1.0000
  H   H621      1.0  0.44317  0.97149  0.90210  1.0000
  H   H622      1.0  0.17563  0.84675  0.68328  1.0000
  H   H623      1.0  0.09902  0.84539  0.65410  1.0000
  H   H624      1.0  0.11379  0.86269  0.62343  1.0000
  H   H625      1.0  0.10637  0.83808  0.61994  1.0000
  S   S209      1.0  0.31242  0.91366  0.51045  1.0000
  C   C635      1.0  0.39313  0.98106  0.87526  1.0000
  H   H626      1.0  0.41534  0.97418  0.85283  1.0000
  S   S210      1.0  0.48665  0.98112  0.76952  1.0000
  C   C636      1.0  0.31881  0.91620  0.64881  1.0000
  H   H627      1.0  0.32841  0.90839  0.65058  1.0000
  C   C637      1.0  0.27021  0.98015  0.73896  1.0000
  H   H628      1.0  0.30124  0.98117  0.91902  1.0000
  C   C638      1.0  0.42033  0.89799  0.68921  1.0000
  S   S211      1.0  0.34171  0.96840  0.51320  1.0000
  H   H629      1.0  0.35429  0.93759  0.66156  1.0000
  C   C639      1.0  0.29884  0.90623  0.64598  1.0000
  H   H630      1.0  0.37395  0.98944  0.90280  1.0000
  N   N53       1.0  0.19726  0.99966  0.85221  1.0000
  C   C640      1.0  0.44410  0.98510  0.88958  1.0000
  Fe  Fe107     1.0  0.27562  0.98951  0.87812  1.0000
  S   S212      1.0  0.12115  0.78106  0.65546  1.0000
  H   H631      1.0  0.25901  0.91060  0.53706  1.0000
  S   S213      1.0  0.30698  0.99378  0.62348  1.0000
  H   H632      1.0  0.23831  0.88843  0.96765  1.0000
  H   H633      1.0  0.07795  0.76325  0.62399  1.0000
  C   C641      1.0  0.19133  0.88337  0.51733  1.0000
  H   H634      1.0  0.28528  0.99479  0.68372  1.0000
  H   H635      1.0  0.25123  0.92945  0.54457  1.0000
  C   C642      1.0  0.19696  0.88340  0.99189  1.0000
  H   H636      1.0  0.18493  0.90802  0.52405  1.0000
  H   H637      1.0  0.08809  0.80619  0.50104  1.0000
  H   H638      1.0  0.24571  0.90907  0.57230  1.0000
  H   H639      1.0  0.17666  0.87511  0.51149  1.0000
  C   C643      1.0  0.48160  0.88199  0.77644  1.0000
  C   C644      1.0  0.45402  0.91820  0.69331  1.0000
  C   C645      1.0  0.45518  0.92596  0.66340  1.0000
  S   S214      1.0  0.47748  0.00416  0.70891  1.0000
  H   H640      1.0  0.20196  0.86086  0.51391  1.0000
  S   S215      1.0  0.25762  0.00397  0.85551  1.0000
  C   C646      1.0  0.20544  0.87537  0.51881  1.0000
  C   C647      1.0  0.23839  0.00220  0.75140  1.0000
  H   H641      1.0  0.18857  0.96980  0.86235  1.0000
  C   C648      1.0  0.29022  0.00216  0.78174  1.0000
  H   H642      1.0  0.09397  0.76357  0.57452  1.0000
  S   S216      1.0  0.23506  0.00424  0.69092  1.0000
  H   H643      1.0  0.18312  0.98116  0.89256  1.0000
  H   H644      1.0  0.16872  0.97811  0.86057  1.0000
  H   H645      1.0  0.29505  0.00705  0.55961  1.0000
  H   H646      1.0  0.46879  0.93711  0.65365  1.0000
  H   H647      1.0  0.35766  0.00135  0.54442  1.0000
  C   C649      1.0  0.18375  0.98132  0.86776  1.0000
  H   H648      1.0  0.10620  0.81929  0.99406  1.0000
  Fe  Fe108     1.0  0.24768  0.00611  0.90221  1.0000
  C   C650      1.0  0.28685  0.00602  0.69848  1.0000
  S   S217      1.0  0.52307  0.04063  0.22426  1.0000
  C   C651      1.0  0.78441  0.05702  0.46963  1.0000
  Fe  Fe109     1.0  0.84458  0.17151  0.38192  1.0000
  S   S218      1.0  0.83854  0.18146  0.42499  1.0000
  S   S219      1.0  0.84824  0.18778  0.33547  1.0000
  Fe  Fe110     1.0  0.84161  0.13319  0.41388  1.0000
  S   S220      1.0  0.83674  0.14108  0.45965  1.0000
  S   S221      1.0  0.84079  0.10373  0.40813  1.0000
  Fe  Fe111     1.0  0.81574  0.15191  0.43707  1.0000
  S   S222      1.0  0.78578  0.14497  0.46084  1.0000
  Fe  Fe112     1.0  0.86032  0.16984  0.44362  1.0000
  H   H649      1.0  0.72067  0.06698  0.45789  1.0000
  S   S223      1.0  0.81977  0.14297  0.39221  1.0000
  S   S224      1.0  0.86718  0.16097  0.39953  1.0000
  Fe  Fe113     1.0  0.67770  0.07469  0.43444  1.0000
  H   H650      1.0  0.75405  0.05287  0.46676  1.0000
  S   S225      1.0  0.70802  0.09109  0.41059  1.0000
  Fe  Fe114     1.0  0.63452  0.06006  0.41853  1.0000
  S   S226      1.0  0.62415  0.04002  0.46114  1.0000
  S   S227      1.0  0.61691  0.06162  0.37827  1.0000
  C   C652      1.0  0.81942  0.06332  0.47195  1.0000
  Fe  Fe115     1.0  0.65051  0.03313  0.45206  1.0000
  C   C653      1.0  0.76053  0.15161  0.36967  1.0000
  S   S228      1.0  0.65314  0.08490  0.44185  1.0000
  S   S229      1.0  0.65973  0.05160  0.40815  1.0000
  H   H651      1.0  0.90391  0.19341  0.41215  1.0000
  H   H652      1.0  0.81395  0.18618  0.37372  1.0000
  S   S230      1.0  0.75945  0.03605  0.39872  1.0000
  H   H653      1.0  0.78837  0.18241  0.41388  1.0000
  C   C654      1.0  0.90563  0.20465  0.36548  1.0000
  H   H654      1.0  0.52156  0.04209  0.29106  1.0000
  H   H655      1.0  0.73766  0.14696  0.41800  1.0000
  H   H656      1.0  0.57147  0.00941  0.13918  1.0000
  H   H657      1.0  0.76282  0.08457  0.03958  1.0000
  H   H658      1.0  0.50636  0.09627  0.20856  1.0000
  C   C655      1.0  0.70307  0.01820  0.42847  1.0000
  C   C656      1.0  0.90726  0.20605  0.39617  1.0000
  N   N54       1.0  0.76546  0.16206  0.39328  1.0000
  H   H659      1.0  0.87629  0.24761  0.26785  1.0000
  C   C657      1.0  0.76462  0.12759  0.44910  1.0000
  C   C658      1.0  0.74658  0.12220  0.46606  1.0000
  C   C659      1.0  0.72907  0.11024  0.45529  1.0000
  C   C660      1.0  0.72956  0.10384  0.42729  1.0000
  C   C661      1.0  0.74769  0.10851  0.41106  1.0000
  C   C662      1.0  0.76516  0.12019  0.42202  1.0000
  H   H660      1.0  0.80544  0.16692  0.33134  1.0000
  Fe  Fe116     1.0  0.64489  0.06379  0.48404  1.0000
  H   H661      1.0  0.74820  0.10345  0.38949  1.0000
  H   H662      1.0  0.77890  0.12408  0.40883  1.0000
  C   C663      1.0  0.78261  0.05507  0.39602  1.0000
  C   C664      1.0  0.80022  0.05220  0.39451  1.0000
  C   C665      1.0  0.81812  0.06747  0.39675  1.0000
  C   C666      1.0  0.81853  0.08563  0.40068  1.0000
  C   C667      1.0  0.80096  0.08857  0.40105  1.0000
  C   C668      1.0  0.78313  0.07340  0.39866  1.0000
  H   H663      1.0  0.80000  0.03815  0.39250  1.0000
  H   H664      1.0  0.83165  0.06506  0.39628  1.0000
  H   H665      1.0  0.80095  0.10235  0.40430  1.0000
  H   H666      1.0  0.76959  0.07576  0.39993  1.0000
  S   S231      1.0  0.73764  0.01180  0.11294  1.0000
  C   C669      1.0  0.71605  0.05315  0.44995  1.0000
  C   C670      1.0  0.58324  0.02912  0.39248  1.0000
  C   C671      1.0  0.59581  0.04255  0.36988  1.0000
  C   C672      1.0  0.59109  0.04133  0.33988  1.0000
  C   C673      1.0  0.57398  0.02677  0.33250  1.0000
  H   H667      1.0  0.73432  0.01257  0.21785  1.0000
  H   H668      1.0  0.58660  0.03000  0.41567  1.0000
  H   H669      1.0  0.60073  0.05170  0.32226  1.0000
  H   H670      1.0  0.57054  0.02591  0.30935  1.0000
  N   N55       1.0  0.80306  0.06974  0.47184  1.0000
  C   C674      1.0  0.79974  0.07003  0.06635  1.0000
  C   C675      1.0  0.51312  0.07127  0.21548  1.0000
  C   C676      1.0  0.79241  0.06623  0.09650  1.0000
  H   H671      1.0  0.52845  0.07889  0.20797  1.0000
  H   H672      1.0  0.56935  0.08223  0.26984  1.0000
  H   H673      1.0  0.86321  0.21781  0.37411  1.0000
  C   C677      1.0  0.86324  0.22141  0.29801  1.0000
  C   C678      1.0  0.75024  0.16090  0.41617  1.0000
  C   C679      1.0  0.79413  0.16564  0.34855  1.0000
  C   C680      1.0  0.75933  0.05603  0.03229  1.0000
  H   H674      1.0  0.74604  0.12779  0.48716  1.0000
  C   C681      1.0  0.79894  0.17644  0.37246  1.0000
  C   C682      1.0  0.56126  0.01352  0.35520  1.0000
  H   H675      1.0  0.75281  0.04985  0.05474  1.0000
  H   H676      1.0  0.70296  0.03762  0.49318  1.0000
  H   H677      1.0  0.78910  0.07686  0.10734  1.0000
  C   C683      1.0  0.86584  0.22425  0.35097  1.0000
  C   C684      1.0  0.85970  0.21282  0.32795  1.0000
  H   H678      1.0  0.78170  0.04237  0.46661  1.0000
  N   N56       1.0  0.71266  0.03437  0.40915  1.0000
  C   C685      1.0  0.71923  0.05171  0.41952  1.0000
  H   H679      1.0  0.79381  0.10953  0.47700  1.0000
  H   H680      1.0  0.80455  0.04831  0.00865  1.0000
  H   H681      1.0  0.78371  0.04540  0.13594  1.0000
  C   C686      1.0  0.50606  0.05176  0.22502  1.0000
  C   C687      1.0  0.71456  0.03326  0.37685  1.0000
  H   H682      1.0  0.72662  0.06456  0.40410  1.0000
  C   C688      1.0  0.87331  0.24121  0.29103  1.0000
  H   H683      1.0  0.90724  0.23145  0.30064  1.0000
  H   H684      1.0  0.57648  0.07667  0.32006  1.0000
  C   C689      1.0  0.76863  0.06291  0.46975  1.0000
  H   H685      1.0  0.91929  0.25085  0.33916  1.0000
  C   C690      1.0  0.76238  0.04451  0.01198  1.0000
  S   S232      1.0  0.75717  0.02006  0.02250  1.0000
  Fe  Fe117     1.0  0.51631  0.01076  0.24589  1.0000
  H   H686      1.0  0.78037  0.02110  0.22606  1.0000
  H   H687      1.0  0.90087  0.19071  0.35780  1.0000
  H   H688      1.0  0.71388  0.01899  0.37239  1.0000
  C   C691      1.0  0.87567  0.24406  0.34401  1.0000
  C   C692      1.0  0.79349  0.03504  0.09821  1.0000
  H   H689      1.0  0.89503  0.20629  0.30972  1.0000
  H   H690      1.0  0.53299  0.03525  0.38362  1.0000
  H   H691      1.0  0.92155  0.21680  0.30389  1.0000
  C   C693      1.0  0.78438  0.17435  0.39491  1.0000
  C   C694      1.0  0.80042  0.03916  0.06790  1.0000
  H   H692      1.0  0.85848  0.21266  0.28006  1.0000
  H   H693      1.0  0.71516  0.10666  0.46803  1.0000
  C   C695      1.0  0.55589  0.05725  0.35460  1.0000
  H   H694      1.0  0.80206  0.08375  0.05402  1.0000
  N   N57       1.0  0.90979  0.22058  0.34542  1.0000
  H   H695      1.0  0.92195  0.25397  0.39335  1.0000
  C   C696      1.0  0.53122  0.04645  0.30892  1.0000
  C   C697      1.0  0.50057  0.08112  0.21571  1.0000
  C   C698      1.0  0.52496  0.03728  0.33816  1.0000
  H   H696      1.0  0.65454  0.01592  0.39575  1.0000
  H   H697      1.0  0.79130  0.02139  0.11062  1.0000
  H   H698      1.0  0.91396  0.22496  0.43021  1.0000
  N   N58       1.0  0.54944  0.06052  0.30268  1.0000
  H   H699      1.0  0.74554  0.14177  0.36847  1.0000
  H   H700      1.0  0.62876  0.02827  0.36551  1.0000
  H   H701      1.0  0.55899  0.05864  0.25851  1.0000
  H   H702      1.0  0.80327  0.02837  0.05683  1.0000
  C   C699      1.0  0.90335  0.19192  0.48838  1.0000
  H   H703      1.0  0.54428  0.07267  0.26079  1.0000
  C   C700      1.0  0.53742  0.04271  0.36108  1.0000
  H   H704      1.0  0.51075  0.02569  0.34290  1.0000
  H   H705      1.0  0.88051  0.25277  0.36197  1.0000
  C   C701      1.0  0.77482  0.15307  0.34715  1.0000
  H   H706      1.0  0.56591  0.06121  0.37212  1.0000
  C   C702      1.0  0.90841  0.21872  0.31332  1.0000
  C   C703      1.0  0.55595  0.06902  0.27150  1.0000
  C   C704      1.0  0.78933  0.04862  0.11250  1.0000
  H   H707      1.0  0.77098  0.14446  0.32880  1.0000
  C   C705      1.0  0.70610  0.03670  0.46973  1.0000
  C   C706      1.0  0.77200  0.08190  0.47246  1.0000
  C   C707      1.0  0.87974  0.25258  0.31403  1.0000
  C   C708      1.0  0.91303  0.22384  0.40632  1.0000
  C   C709      1.0  0.56179  0.06593  0.32503  1.0000
  H   H708      1.0  0.75609  0.16218  0.43869  1.0000
  N   N59       1.0  0.80344  0.05647  0.05239  1.0000
  S   S233      1.0  0.88264  0.19168  0.46910  1.0000
  H   H709      1.0  0.74483  0.17243  0.41049  1.0000
  C   C710      1.0  0.76507  0.07570  0.02366  1.0000
  S   S234      1.0  0.67059  0.05524  0.47791  1.0000
  C   C711      1.0  0.91595  0.23818  0.35507  1.0000
  H   H710      1.0  0.83306  0.07472  0.46080  1.0000
  H   H711      1.0  0.70254  0.03607  0.36590  1.0000
  H   H712      1.0  0.81645  0.05095  0.45911  1.0000
  C   C712      1.0  0.69959  0.01908  0.45896  1.0000
  C   C713      1.0  0.91747  0.24006  0.38568  1.0000
  H   H713      1.0  0.82128  0.09839  0.47641  1.0000
  C   C714      1.0  0.81162  0.06073  0.02105  1.0000
  C   C715      1.0  0.79101  0.09469  0.47520  1.0000
  C   C716      1.0  0.80646  0.08831  0.47496  1.0000
  H   H714      1.0  0.75999  0.08680  0.47202  1.0000
  C   C717      1.0  0.56597  0.01480  0.38517  1.0000
  H   H715      1.0  0.80893  0.07289  0.00915  1.0000
  H   H716      1.0  0.82766  0.06429  0.02007  1.0000
  H   H717      1.0  0.90031  0.16337  0.48271  1.0000
  H   H718      1.0  0.72895  0.04376  0.36651  1.0000
  H   H719      1.0  0.61608  0.01942  0.33381  1.0000
  H   H720      1.0  0.63299  0.00940  0.34874  1.0000
  C   C718      1.0  0.90882  0.17626  0.49192  1.0000
  C   C719      1.0  0.62176  0.01512  0.35469  1.0000
  H   H721      1.0  0.62096  0.00836  0.41424  1.0000
  H   H722      1.0  0.86007  0.21002  0.00200  1.0000
  H   H723      1.0  0.82201  0.05931  0.49536  1.0000
  Fe  Fe118     1.0  0.81056  0.16752  0.91085  1.0000
  S   S235      1.0  0.82366  0.16112  0.86946  1.0000
  S   S236      1.0  0.81147  0.19709  0.91581  1.0000
  Fe  Fe119     1.0  0.79692  0.12641  0.94119  1.0000
  S   S237      1.0  0.80949  0.11714  0.90222  1.0000
  N   N60       1.0  0.90153  0.21153  0.96519  1.0000
  Fe  Fe120     1.0  0.83568  0.14474  0.90170  1.0000
  S   S238      1.0  0.86718  0.14663  0.89870  1.0000
  Fe  Fe121     1.0  0.79620  0.13433  0.87327  1.0000
  S   S239      1.0  0.78207  0.12383  0.83044  1.0000
  S   S240      1.0  0.82411  0.15267  0.94292  1.0000
  S   S241      1.0  0.78210  0.14209  0.91230  1.0000
  H   H724      1.0  0.93693  0.22268  0.64687  1.0000
  C   C720      1.0  0.94910  0.17143  0.61887  1.0000
  H   H725      1.0  0.92187  0.17132  0.58187  1.0000
  Fe  Fe122     1.0  0.97083  0.23580  0.87211  1.0000
  S   S242      1.0  0.93774  0.22745  0.87839  1.0000
  C   C721      1.0  0.77655  0.07243  0.97423  1.0000
  S   S243      1.0  0.95689  0.19409  0.54019  1.0000
  H   H726      1.0  0.92941  0.16501  0.51027  1.0000
  Fe  Fe123     1.0  0.66509  0.05099  0.73649  1.0000
  S   S244      1.0  0.65341  0.06463  0.76995  1.0000
  C   C722      1.0  0.89481  0.19368  0.95650  1.0000
  Fe  Fe124     1.0  0.67409  0.08361  0.68757  1.0000
  S   S245      1.0  0.66378  0.10040  0.71787  1.0000
  S   S246      1.0  0.68553  0.09510  0.63905  1.0000
  Fe  Fe125     1.0  0.68002  0.09089  0.75364  1.0000
  S   S247      1.0  0.69555  0.10763  0.79111  1.0000
  Fe  Fe126     1.0  0.63830  0.07260  0.73165  1.0000
  S   S248      1.0  0.60717  0.07143  0.73783  1.0000
  S   S249      1.0  0.69255  0.07653  0.72216  1.0000
  S   S250      1.0  0.64775  0.05658  0.69930  1.0000
  S   S251      1.0  0.63410  0.06681  0.53062  1.0000
  C   C723      1.0  0.67253  0.08485  0.60862  1.0000
  C   C724      1.0  0.67978  0.09329  0.57914  1.0000
  C   C725      1.0  0.66876  0.08687  0.55463  1.0000
  C   C726      1.0  0.65033  0.07200  0.55947  1.0000
  C   C727      1.0  0.64347  0.06302  0.58879  1.0000
  C   C728      1.0  0.65452  0.06937  0.61324  1.0000
  H   H727      1.0  0.69371  0.10524  0.57531  1.0000
  H   H728      1.0  0.67411  0.09404  0.53219  1.0000
  H   H729      1.0  0.62925  0.05149  0.59273  1.0000
  H   H730      1.0  0.64876  0.06270  0.63569  1.0000
  H   H731      1.0  0.91246  0.21963  0.60897  1.0000
  H   H732      1.0  0.74184  0.05511  0.78958  1.0000
  C   C729      1.0  0.88937  0.21730  0.98177  1.0000
  C   C730      1.0  0.55306  0.02136  0.71579  1.0000
  Fe  Fe127     1.0  0.97837  0.21941  0.56044  1.0000
  C   C731      1.0  0.58870  0.03719  0.71537  1.0000
  C   C732      1.0  0.58659  0.05203  0.72902  1.0000
  C   C733      1.0  0.56766  0.05149  0.73596  1.0000
  C   C734      1.0  0.55093  0.03615  0.72959  1.0000
  H   H733      1.0  0.90500  0.19369  0.57627  1.0000
  H   H734      1.0  0.60316  0.03736  0.71009  1.0000
  H   H735      1.0  0.56592  0.06295  0.74650  1.0000
  C   C735      1.0  0.92134  0.22514  0.95478  1.0000
  C   C736      1.0  0.93667  0.19388  0.51967  1.0000
  H   H736      1.0  0.57374  0.01048  0.69828  1.0000
  H   H737      1.0  0.78331  0.07868  0.95191  1.0000
  C   C737      1.0  0.91949  0.20948  0.61168  1.0000
  H   H738      1.0  0.70914  0.04429  0.76904  1.0000
  H   H739      1.0  0.98236  0.24103  0.77282  1.0000
  C   C738      1.0  0.98838  0.23786  0.75279  1.0000
  H   H740      1.0  0.62897  0.02539  0.74307  1.0000
  C   C739      1.0  0.91464  0.20853  0.50058  1.0000
  C   C740      1.0  0.69970  0.06496  0.82799  1.0000
  C   C741      1.0  0.92478  0.18223  0.59680  1.0000
  C   C742      1.0  0.87538  0.18115  0.96406  1.0000
  C   C743      1.0  0.75780  0.11907  0.82035  1.0000
  C   C744      1.0  0.74349  0.12091  0.83962  1.0000
  C   C745      1.0  0.72454  0.11740  0.83024  1.0000
  C   C746      1.0  0.71954  0.11158  0.80186  1.0000
  C   C747      1.0  0.73372  0.10929  0.78291  1.0000
  C   C748      1.0  0.75278  0.11318  0.79203  1.0000
  H   H741      1.0  0.74709  0.12529  0.86155  1.0000
  H   H742      1.0  0.71364  0.11914  0.84512  1.0000
  H   H743      1.0  0.73009  0.10485  0.76101  1.0000
  H   H744      1.0  0.76372  0.11166  0.77696  1.0000
  C   C749      1.0  0.88697  0.16889  0.89016  1.0000
  C   C750      1.0  0.90639  0.17006  0.89144  1.0000
  C   C751      1.0  0.92230  0.18783  0.88669  1.0000
  C   C752      1.0  0.91883  0.20455  0.88069  1.0000
  C   C753      1.0  0.89945  0.20326  0.87860  1.0000
  C   C754      1.0  0.88362  0.18557  0.88327  1.0000
  H   H745      1.0  0.90913  0.15719  0.89658  1.0000
  H   H746      1.0  0.93715  0.18860  0.88833  1.0000
  H   H747      1.0  0.89658  0.21602  0.87356  1.0000
  H   H748      1.0  0.86879  0.18481  0.88170  1.0000
  C   C755      1.0  0.83452  0.21472  0.92093  1.0000
  C   C756      1.0  0.83585  0.23245  0.92900  1.0000
  C   C757      1.0  0.85418  0.24646  0.93361  1.0000
  C   C758      1.0  0.87126  0.24282  0.92978  1.0000
  C   C759      1.0  0.86988  0.22532  0.92091  1.0000
  C   C760      1.0  0.85163  0.21125  0.91689  1.0000
  H   H749      1.0  0.82265  0.23525  0.93214  1.0000
  S   S252      1.0  0.66641  0.02275  0.75134  1.0000
  H   H750      1.0  0.88299  0.22244  0.91772  1.0000
  H   H751      1.0  0.85076  0.19768  0.91072  1.0000
  H   H752      1.0  0.95376  0.20028  0.65127  1.0000
  N   N61       1.0  0.61246  0.08135  0.61418  1.0000
  C   C761      1.0  0.62734  0.09545  0.59650  1.0000
  C   C762      1.0  0.61221  0.08031  0.64482  1.0000
  C   C763      1.0  0.64305  0.10835  0.60943  1.0000
  C   C764      1.0  0.62761  0.09309  0.65844  1.0000
  C   C765      1.0  0.64324  0.10700  0.64061  1.0000
  C   C766      1.0  0.59640  0.06767  0.60014  1.0000
  H   H753      1.0  0.62762  0.09620  0.57219  1.0000
  H   H754      1.0  0.60025  0.06940  0.65899  1.0000
  H   H755      1.0  0.65540  0.11879  0.59537  1.0000
  H   H756      1.0  0.62753  0.09205  0.68270  1.0000
  H   H757      1.0  0.65570  0.11646  0.65089  1.0000
  H   H758      1.0  0.60176  0.06486  0.57829  1.0000
  H   H759      1.0  0.58999  0.05375  0.61453  1.0000
  H   H760      1.0  0.58475  0.07329  0.59619  1.0000
  C   C767      1.0  0.73004  0.05785  0.80057  1.0000
  H   H761      1.0  0.75379  0.08276  0.85514  1.0000
  H   H762      1.0  0.68809  0.06835  0.83826  1.0000
  H   H763      1.0  0.92052  0.23518  0.93568  1.0000
  H   H764      1.0  0.92847  0.23342  0.97301  1.0000
  H   H765      1.0  0.96745  0.24321  0.72489  1.0000
  C   C768      1.0  0.93319  0.21120  0.63291  1.0000
  C   C769      1.0  0.93121  0.20955  0.51606  1.0000
  H   H766      1.0  0.93873  0.15639  0.62008  1.0000
  C   C770      1.0  0.77073  0.05274  0.98281  1.0000
  H   H767      1.0  0.84762  0.17758  0.98630  1.0000
  N   N62       1.0  0.73309  0.06722  0.82550  1.0000
  H   H768      1.0  0.77312  0.04393  0.96692  1.0000
  C   C771      1.0  0.77391  0.08404  0.99475  1.0000
  C   C772      1.0  0.86986  0.20513  0.98984  1.0000
  C   C773      1.0  0.57201  0.02199  0.70865  1.0000
  N   N63       1.0  0.78834  0.17538  0.81988  1.0000
  C   C774      1.0  0.79020  0.18287  0.84658  1.0000
  C   C775      1.0  0.77020  0.16675  0.80983  1.0000
  C   C776      1.0  0.77365  0.18194  0.86385  1.0000
  C   C777      1.0  0.75335  0.16586  0.82628  1.0000
  C   C778      1.0  0.75512  0.17339  0.85358  1.0000
  C   C779      1.0  0.80571  0.17584  0.80240  1.0000
  H   H769      1.0  0.80452  0.18952  0.85486  1.0000
  H   H770      1.0  0.76863  0.16016  0.78924  1.0000
  H   H771      1.0  0.77525  0.18767  0.88524  1.0000
  H   H772      1.0  0.73898  0.15888  0.81827  1.0000
  H   H773      1.0  0.74215  0.17241  0.86692  1.0000
  H   H774      1.0  0.80486  0.17953  0.77808  1.0000
  H   H775      1.0  0.81943  0.18652  0.80919  1.0000
  H   H776      1.0  0.80672  0.16166  0.80588  1.0000
  H   H777      1.0  0.93087  0.21795  0.94683  1.0000
  C   C780      1.0  0.86284  0.18697  0.98082  1.0000
  H   H778      1.0  0.90433  0.18914  0.94307  1.0000
  H   H779      1.0  0.93973  0.22243  0.52528  1.0000
  H   H780      1.0  0.57151  0.02574  0.78695  1.0000
  H   H781      1.0  0.75488  0.06042  0.84780  1.0000
  C   C781      1.0  0.71167  0.05173  0.78883  1.0000
  H   H782      1.0  0.95937  0.17486  0.59842  1.0000
  H   H783      1.0  0.76416  0.08108  0.81963  1.0000
  H   H784      1.0  0.68221  0.05067  0.79377  1.0000
  C   C782      1.0  0.98768  0.23530  0.69902  1.0000
  C   C783      1.0  0.69646  0.05532  0.80271  1.0000
  C   C784      1.0  0.92534  0.17723  0.50759  1.0000
  S   S253      1.0  0.97072  0.24148  0.58124  1.0000
  S   S254      1.0  0.78217  0.10904  0.98593  1.0000
  H   H785      1.0  0.72059  0.07834  0.85885  1.0000
  H   H786      1.0  0.95780  0.17282  0.63880  1.0000
  C   C785      1.0  0.94270  0.19845  0.63530  1.0000
  C   C786      1.0  0.91521  0.19490  0.59348  1.0000
  H   H787      1.0  0.87000  0.16720  0.95629  1.0000
  C   C787      1.0  0.71817  0.07069  0.83934  1.0000
  H   H788      1.0  0.53642  0.03579  0.73524  1.0000
  C   C788      1.0  0.75237  0.07307  0.83767  1.0000
  H   H789      1.0  0.89449  0.23170  0.98770  1.0000
  S   S255      1.0  0.97713  0.23829  0.66512  1.0000
  N   N64       1.0  0.93842  0.18419  0.61734  1.0000
  C   C789      1.0  0.62695  0.01060  0.74627  1.0000
  Fe  Fe128     1.0  0.98946  0.23806  0.61819  1.0000
  C   C790      1.0  0.97992  0.23907  0.72551  1.0000
  S   S256      1.0  0.98461  0.25510  0.82936  1.0000
  H   H790      1.0  0.59792  0.01868  0.81187  1.0000
  H   H791      1.0  0.90989  0.24811  0.84607  1.0000
  S   S257      1.0  0.98914  0.25683  0.90127  1.0000
  C   C791      1.0  0.57068  0.01121  0.79089  1.0000
  S   S258      1.0  0.99169  0.22054  0.87197  1.0000
  H   H792      1.0  0.91054  0.22073  0.49804  1.0000
  H   H793      1.0  0.91531  0.25245  0.88410  1.0000
  Fe  Fe129     1.0  0.97120  0.47304  0.21467  1.0000
  S   S259      1.0  0.95090  0.44787  0.19356  1.0000
  H   H794      1.0  0.95626  0.36827  0.24463  1.0000
  Fe  Fe130     1.0  0.91170  0.33681  0.23582  1.0000
  S   S260      1.0  0.92398  0.33412  0.19076  1.0000
  S   S261      1.0  0.91300  0.36288  0.25714  1.0000
  Fe  Fe131     1.0  0.90264  0.29499  0.26062  1.0000
  S   S262      1.0  0.91447  0.28894  0.21773  1.0000
  S   S263      1.0  0.89355  0.27732  0.30663  1.0000
  Fe  Fe132     1.0  0.93866  0.31749  0.21695  1.0000
  S   S264      1.0  0.96976  0.32344  0.20127  1.0000
  Fe  Fe133     1.0  0.89875  0.30583  0.19434  1.0000
  S   S265      1.0  0.88252  0.29263  0.15535  1.0000
  S   S266      1.0  0.92850  0.32235  0.26161  1.0000
  S   S267      1.0  0.88486  0.30975  0.23754  1.0000
  S   S268      1.0  0.89822  0.33495  0.02226  1.0000
  S   S269      1.0  0.53331  0.48131  0.20756  1.0000
  C   C792      1.0  0.91458  0.47737  0.28417  1.0000
  H   H795      1.0  0.96545  0.39911  0.21640  1.0000
  H   H796      1.0  0.51996  0.49151  0.33704  1.0000
  C   C793      1.0  0.94999  0.32958  0.04057  1.0000
  C   C794      1.0  0.97805  0.32364  0.26031  1.0000
  N   N65       1.0  0.94790  0.32293  0.07275  1.0000
  H   H797      1.0  0.97353  0.34578  0.08269  1.0000
  H   H798      1.0  0.91758  0.28703  0.12334  1.0000
  C   C795      1.0  0.54568  0.47835  0.28562  1.0000
  C   C796      1.0  0.89522  0.33727  0.32559  1.0000
  H   H799      1.0  0.90815  0.33606  0.31387  1.0000
  H   H800      1.0  0.89509  0.33328  0.35008  1.0000
  H   H801      1.0  0.95237  0.31897  0.02740  1.0000
  C   C797      1.0  0.92001  0.45752  0.24922  1.0000
  H   H802      1.0  0.93655  0.33168  0.03379  1.0000
  C   C798      1.0  0.88765  0.30471  0.11852  1.0000
  C   C799      1.0  0.88177  0.29416  0.09426  1.0000
  C   C800      1.0  0.88555  0.30324  0.06459  1.0000
  C   C801      1.0  0.89475  0.32304  0.05904  1.0000
  C   C802      1.0  0.90067  0.33362  0.08327  1.0000
  C   C803      1.0  0.89740  0.32447  0.11290  1.0000
  H   H803      1.0  0.87416  0.27887  0.09846  1.0000
  H   H804      1.0  0.88073  0.29498  0.04611  1.0000
  H   H805      1.0  0.90767  0.34896  0.07915  1.0000
  H   H806      1.0  0.90191  0.33275  0.13142  1.0000
  H   H807      1.0  0.84945  0.27799  0.31575  1.0000
  C   C804      1.0  0.95928  0.32645  0.12212  1.0000
  H   H808      1.0  0.96984  0.33428  0.13700  1.0000
  C   C805      1.0  0.94355  0.30983  0.13364  1.0000
  H   H809      1.0  0.92190  0.29874  0.06905  1.0000
  H   H810      1.0  0.96272  0.31510  0.26595  1.0000
  C   C806      1.0  0.94206  0.42422  0.21128  1.0000
  C   C807      1.0  0.94259  0.42008  0.24220  1.0000
  C   C808      1.0  0.93378  0.40116  0.25595  1.0000
  C   C809      1.0  0.92501  0.38622  0.23877  1.0000
  C   C810      1.0  0.92520  0.39028  0.20770  1.0000
  C   C811      1.0  0.93346  0.40925  0.19410  1.0000
  H   H811      1.0  0.94929  0.43148  0.25564  1.0000
  H   H812      1.0  0.93370  0.39812  0.28001  1.0000
  H   H813      1.0  0.91836  0.37889  0.19428  1.0000
  H   H814      1.0  0.93296  0.41237  0.17017  1.0000
  N   N66       1.0  0.87727  0.32483  0.31373  1.0000
  C   C812      1.0  0.86799  0.33221  0.29318  1.0000
  C   C813      1.0  0.87055  0.30565  0.32212  1.0000
  C   C814      1.0  0.85138  0.32025  0.28073  1.0000
  C   C815      1.0  0.85416  0.29326  0.30984  1.0000
  C   C816      1.0  0.54156  0.48962  0.30528  1.0000
  C   C817      1.0  0.93252  0.30655  0.08384  1.0000
  H   H815      1.0  0.87366  0.34737  0.28577  1.0000
  H   H816      1.0  0.87822  0.29976  0.33778  1.0000
  H   H817      1.0  0.84432  0.32613  0.26400  1.0000
  Fe  Fe134     1.0  0.50227  0.47881  0.21940  1.0000
  C   C818      1.0  0.50990  0.46449  0.31935  1.0000
  H   H818      1.0  0.96908  0.35966  0.21834  1.0000
  H   H819      1.0  0.55220  0.50384  0.30682  1.0000
  C   C819      1.0  0.84450  0.30064  0.28907  1.0000
  N   N67       1.0  0.51411  0.45351  0.30006  1.0000
  C   C820      1.0  0.52353  0.48271  0.32220  1.0000
  N   N68       1.0  0.92109  0.48860  0.23144  1.0000
  S   S270      1.0  0.49437  0.48828  0.26175  1.0000
  C   C821      1.0  0.98548  0.32869  0.23025  1.0000
  H   H820      1.0  0.98472  0.32584  0.30647  1.0000
  C   C822      1.0  0.93008  0.29978  0.11444  1.0000
  H   H821      1.0  0.91474  0.44952  0.29708  1.0000
  H   H822      1.0  0.57500  0.49449  0.19322  1.0000
  C   C823      1.0  0.55302  0.50130  0.21682  1.0000
  H   H823      1.0  0.91196  0.47996  0.30697  1.0000
  H   H824      1.0  0.89700  0.35244  0.32192  1.0000
  C   C824      1.0  0.96125  0.33285  0.09142  1.0000
  H   H825      1.0  0.99063  0.43142  0.20277  1.0000
  H   H826      1.0  0.53453  0.45218  0.26627  1.0000
  H   H827      1.0  0.50622  0.42518  0.28868  1.0000
  S   S271      1.0  0.97184  0.50225  0.20052  1.0000
  S   S272      1.0  0.97192  0.47706  0.26346  1.0000
  H   H828      1.0  0.83203  0.29114  0.27887  1.0000
  H   H829      1.0  0.92594  0.46965  0.20307  1.0000
  H   H830      1.0  0.92135  0.44440  0.24455  1.0000
  C   C825      1.0  0.99056  0.32951  0.28325  1.0000
  C   C826      1.0  0.98065  0.40152  0.21919  1.0000
  H   H831      1.0  0.97459  0.35989  0.25718  1.0000
  C   C827      1.0  0.91622  0.46038  0.27863  1.0000
  C   C828      1.0  0.53154  0.46040  0.28277  1.0000
  C   C829      1.0  0.92251  0.47189  0.22576  1.0000
  H   H832      1.0  0.96264  0.34329  0.03437  1.0000
  H   H833      1.0  0.55949  0.48376  0.27185  1.0000
  C   C830      1.0  0.91680  0.49129  0.26010  1.0000
  C   C831      1.0  0.97069  0.36776  0.23796  1.0000
  H   H834      1.0  0.94179  0.30479  0.15744  1.0000
  N   N69       1.0  0.98582  0.38689  0.23029  1.0000
  H   H835      1.0  0.94859  0.50298  0.37380  1.0000
  C   C832      1.0  0.57235  0.50427  0.20695  1.0000
  H   H836      1.0  0.92927  0.50062  0.18533  1.0000
  H   H837      1.0  0.96061  0.50269  0.32143  1.0000
  C   C833      1.0  0.49939  0.43471  0.29675  1.0000
  H   H838      1.0  0.49578  0.45930  0.33224  1.0000
  C   C834      1.0  0.92409  0.50382  0.20692  1.0000
  H   H839      1.0  0.91586  0.50462  0.26462  1.0000
  H   H840      1.0  0.91021  0.50598  0.20382  1.0000
  Fe  Fe135     1.0  0.97562  0.50729  0.24876  1.0000
  C   C835      1.0  0.53658  0.47476  0.67009  1.0000
  S   S273      1.0  0.89047  0.31142  0.94336  1.0000
  Fe  Fe136     1.0  0.94370  0.31857  0.96060  1.0000
  S   S274      1.0  0.93120  0.30834  0.91824  1.0000
  S   S275      1.0  0.97490  0.32430  0.96962  1.0000
  Fe  Fe137     1.0  0.91869  0.33080  0.91693  1.0000
  S   S276      1.0  0.91938  0.34695  0.87135  1.0000
  Fe  Fe138     1.0  0.90420  0.28955  0.94738  1.0000
  H   H841      1.0  0.89898  0.37790  0.86096  1.0000
  S   S277      1.0  0.93353  0.34266  0.95710  1.0000
  S   S278      1.0  0.97856  0.44995  0.75061  1.0000
  H   H842      1.0  0.92045  0.50275  0.78376  1.0000
  Fe  Fe139     1.0  0.97993  0.48012  0.74211  1.0000
  S   S279      1.0  0.96570  0.43588  0.84262  1.0000
  H   H843      1.0  0.93048  0.40685  0.96134  1.0000
  H   H844      1.0  0.59791  0.48573  0.94812  1.0000
  Fe  Fe140     1.0  0.51038  0.47101  0.74535  1.0000
  S   S280      1.0  0.51002  0.44227  0.73545  1.0000
  C   C836      1.0  0.95072  0.50445  0.72353  1.0000
  H   H845      1.0  0.97560  0.29397  0.82660  1.0000
  H   H846      1.0  0.94050  0.48580  0.76500  1.0000
  C   C837      1.0  0.91058  0.37751  0.96472  1.0000
  H   H847      1.0  0.58221  0.50362  0.91929  1.0000
  H   H848      1.0  0.94780  0.26351  0.84291  1.0000
  H   H849      1.0  0.50008  0.40246  0.72977  1.0000
  C   C838      1.0  0.50265  0.46749  0.65748  1.0000
  C   C839      1.0  0.89786  0.36341  0.94949  1.0000
  H   H850      1.0  0.88826  0.39402  0.87311  1.0000
  S   S281      1.0  0.91797  0.29823  0.99040  1.0000
  C   C840      1.0  0.94031  0.31077  0.84262  1.0000
  H   H851      1.0  0.97102  0.32445  0.82766  1.0000
  H   H852      1.0  0.53228  0.46024  0.68067  1.0000
  H   H853      1.0  0.60954  0.49396  0.98132  1.0000
  Fe  Fe141     1.0  0.90660  0.32162  0.98415  1.0000
  H   H854      1.0  0.97543  0.28653  0.88862  1.0000
  S   S282      1.0  0.50537  0.47613  0.79291  1.0000
  C   C841      1.0  0.94555  0.27675  0.84251  1.0000
  H   H855      1.0  0.56664  0.48259  0.68096  1.0000
  C   C842      1.0  0.95620  0.41073  0.84824  1.0000
  C   C843      1.0  0.95555  0.40160  0.87722  1.0000
  C   C844      1.0  0.94537  0.38183  0.88409  1.0000
  C   C845      1.0  0.93536  0.37106  0.86214  1.0000
  C   C846      1.0  0.93661  0.38005  0.83283  1.0000
  C   C847      1.0  0.94710  0.39981  0.82582  1.0000
  H   H856      1.0  0.96257  0.40995  0.89467  1.0000
  H   H857      1.0  0.94461  0.37511  0.90668  1.0000
  H   H858      1.0  0.92887  0.37183  0.81572  1.0000
  H   H859      1.0  0.94731  0.40672  0.80352  1.0000
  C   C848      1.0  0.96130  0.29392  0.83320  1.0000
  C   C849      1.0  0.98357  0.29908  0.89880  1.0000
  C   C850      1.0  0.92482  0.29331  0.85158  1.0000
  S   S283      1.0  0.97876  0.48400  0.79081  1.0000
  C   C851      1.0  0.97538  0.30291  0.92472  1.0000
  H   H860      1.0  0.93817  0.32401  0.84352  1.0000
  H   H861      1.0  0.96110  0.29318  0.93453  1.0000
  H   H862      1.0  0.88574  0.35657  0.90745  1.0000
  C   C852      1.0  0.95870  0.31103  0.83369  1.0000
  H   H863      1.0  0.85503  0.25990  0.94043  1.0000
  H   H864      1.0  0.91416  0.40230  0.86185  1.0000
  H   H865      1.0  0.92505  0.41400  0.90820  1.0000
  C   C853      1.0  0.92041  0.39581  0.94980  1.0000
  C   C854      1.0  0.98573  0.31913  0.93813  1.0000
  N   N70       1.0  0.52304  0.48079  0.65744  1.0000
  C   C855      1.0  0.52860  0.49898  0.64354  1.0000
  N   N71       1.0  0.92763  0.27662  0.85164  1.0000
  N   N72       1.0  0.90494  0.38575  0.90488  1.0000
  C   C856      1.0  0.91724  0.39977  0.91977  1.0000
  C   C857      1.0  0.89529  0.36775  0.91934  1.0000
  C   C858      1.0  0.55611  0.48731  0.67013  1.0000
  S   S284      1.0  0.89466  0.25902  0.93700  1.0000
  S   S285      1.0  0.96387  0.49180  0.70886  1.0000
  C   C859      1.0  0.90134  0.39023  0.87370  1.0000
  S   S286      1.0  0.53530  0.49969  0.73334  1.0000
  H   H866      1.0  0.89020  0.34915  0.96102  1.0000
  H   H867      1.0  0.91285  0.37415  0.98802  1.0000
  Fe  Fe142     1.0  0.98032  0.45505  0.79924  1.0000
  C   C860      1.0  0.94025  0.49828  0.75168  1.0000
  H   H868      1.0  0.91073  0.29330  0.85941  1.0000
  C   C861      1.0  0.60668  0.49862  0.95836  1.0000
  H   H869      1.0  0.49868  0.45609  0.67676  1.0000
  H   H870      1.0  0.59372  0.49688  0.85152  1.0000
  H   H871      1.0  0.56620  0.49702  0.82125  1.0000
  Fe  Fe143     1.0  0.52814  0.50573  0.77961  1.0000
  H   H872      1.0  0.50047  0.46082  0.63635  1.0000
  H   H873      1.0  0.62092  0.50578  0.94463  1.0000
  C   C862      1.0  0.56180  0.50602  0.65661  1.0000
  H   H874      1.0  0.51791  0.50379  0.63340  1.0000
  H   H875      1.0  0.89165  0.50723  0.58066  1.0000
  H   H876      1.0  0.89750  0.25993  0.86683  1.0000
  H   H877      1.0  0.91446  0.50440  0.68040  1.0000
  H   H878      1.0  0.99284  0.42306  0.70276  1.0000
  C   C863      1.0  0.91174  0.25843  0.86257  1.0000
  H   H879      1.0  0.71137  0.58367  0.09230  1.0000
  H   H880      1.0  0.81918  0.54443  0.46259  1.0000
  H   H881      1.0  0.98456  0.74964  0.30001  1.0000
  H   H882      1.0  0.89564  0.67720  0.44864  1.0000
  S   S287      1.0  0.96177  0.71309  0.13170  1.0000
  S   S288      1.0  0.95152  0.73053  0.04731  1.0000
  Fe  Fe144     1.0  0.83188  0.66122  0.38374  1.0000
  S   S289      1.0  0.82069  0.65503  0.43254  1.0000
  S   S290      1.0  0.86365  0.67209  0.36467  1.0000
  Fe  Fe145     1.0  0.79087  0.63919  0.36195  1.0000
  S   S291      1.0  0.77688  0.63112  0.40908  1.0000
  S   S292      1.0  0.77670  0.63167  0.31786  1.0000
  Fe  Fe146     1.0  0.79486  0.66130  0.41669  1.0000
  S   S293      1.0  0.77789  0.67695  0.43835  1.0000
  Fe  Fe147     1.0  0.80376  0.62567  0.42103  1.0000
  S   S294      1.0  0.80069  0.59918  0.45090  1.0000
  S   S295      1.0  0.80742  0.66989  0.36833  1.0000
  S   S296      1.0  0.81632  0.63123  0.37360  1.0000
  Fe  Fe148     1.0  0.96882  0.73314  0.40439  1.0000
  S   S297      1.0  0.97344  0.70966  0.38341  1.0000
  S   S298      1.0  0.93840  0.73330  0.41280  1.0000
  C   C864      1.0  0.79047  0.74254  0.46900  1.0000
  S   S299      1.0  0.98536  0.73076  0.44460  1.0000
  C   C865      1.0  0.92385  0.65713  0.41755  1.0000
  H   H883      1.0  0.66735  0.60109  0.03545  1.0000
  Fe  Fe149     1.0  0.92552  0.58902  0.40475  1.0000
  S   S300      1.0  0.90500  0.56377  0.38540  1.0000
  S   S301      1.0  0.94277  0.61542  0.37371  1.0000
  Fe  Fe150     1.0  0.91802  0.56887  0.46850  1.0000
  S   S302      1.0  0.89690  0.54171  0.45430  1.0000
  Fe  Fe151     1.0  0.91847  0.54708  0.41425  1.0000
  S   S303      1.0  0.92924  0.52471  0.39975  1.0000
  Fe  Fe152     1.0  0.88535  0.56093  0.42656  1.0000
  S   S304      1.0  0.85287  0.55277  0.42288  1.0000
  S   S305      1.0  0.94052  0.57274  0.43075  1.0000
  S   S306      1.0  0.90492  0.58772  0.44368  1.0000
  Fe  Fe153     1.0  0.67814  0.57335  0.24324  1.0000
  S   S307      1.0  0.69177  0.58816  0.19756  1.0000
  S   S308      1.0  0.69346  0.57319  0.28665  1.0000
  Fe  Fe154     1.0  0.63607  0.56324  0.22340  1.0000
  S   S309      1.0  0.64653  0.57815  0.17663  1.0000
  Fe  Fe155     1.0  0.66832  0.56418  0.17887  1.0000
  S   S310      1.0  0.67714  0.55387  0.13708  1.0000
  Fe  Fe156     1.0  0.66897  0.60072  0.19836  1.0000
  S   S311      1.0  0.67886  0.63184  0.18308  1.0000
  S   S312      1.0  0.65655  0.54764  0.22479  1.0000
  S   S313      1.0  0.65665  0.58758  0.24500  1.0000
  Fe  Fe157     1.0  0.57538  0.65742  0.31300  1.0000
  S   S314      1.0  0.55532  0.64445  0.27751  1.0000
  S   S315      1.0  0.56775  0.66862  0.35433  1.0000
  Fe  Fe158     1.0  0.61083  0.65508  0.28067  1.0000
  S   S316      1.0  0.59402  0.64125  0.24324  1.0000
  S   S317      1.0  0.64348  0.66608  0.28091  1.0000
  Fe  Fe159     1.0  0.58072  0.66324  0.24432  1.0000
  S   S318      1.0  0.58090  0.67905  0.19867  1.0000
  Fe  Fe160     1.0  0.57039  0.62371  0.27917  1.0000
  H   H884      1.0  0.93760  0.54458  0.29071  1.0000
  S   S319      1.0  0.59902  0.67796  0.27973  1.0000
  S   S320      1.0  0.58885  0.63569  0.31681  1.0000
  S   S321      1.0  0.95903  0.52471  0.26512  1.0000
  C   C866      1.0  0.52328  0.62887  0.35868  1.0000
  C   C867      1.0  0.53218  0.55606  0.27528  1.0000
  C   C868      1.0  0.59519  0.70370  0.19080  1.0000
  C   C869      1.0  0.60134  0.71506  0.21389  1.0000
  C   C870      1.0  0.61234  0.73467  0.20711  1.0000
  C   C871      1.0  0.54978  0.51397  0.23467  1.0000
  C   C872      1.0  0.61169  0.73177  0.15401  1.0000
  C   C873      1.0  0.60035  0.71215  0.16082  1.0000
  H   H885      1.0  0.59720  0.70885  0.23701  1.0000
  C   C874      1.0  0.97895  0.66579  0.39638  1.0000
  H   H886      1.0  0.61571  0.73810  0.13089  1.0000
  H   H887      1.0  0.59556  0.70346  0.14283  1.0000
  C   C875      1.0  0.56714  0.65651  0.39011  1.0000
  C   C876      1.0  0.56575  0.63766  0.39361  1.0000
  C   C877      1.0  0.56326  0.62775  0.42252  1.0000
  C   C878      1.0  0.56255  0.63673  0.44804  1.0000
  C   C879      1.0  0.56495  0.65586  0.44457  1.0000
  C   C880      1.0  0.56698  0.66564  0.41566  1.0000
  H   H888      1.0  0.56577  0.63046  0.37412  1.0000
  H   H889      1.0  0.56136  0.61293  0.42513  1.0000
  H   H890      1.0  0.56427  0.66284  0.46415  1.0000
  H   H891      1.0  0.56804  0.68022  0.41311  1.0000
  C   C881      1.0  0.66480  0.55443  0.10413  1.0000
  C   C882      1.0  0.67312  0.55260  0.07652  1.0000
  C   C883      1.0  0.66413  0.55406  0.04973  1.0000
  C   C884      1.0  0.64651  0.55694  0.05054  1.0000
  C   C885      1.0  0.63798  0.55828  0.07821  1.0000
  C   C886      1.0  0.64712  0.55715  0.10482  1.0000
  H   H892      1.0  0.68668  0.55025  0.07580  1.0000
  H   H893      1.0  0.67075  0.55283  0.02855  1.0000
  H   H894      1.0  0.62426  0.56032  0.07907  1.0000
  H   H895      1.0  0.64028  0.55806  0.12591  1.0000
  C   C887      1.0  0.66840  0.64177  0.20877  1.0000
  C   C888      1.0  0.65010  0.63091  0.22394  1.0000
  C   C889      1.0  0.64233  0.63842  0.24602  1.0000
  C   C890      1.0  0.65307  0.65662  0.25338  1.0000
  C   C891      1.0  0.67140  0.66748  0.23825  1.0000
  C   C892      1.0  0.67894  0.66016  0.21561  1.0000
  H   H896      1.0  0.64186  0.61672  0.21861  1.0000
  H   H897      1.0  0.62822  0.62993  0.25784  1.0000
  H   H898      1.0  0.67968  0.68159  0.24386  1.0000
  H   H899      1.0  0.69313  0.66854  0.20397  1.0000
  H   H900      1.0  0.54235  0.55118  0.28674  1.0000
  H   H901      1.0  0.97514  0.68723  0.28532  1.0000
  H   H902      1.0  0.96943  0.65380  0.35551  1.0000
  C   C893      1.0  0.96656  0.64428  0.44238  1.0000
  C   C894      1.0  0.95627  0.62958  0.42572  1.0000
  C   C895      1.0  0.95707  0.63310  0.39443  1.0000
  C   C896      1.0  0.96865  0.65111  0.37972  1.0000
  H   H903      1.0  0.62140  0.67950  0.18626  1.0000
  C   C897      1.0  0.97232  0.68677  0.23791  1.0000
  H   H904      1.0  0.94748  0.61564  0.43718  1.0000
  C   C898      1.0  0.77327  0.74619  0.46858  1.0000
  H   H905      1.0  0.83868  0.61108  0.41563  1.0000
  C   C899      1.0  0.75357  0.61499  0.30993  1.0000
  C   C900      1.0  0.73938  0.60345  0.33257  1.0000
  C   C901      1.0  0.72116  0.59063  0.32501  1.0000
  C   C902      1.0  0.71672  0.58948  0.29485  1.0000
  C   C903      1.0  0.73085  0.60114  0.27226  1.0000
  C   C904      1.0  0.74924  0.61362  0.27978  1.0000
  H   H906      1.0  0.74242  0.60439  0.35587  1.0000
  H   H907      1.0  0.71034  0.58161  0.34264  1.0000
  H   H908      1.0  0.72772  0.60034  0.24897  1.0000
  H   H909      1.0  0.76012  0.62243  0.26207  1.0000
  C   C905      1.0  0.90460  0.69975  0.00389  1.0000
  H   H910      1.0  0.57135  0.53460  0.15467  1.0000
  C   C906      1.0  0.65767  0.73171  0.22464  1.0000
  C   C907      1.0  0.88407  0.68940  0.37827  1.0000
  C   C908      1.0  0.88202  0.70014  0.40065  1.0000
  C   C909      1.0  0.89879  0.71368  0.41087  1.0000
  C   C910      1.0  0.91768  0.71634  0.39915  1.0000
  C   C911      1.0  0.91969  0.70541  0.37704  1.0000
  C   C912      1.0  0.90295  0.69209  0.36655  1.0000
  H   H911      1.0  0.86754  0.69819  0.40980  1.0000
  H   H912      1.0  0.89713  0.72214  0.42791  1.0000
  H   H913      1.0  0.93411  0.70744  0.36767  1.0000
  H   H914      1.0  0.90461  0.68376  0.34930  1.0000
  C   C913      1.0  0.81733  0.58805  0.44528  1.0000
  C   C914      1.0  0.83468  0.59670  0.42637  1.0000
  C   C915      1.0  0.84663  0.58644  0.42086  1.0000
  C   C916      1.0  0.84098  0.56749  0.43384  1.0000
  C   C917      1.0  0.82376  0.55911  0.45284  1.0000
  C   C918      1.0  0.81220  0.56941  0.45893  1.0000
  C   C919      1.0  0.52247  0.58171  0.25669  1.0000
  H   H915      1.0  0.85970  0.59284  0.40562  1.0000
  C   C920      1.0  0.98320  0.66972  0.07915  1.0000
  H   H916      1.0  0.53502  0.51195  0.24230  1.0000
  C   C921      1.0  0.93002  0.71187  0.03871  1.0000
  C   C922      1.0  0.90509  0.67981  0.04886  1.0000
  C   C923      1.0  0.92181  0.69446  0.05706  1.0000
  H   H917      1.0  0.89886  0.66640  0.06320  1.0000
  H   H918      1.0  0.92835  0.69230  0.07756  1.0000
  H   H919      1.0  0.66181  0.61701  0.12365  1.0000
  C   C924      1.0  0.98772  0.74467  0.22522  1.0000
  C   C925      1.0  0.94999  0.52365  0.30251  1.0000
  Fe  Fe161     1.0  0.98732  0.70476  0.12351  1.0000
  H   H920      1.0  0.69026  0.60940  0.13710  1.0000
  N   N73       1.0  0.69459  0.60092  0.09440  1.0000
  H   H921      1.0  0.94806  0.71764  0.29877  1.0000
  C   C926      1.0  0.93641  0.52405  0.36200  1.0000
  C   C927      1.0  0.93323  0.53564  0.33839  1.0000
  C   C928      1.0  0.93997  0.53540  0.30878  1.0000
  C   C929      1.0  0.54636  0.56138  0.19840  1.0000
  H   H922      1.0  0.75737  0.69488  0.47093  1.0000
  H   H923      1.0  0.92573  0.54492  0.34300  1.0000
  H   H924      1.0  0.96556  0.64168  0.46662  1.0000
  N   N74       1.0  0.70355  0.62831  0.28895  1.0000
  C   C930      1.0  0.72106  0.63745  0.30057  1.0000
  C   C931      1.0  0.70155  0.63166  0.25901  1.0000
  C   C932      1.0  0.73731  0.64989  0.28188  1.0000
  C   C933      1.0  0.71748  0.64397  0.23966  1.0000
  C   C934      1.0  0.73550  0.65306  0.25120  1.0000
  C   C935      1.0  0.68657  0.61538  0.30871  1.0000
  H   H925      1.0  0.72274  0.63476  0.32427  1.0000
  H   H926      1.0  0.68761  0.62471  0.24988  1.0000
  H   H927      1.0  0.75137  0.65651  0.29106  1.0000
  H   H928      1.0  0.71579  0.64632  0.21585  1.0000
  H   H929      1.0  0.74808  0.66241  0.23639  1.0000
  H   H930      1.0  0.69110  0.60995  0.32984  1.0000
  H   H931      1.0  0.67668  0.62276  0.31403  1.0000
  H   H932      1.0  0.67828  0.60264  0.29772  1.0000
  N   N75       1.0  0.61626  0.65396  0.43180  1.0000
  C   C936      1.0  0.62035  0.67123  0.44189  1.0000
  C   C937      1.0  0.61325  0.65192  0.40222  1.0000
  C   C938      1.0  0.62129  0.68701  0.42226  1.0000
  C   C939      1.0  0.61440  0.66746  0.38188  1.0000
  C   C940      1.0  0.61821  0.68504  0.39209  1.0000
  C   C941      1.0  0.61391  0.63737  0.45328  1.0000
  H   H933      1.0  0.62280  0.67286  0.46530  1.0000
  H   H934      1.0  0.60953  0.63815  0.39427  1.0000
  H   H935      1.0  0.62417  0.70058  0.43052  1.0000
  H   H936      1.0  0.61168  0.66577  0.35854  1.0000
  H   H937      1.0  0.61844  0.69700  0.37668  1.0000
  C   C942      1.0  0.98922  0.74575  0.27941  1.0000
  H   H938      1.0  0.64994  0.61259  0.07250  1.0000
  H   H939      1.0  0.56304  0.53906  0.25662  1.0000
  H   H940      1.0  0.92791  0.68805  0.46718  1.0000
  H   H941      1.0  0.97564  0.67937  0.07694  1.0000
  Fe  Fe162     1.0  0.98430  0.73863  0.14840  1.0000
  H   H942      1.0  0.61682  0.74335  0.22520  1.0000
  H   H943      1.0  0.93869  0.69244  0.31154  1.0000
  H   H944      1.0  0.51887  0.54067  0.18763  1.0000
  C   C943      1.0  0.51994  0.63751  0.38320  1.0000
  H   H945      1.0  0.72531  0.60861  0.09530  1.0000
  H   H946      1.0  0.52688  0.63703  0.33659  1.0000
  H   H947      1.0  0.64508  0.70311  0.24696  1.0000
  H   H948      1.0  0.69601  0.59389  0.04978  1.0000
  S   S322      1.0  0.97733  0.74885  0.19166  1.0000
  H   H949      1.0  0.66101  0.73810  0.24529  1.0000
  C   C944      1.0  0.89651  0.68230  0.02213  1.0000
  C   C945      1.0  0.51958  0.60097  0.39091  1.0000
  H   H950      1.0  0.96424  0.59918  0.31614  1.0000
  C   C946      1.0  0.58499  0.53252  0.23254  1.0000
  C   C947      1.0  0.76933  0.69451  0.48385  1.0000
  S   S323      1.0  0.63463  0.55912  0.01776  1.0000
  S   S324      1.0  0.55737  0.59142  0.28460  1.0000
  S   S325      1.0  0.99103  0.75609  0.10278  1.0000
  S   S326      1.0  0.60416  0.55312  0.24120  1.0000
  N   N76       1.0  0.52289  0.61075  0.36271  1.0000
  H   H951      1.0  0.80755  0.68007  0.48135  1.0000
  S   S327      1.0  0.98462  0.67493  0.13862  1.0000
  C   C948      1.0  0.68865  0.59914  0.06596  1.0000
  H   H952      1.0  0.64464  0.67720  0.19253  1.0000
  C   C949      1.0  0.56570  0.52932  0.24284  1.0000
  C   C950      1.0  0.66215  0.74318  0.19706  1.0000
  H   H953      1.0  0.52507  0.59670  0.25350  1.0000
  C   C951      1.0  0.90966  0.64290  0.40419  1.0000
  C   C952      1.0  0.88503  0.65327  0.42371  1.0000
  C   C953      1.0  0.89012  0.64102  0.40730  1.0000
  H   H954      1.0  0.91387  0.63354  0.39129  1.0000
  H   H955      1.0  0.86998  0.65234  0.42534  1.0000
  H   H956      1.0  0.87898  0.63033  0.39659  1.0000
  H   H957      1.0  0.95777  0.58662  0.36993  1.0000
  H   H958      1.0  0.59112  0.56220  0.17967  1.0000
  N   N77       1.0  0.78651  0.57856  0.37628  1.0000
  C   C954      1.0  0.78479  0.58955  0.35145  1.0000
  C   C955      1.0  0.80235  0.57346  0.37792  1.0000
  C   C956      1.0  0.77107  0.57219  0.40096  1.0000
  H   H959      1.0  0.77226  0.59362  0.35013  1.0000
  H   H960      1.0  0.80368  0.56457  0.39740  1.0000
  H   H961      1.0  0.77528  0.56531  0.42106  1.0000
  H   H962      1.0  0.76851  0.58461  0.40823  1.0000
  H   H963      1.0  0.75726  0.56196  0.39371  1.0000
  C   C957      1.0  0.78211  0.68649  0.47286  1.0000
  H   H964      1.0  0.95670  0.69226  0.01470  1.0000
  H   H965      1.0  0.60311  0.52231  0.20642  1.0000
  C   C958      1.0  0.89962  0.66730  0.43684  1.0000
  H   H966      1.0  0.93902  0.65880  0.41451  1.0000
  C   C959      1.0  0.95120  0.70158  0.21724  1.0000
  H   H967      1.0  0.98229  0.67958  0.23491  1.0000
  H   H968      1.0  0.61582  0.62583  0.44202  1.0000
  N   N78       1.0  0.91869  0.66888  0.43403  1.0000
  C   C960      1.0  0.63405  0.68323  0.20042  1.0000
  C   C961      1.0  0.98183  0.55977  0.34640  1.0000
  C   C962      1.0  0.50582  0.56838  0.24571  1.0000
  H   H969      1.0  0.93552  0.51731  0.21217  1.0000
  C   C963      1.0  0.93393  0.68394  0.44721  1.0000
  C   C964      1.0  0.56421  0.54235  0.16625  1.0000
  C   C965      1.0  0.57532  0.55804  0.18034  1.0000
  H   H970      1.0  0.81906  0.73105  0.47946  1.0000
  H   H971      1.0  0.59339  0.58922  0.20442  1.0000
  H   H972      1.0  0.57789  0.57597  0.23735  1.0000
  H   H973      1.0  0.98632  0.54841  0.35507  1.0000
  C   C966      1.0  0.96561  0.58110  0.35505  1.0000
  C   C967      1.0  0.51625  0.60922  0.41595  1.0000
  C   C968      1.0  0.53576  0.57555  0.27139  1.0000
  C   C969      1.0  0.95147  0.70462  0.30000  1.0000
  H   H974      1.0  0.82758  0.59689  0.31165  1.0000
  C   C970      1.0  0.50247  0.54889  0.24907  1.0000
  Fe  Fe163     1.0  0.97082  0.72933  0.08548  1.0000
  C   C971      1.0  0.92142  0.64958  0.00524  1.0000
  C   C972      1.0  0.81738  0.57997  0.35477  1.0000
  C   C973      1.0  0.64853  0.71195  0.22543  1.0000
  H   H975      1.0  0.76398  0.74259  0.45016  1.0000
  C   C974      1.0  0.58830  0.51995  0.21452  1.0000
  C   C975      1.0  0.61765  0.74311  0.17723  1.0000
  C   C976      1.0  0.57790  0.58223  0.21388  1.0000
  N   N79       1.0  0.56633  0.56722  0.19643  1.0000
  N   N80       1.0  0.98523  0.56663  0.31654  1.0000
  C   C977      1.0  0.79944  0.59619  0.32774  1.0000
  H   H976      1.0  0.83014  0.57626  0.35667  1.0000
  H   H977      1.0  0.51480  0.63450  0.43136  1.0000
  C   C978      1.0  0.92123  0.71447  0.01224  1.0000
  C   C979      1.0  0.54378  0.53598  0.16892  1.0000
  C   C980      1.0  0.66267  0.60962  0.07852  1.0000
  H   H978      1.0  0.98194  0.58622  0.28196  1.0000
  C   C981      1.0  0.51573  0.54283  0.26402  1.0000
  H   H979      1.0  0.53927  0.56868  0.21099  1.0000
  C   C982      1.0  0.98753  0.66379  0.10754  1.0000
  N   N81       1.0  0.95598  0.70061  0.26995  1.0000
  C   C983      1.0  0.79760  0.68619  0.48962  1.0000
  H   H980      1.0  0.57169  0.59336  0.21463  1.0000
  H   H981      1.0  0.79886  0.56265  0.47355  1.0000
  C   C984      1.0  0.96819  0.69112  0.26631  1.0000
  C   C985      1.0  0.66921  0.61197  0.10719  1.0000
  C   C986      1.0  0.81591  0.59148  0.32959  1.0000
  C   C987      1.0  0.67251  0.60329  0.05766  1.0000
  S   S328      1.0  0.55647  0.62319  0.48365  1.0000
  H   H982      1.0  0.94090  0.65923  0.04028  1.0000
  C   C988      1.0  0.68534  0.60759  0.11474  1.0000
  H   H983      1.0  0.94590  0.67936  0.45435  1.0000
  C   C989      1.0  0.53476  0.54563  0.18493  1.0000
  H   H984      1.0  0.79819  0.60535  0.30850  1.0000
  H   H985      1.0  0.52324  0.60774  0.31581  1.0000
  H   H986      1.0  0.94037  0.69674  0.43046  1.0000
  C   C990      1.0  0.97756  0.66248  0.42773  1.0000
  C   C991      1.0  0.98927  0.66370  0.05347  1.0000
  C   C992      1.0  0.97191  0.56684  0.36608  1.0000
  C   C993      1.0  0.71144  0.59631  0.10266  1.0000
  H   H987      1.0  0.51433  0.60174  0.43843  1.0000
  H   H988      1.0  0.53496  0.52329  0.15934  1.0000
  H   H989      1.0  0.98793  0.67968  0.38496  1.0000
  C   C994      1.0  0.65763  0.73481  0.17068  1.0000
  N   N82       1.0  0.64372  0.70391  0.19946  1.0000
  C   C995      1.0  0.96925  0.58813  0.32468  1.0000
  H   H990      1.0  0.64434  0.70865  0.15177  1.0000
  H   H991      1.0  0.93788  0.71342  0.24861  1.0000
  H   H992      1.0  0.59904  0.63177  0.46528  1.0000
  C   C996      1.0  0.94736  0.70568  0.24592  1.0000
  H   H993      1.0  0.62497  0.64126  0.47015  1.0000
  H   H994      1.0  0.71174  0.75243  0.02637  1.0000
  C   C997      1.0  0.96379  0.69210  0.21323  1.0000
  H   H995      1.0  0.98683  0.66912  0.03145  1.0000
  C   C998      1.0  0.51651  0.62764  0.41201  1.0000
  C   C999      1.0  0.95294  0.51183  0.32600  1.0000
  H   H996      1.0  0.54381  0.60605  0.33452  1.0000
  H   H997      1.0  0.71076  0.59238  0.12733  1.0000
  Fe  Fe164     1.0  0.99192  0.70894  0.42161  1.0000
  H   H998      1.0  0.99171  0.56025  0.27311  1.0000
  H   H999      1.0  0.96860  0.56090  0.38956  1.0000
  H   H1000     1.0  0.96712  0.68910  0.19098  1.0000
  C   C1000     1.0  0.94611  0.51201  0.35563  1.0000
  N   N83       1.0  0.80197  0.74660  0.49261  1.0000
  S   S329      1.0  0.87616  0.66295  0.01214  1.0000
  C   C1001     1.0  0.93654  0.66299  0.01852  1.0000
  H   H1001     1.0  0.79432  0.73601  0.45067  1.0000
  H   H1002     1.0  0.91411  0.63537  0.01702  1.0000
  H   H1003     1.0  0.51998  0.58689  0.39426  1.0000
  C   C1002     1.0  0.52774  0.60241  0.33706  1.0000
  H   H1004     1.0  0.62813  0.67634  0.22353  1.0000
  H   H1005     1.0  0.94492  0.70630  0.19809  1.0000
  H   H1006     1.0  0.51339  0.52795  0.26687  1.0000
  H   H1007     1.0  0.96425  0.70729  0.31378  1.0000
  C   C1003     1.0  0.64829  0.71503  0.17230  1.0000
  H   H1008     1.0  0.52106  0.65215  0.37997  1.0000
  H   H1009     1.0  0.52019  0.58666  0.33993  1.0000
  S   S330      1.0  0.98793  0.68135  0.44882  1.0000
  H   H1010     1.0  0.73368  0.65745  0.48290  1.0000
  H   H1011     1.0  0.66073  0.74369  0.14921  1.0000
  C   C1004     1.0  0.98197  0.74985  0.25210  1.0000
  H   H1012     1.0  0.49563  0.57321  0.23417  1.0000
  C   C1005     1.0  0.94549  0.68151  0.00409  1.0000
  C   C1006     1.0  0.97921  0.58074  0.30560  1.0000
  H   H1013     1.0  0.83267  0.75597  0.48253  1.0000
  C   C1007     1.0  0.76813  0.75444  0.49217  1.0000
  C   C1008     1.0  0.82012  0.74300  0.49248  1.0000
  H   H1014     1.0  0.66866  0.72313  0.03243  1.0000
  H   H1015     1.0  0.92743  0.72792  0.99798  1.0000
  C   C1009     1.0  0.67092  0.72463  0.00816  1.0000
  H   H1016     1.0  0.75482  0.75736  0.49235  1.0000
  H   H1017     1.0  0.97171  0.75689  0.25180  1.0000
  H   H1018     1.0  0.61014  0.52356  0.99748  1.0000
  H   H1019     1.0  0.59471  0.54710  0.99726  1.0000
  H   H1020     1.0  0.66072  0.74743  0.00171  1.0000
  H   H1021     1.0  0.68308  0.70301  0.00753  1.0000
  H   H1022     1.0  0.99324  0.54425  0.30352  1.0000
  Fe  Fe165     1.0  0.91130  0.56120  0.73285  1.0000
  S   S331      1.0  0.92510  0.57294  0.68624  1.0000
  Fe  Fe166     1.0  0.89396  0.59151  0.73753  1.0000
  S   S332      1.0  0.90649  0.60565  0.69086  1.0000
  S   S333      1.0  0.87394  0.60335  0.76097  1.0000
  Fe  Fe167     1.0  0.89695  0.57637  0.67719  1.0000
  S   S334      1.0  0.88152  0.56974  0.63462  1.0000
  Fe  Fe168     1.0  0.93361  0.60126  0.70349  1.0000
  S   S335      1.0  0.96324  0.62296  0.68582  1.0000
  S   S336      1.0  0.88208  0.56225  0.72273  1.0000
  S   S337      1.0  0.92210  0.58934  0.75132  1.0000
  H   H1023     1.0  0.93866  0.54270  0.70370  1.0000
  Fe  Fe169     1.0  0.85106  0.67848  0.91041  1.0000
  S   S338      1.0  0.83758  0.67291  0.95748  1.0000
  S   S339      1.0  0.85745  0.70652  0.88260  1.0000
  Fe  Fe170     1.0  0.85520  0.64045  0.91296  1.0000
  S   S340      1.0  0.84096  0.63166  0.96022  1.0000
  S   S341      1.0  0.86867  0.62079  0.89534  1.0000
  Fe  Fe171     1.0  0.81940  0.64419  0.94435  1.0000
  C   C1010     1.0  0.97036  0.56786  0.75596  1.0000
  Fe  Fe172     1.0  0.86037  0.66112  0.96911  1.0000
  H   H1024     1.0  0.55225  0.60615  0.67067  1.0000
  S   S342      1.0  0.83188  0.65050  0.89624  1.0000
  S   S343      1.0  0.87561  0.66918  0.92283  1.0000
  Fe  Fe173     1.0  0.76849  0.74041  0.89134  1.0000
  S   S344      1.0  0.74955  0.71152  0.88053  1.0000
  C   C1011     1.0  0.57090  0.59617  0.71291  1.0000
  H   H1025     1.0  0.68909  0.70760  0.95218  1.0000
  S   S345      1.0  0.71238  0.72420  0.89302  1.0000
  Fe  Fe174     1.0  0.73015  0.71147  0.92010  1.0000
  S   S346      1.0  0.71548  0.68616  0.95460  1.0000
  Fe  Fe175     1.0  0.73369  0.72702  0.85411  1.0000
  S   S347      1.0  0.75058  0.73903  0.93372  1.0000
  Fe  Fe176     1.0  0.64871  0.56322  0.97047  1.0000
  S   S348      1.0  0.65711  0.54233  0.94723  1.0000
  Fe  Fe177     1.0  0.65794  0.59098  0.91402  1.0000
  S   S349      1.0  0.66726  0.57262  0.88624  1.0000
  S   S350      1.0  0.65859  0.61877  0.89190  1.0000
  Fe  Fe178     1.0  0.64056  0.54864  0.90888  1.0000
  S   S351      1.0  0.62041  0.52444  0.88484  1.0000
  Fe  Fe179     1.0  0.68306  0.56819  0.92637  1.0000
  S   S352      1.0  0.71403  0.56929  0.91762  1.0000
  S   S353      1.0  0.63020  0.56751  0.93384  1.0000
  S   S354      1.0  0.67571  0.58854  0.95244  1.0000
  Fe  Fe180     1.0  0.75913  0.73613  0.64204  1.0000
  H   H1026     1.0  0.88536  0.63847  0.97574  1.0000
  Fe  Fe181     1.0  0.72744  0.70618  0.61353  1.0000
  S   S355      1.0  0.74093  0.71779  0.56680  1.0000
  S   S356      1.0  0.69964  0.68021  0.62227  1.0000
  Fe  Fe182     1.0  0.76930  0.72088  0.58566  1.0000
  S   S357      1.0  0.79175  0.71216  0.56206  1.0000
  S   S358      1.0  0.75554  0.70688  0.63183  1.0000
  Fe  Fe183     1.0  0.58508  0.62541  0.58373  1.0000
  S   S359      1.0  0.59449  0.62295  0.53665  1.0000
  S   S360      1.0  0.58413  0.60442  0.62425  1.0000
  Fe  Fe184     1.0  0.58657  0.66600  0.56594  1.0000
  S   S361      1.0  0.59527  0.66639  0.51743  1.0000
  S   S362      1.0  0.58724  0.69154  0.58842  1.0000
  Fe  Fe185     1.0  0.57332  0.63631  0.52225  1.0000
  Fe  Fe186     1.0  0.61552  0.65303  0.53508  1.0000
  S   S363      1.0  0.64623  0.66501  0.51383  1.0000
  S   S364      1.0  0.56221  0.63676  0.56978  1.0000
  S   S365      1.0  0.60850  0.65462  0.58318  1.0000
  H   H1027     1.0  0.79859  0.73411  0.72868  1.0000
  C   C1012     1.0  0.86229  0.74402  0.93628  1.0000
  C   C1013     1.0  0.54799  0.56474  0.75261  1.0000
  C   C1014     1.0  0.67914  0.71350  0.99426  1.0000
  H   H1028     1.0  0.87258  0.53110  0.62429  1.0000
  H   H1029     1.0  0.80489  0.70886  0.99067  1.0000
  S   S366      1.0  0.51250  0.52844  0.67575  1.0000
  C   C1015     1.0  0.89282  0.51687  0.68370  1.0000
  C   C1016     1.0  0.56462  0.58240  0.63597  1.0000
  C   C1017     1.0  0.54643  0.57744  0.62393  1.0000
  C   C1018     1.0  0.53067  0.56070  0.63612  1.0000
  C   C1019     1.0  0.53289  0.54895  0.66062  1.0000
  C   C1020     1.0  0.55121  0.55366  0.67222  1.0000
  C   C1021     1.0  0.56705  0.57022  0.65969  1.0000
  H   H1030     1.0  0.54438  0.58668  0.60565  1.0000
  H   H1031     1.0  0.51656  0.55706  0.62686  1.0000
  H   H1032     1.0  0.55315  0.54463  0.69091  1.0000
  H   H1033     1.0  0.58115  0.57387  0.66892  1.0000
  C   C1022     1.0  0.68536  0.67586  0.59146  1.0000
  C   C1023     1.0  0.68951  0.68959  0.56645  1.0000
  C   C1024     1.0  0.67791  0.68594  0.54206  1.0000
  C   C1025     1.0  0.66173  0.66880  0.54308  1.0000
  C   C1026     1.0  0.65736  0.65516  0.56824  1.0000
  C   C1027     1.0  0.66934  0.65859  0.59225  1.0000
  H   H1034     1.0  0.70118  0.70328  0.56620  1.0000
  H   H1035     1.0  0.68102  0.69670  0.52291  1.0000
  H   H1036     1.0  0.64475  0.64192  0.56918  1.0000
  H   H1037     1.0  0.66595  0.64798  0.61166  1.0000
  C   C1028     1.0  0.59924  0.71500  0.57024  1.0000
  C   C1029     1.0  0.60523  0.73026  0.58752  1.0000
  H   H1038     1.0  0.59785  0.70717  0.52543  1.0000
  H   H1039     1.0  0.60278  0.72743  0.61173  1.0000
  C   C1030     1.0  0.60132  0.52548  0.86247  1.0000
  C   C1031     1.0  0.59653  0.54155  0.85890  1.0000
  C   C1032     1.0  0.58090  0.54157  0.84176  1.0000
  C   C1033     1.0  0.93898  0.53032  0.71711  1.0000
  C   C1034     1.0  0.93920  0.61997  0.61271  1.0000
  C   C1035     1.0  0.92412  0.67264  0.96404  1.0000
  H   H1040     1.0  0.60491  0.55400  0.86926  1.0000
  C   C1036     1.0  0.83738  0.75717  0.93918  1.0000
  H   H1041     1.0  0.71253  0.64019  0.50557  1.0000
  H   H1042     1.0  0.52952  0.58646  0.68024  1.0000
  H   H1043     1.0  0.82314  0.61048  0.87434  1.0000
  C   C1037     1.0  0.67324  0.74027  0.56896  1.0000
  C   C1038     1.0  0.75599  0.74125  0.71815  1.0000
  C   C1039     1.0  0.73823  0.72550  0.72098  1.0000
  C   C1040     1.0  0.72765  0.71864  0.74920  1.0000
  H   H1044     1.0  0.73301  0.71818  0.70169  1.0000
  H   H1045     1.0  0.71421  0.70609  0.75144  1.0000
  C   C1041     1.0  0.69806  0.66805  0.93799  1.0000
  C   C1042     1.0  0.69589  0.67056  0.90725  1.0000
  C   C1043     1.0  0.68300  0.65558  0.89349  1.0000
  C   C1044     1.0  0.67255  0.63796  0.91031  1.0000
  C   C1045     1.0  0.67436  0.63554  0.94122  1.0000
  C   C1046     1.0  0.68706  0.65063  0.95510  1.0000
  H   H1046     1.0  0.70445  0.68386  0.89378  1.0000
  H   H1047     1.0  0.68165  0.65748  0.86958  1.0000
  H   H1048     1.0  0.66598  0.62205  0.95438  1.0000
  H   H1049     1.0  0.78313  0.73108  0.83745  1.0000
  C   C1047     1.0  0.76732  0.61625  0.94882  1.0000
  C   C1048     1.0  0.76993  0.60405  0.92936  1.0000
  C   C1049     1.0  0.75348  0.58936  0.92058  1.0000
  C   C1050     1.0  0.73437  0.58697  0.93083  1.0000
  C   C1051     1.0  0.73185  0.59909  0.95049  1.0000
  C   C1052     1.0  0.74825  0.61357  0.95956  1.0000
  H   H1050     1.0  0.78456  0.60600  0.92103  1.0000
  H   H1051     1.0  0.75550  0.57998  0.90545  1.0000
  H   H1052     1.0  0.71728  0.59732  0.95871  1.0000
  N   N84       1.0  0.59652  0.51177  0.95902  1.0000
  C   C1053     1.0  0.83993  0.71701  0.88071  1.0000
  C   C1054     1.0  0.84606  0.73565  0.86661  1.0000
  C   C1055     1.0  0.77185  0.70202  0.51144  1.0000
  C   C1056     1.0  0.81476  0.73695  0.88166  1.0000
  C   C1057     1.0  0.80802  0.71787  0.89445  1.0000
  C   C1058     1.0  0.82071  0.70791  0.89417  1.0000
  H   H1053     1.0  0.56702  0.52738  0.91761  1.0000
  C   C1059     1.0  0.89971  0.64009  0.96473  1.0000
  H   H1054     1.0  0.79345  0.71115  0.90571  1.0000
  H   H1055     1.0  0.81585  0.69341  0.90485  1.0000
  C   C1060     1.0  0.84503  0.56724  0.84949  1.0000
  H   H1056     1.0  0.76311  0.66756  0.60106  1.0000
  C   C1061     1.0  0.78744  0.70191  0.52808  1.0000
  H   H1057     1.0  0.86082  0.74271  0.85608  1.0000
  H   H1058     1.0  0.71591  0.66501  0.49951  1.0000
  H   H1059     1.0  0.81247  0.69391  0.52971  1.0000
  H   H1060     1.0  0.76195  0.70820  0.51950  1.0000
  C   C1062     1.0  0.95764  0.62027  0.60406  1.0000
  H   H1061     1.0  0.71344  0.66632  0.55351  1.0000
  C   C1063     1.0  0.57455  0.50944  0.83167  1.0000
  C   C1064     1.0  0.84914  0.72705  0.95222  1.0000
  H   H1062     1.0  0.97654  0.61916  0.56716  1.0000
  C   C1065     1.0  0.87584  0.61107  0.79707  1.0000
  C   C1066     1.0  0.88565  0.60472  0.81903  1.0000
  C   C1067     1.0  0.88406  0.60858  0.84884  1.0000
  C   C1068     1.0  0.87293  0.61905  0.85686  1.0000
  C   C1069     1.0  0.86398  0.62624  0.83459  1.0000
  C   C1070     1.0  0.86531  0.62212  0.80490  1.0000
  H   H1063     1.0  0.89374  0.59615  0.81331  1.0000
  H   H1064     1.0  0.89106  0.60298  0.86592  1.0000
  H   H1065     1.0  0.85548  0.63442  0.84040  1.0000
  H   H1066     1.0  0.85773  0.62713  0.78801  1.0000
  C   C1071     1.0  0.89497  0.56981  0.60134  1.0000
  C   C1072     1.0  0.91454  0.57175  0.60142  1.0000
  C   C1073     1.0  0.92500  0.57197  0.57456  1.0000
  C   C1074     1.0  0.91601  0.57031  0.54743  1.0000
  C   C1075     1.0  0.89626  0.56779  0.54743  1.0000
  C   C1076     1.0  0.88577  0.56753  0.57438  1.0000
  H   H1067     1.0  0.92173  0.57335  0.62204  1.0000
  H   H1068     1.0  0.94026  0.57384  0.57469  1.0000
  H   H1069     1.0  0.88919  0.56642  0.52660  1.0000
  H   H1070     1.0  0.87054  0.56583  0.57423  1.0000
  C   C1077     1.0  0.80032  0.69400  0.51703  1.0000
  C   C1078     1.0  0.98347  0.63791  0.76587  1.0000
  S   S367      1.0  0.78718  0.63575  0.95899  1.0000
  C   C1079     1.0  0.56828  0.57214  0.75387  1.0000
  H   H1071     1.0  0.65945  0.68498  0.63981  1.0000
  H   H1072     1.0  0.82302  0.73878  0.51570  1.0000
  C   C1080     1.0  0.64614  0.71064  0.58541  1.0000
  N   N85       1.0  0.89489  0.51979  0.62129  1.0000
  H   H1073     1.0  0.53585  0.60682  0.70101  1.0000
  C   C1081     1.0  0.95012  0.52054  0.70633  1.0000
  Fe  Fe187     1.0  0.74543  0.74608  0.58206  1.0000
  H   H1074     1.0  0.93551  0.62090  0.63597  1.0000
  C   C1082     1.0  0.53952  0.57313  0.73116  1.0000
  C   C1083     1.0  0.82457  0.73995  0.95492  1.0000
  C   C1084     1.0  0.97082  0.63091  0.74350  1.0000
  C   C1085     1.0  0.78673  0.73163  0.81371  1.0000
  C   C1086     1.0  0.54169  0.59749  0.68989  1.0000
  H   H1075     1.0  0.59568  0.59377  0.73456  1.0000
  S   S368      1.0  0.75383  0.75613  0.86247  1.0000
  N   N86       1.0  0.83062  0.72526  0.96161  1.0000
  H   H1076     1.0  0.84731  0.56311  0.80285  1.0000
  H   H1077     1.0  0.94557  0.70100  0.96602  1.0000
  C   C1087     1.0  0.76168  0.65793  0.55735  1.0000
  C   C1088     1.0  0.89634  0.52152  0.58838  1.0000
  C   C1089     1.0  0.72354  0.65502  0.50326  1.0000
  N   N87       1.0  0.74170  0.64435  0.90692  1.0000
  C   C1090     1.0  0.75329  0.63754  0.89116  1.0000
  C   C1091     1.0  0.72179  0.63669  0.90594  1.0000
  C   C1092     1.0  0.74489  0.62231  0.87454  1.0000
  C   C1093     1.0  0.71290  0.62154  0.88948  1.0000
  C   C1094     1.0  0.72454  0.61418  0.87395  1.0000
  C   C1095     1.0  0.75081  0.66023  0.92434  1.0000
  H   H1078     1.0  0.76907  0.64342  0.89235  1.0000
  H   H1079     1.0  0.71263  0.64208  0.91826  1.0000
  H   H1080     1.0  0.75401  0.61636  0.86315  1.0000
  H   H1081     1.0  0.69706  0.61539  0.88913  1.0000
  H   H1082     1.0  0.71773  0.60189  0.86214  1.0000
  H   H1083     1.0  0.76215  0.65774  0.93780  1.0000
  H   H1084     1.0  0.75766  0.67370  0.90901  1.0000
  H   H1085     1.0  0.73989  0.66193  0.94037  1.0000
  Fe  Fe188     1.0  0.51185  0.50994  0.71892  1.0000
  C   C1096     1.0  0.88199  0.52541  0.63640  1.0000
  H   H1086     1.0  0.91895  0.67672  0.94321  1.0000
  S   S369      1.0  0.91334  0.53522  0.75889  1.0000
  H   H1087     1.0  0.82557  0.59499  0.90486  1.0000
  H   H1088     1.0  0.68535  0.71355  0.62338  1.0000
  H   H1089     1.0  0.82444  0.70046  0.99285  1.0000
  S   S370      1.0  0.77535  0.75046  0.59715  1.0000
  H   H1090     1.0  0.97568  0.53086  0.76252  1.0000
  C   C1097     1.0  0.61699  0.75294  0.54236  1.0000
  N   N88       1.0  0.65736  0.70568  0.60555  1.0000
  C   C1098     1.0  0.68263  0.71616  0.96311  1.0000
  H   H1091     1.0  0.89968  0.64408  0.94023  1.0000
  N   N89       1.0  0.91566  0.65440  0.97806  1.0000
  S   S371      1.0  0.77139  0.74808  0.68452  1.0000
  C   C1099     1.0  0.90543  0.51053  0.66817  1.0000
  N   N90       1.0  0.73430  0.65823  0.53031  1.0000
  C   C1100     1.0  0.60252  0.71877  0.53898  1.0000
  C   C1101     1.0  0.73472  0.72744  0.77473  1.0000
  H   H1092     1.0  0.88702  0.52877  0.57854  1.0000
  H   H1093     1.0  0.68130  0.73252  0.92209  1.0000
  H   H1094     1.0  0.95537  0.62327  0.74952  1.0000
  C   C1102     1.0  0.58453  0.51276  0.93696  1.0000
  C   C1103     1.0  0.92805  0.52381  0.74490  1.0000
  C   C1104     1.0  0.80289  0.74676  0.79920  1.0000
  H   H1095     1.0  0.53893  0.55251  0.76817  1.0000
  C   C1105     1.0  0.84085  0.56886  0.81953  1.0000
  H   H1096     1.0  0.84169  0.57527  0.89318  1.0000
  C   C1106     1.0  0.64873  0.68752  0.62495  1.0000
  C   C1107     1.0  0.60014  0.52389  0.98051  1.0000
  H   H1097     1.0  0.95469  0.55970  0.75811  1.0000
  H   H1098     1.0  0.64379  0.67566  0.61100  1.0000
  C   C1108     1.0  0.90646  0.51232  0.63677  1.0000
  C   C1109     1.0  0.66587  0.75583  0.94181  1.0000
  H   H1099     1.0  0.67944  0.75382  0.55478  1.0000
  H   H1100     1.0  0.74613  0.62292  0.97469  1.0000
  H   H1101     1.0  0.80283  0.58818  0.88700  1.0000
  H   H1102     1.0  0.73156  0.67206  0.59904  1.0000
  H   H1103     1.0  0.57309  0.54928  0.95697  1.0000
  H   H1104     1.0  0.63107  0.70116  0.58368  1.0000
  H   H1105     1.0  0.89224  0.51600  0.70804  1.0000
  N   N91       1.0  0.67043  0.74126  0.96008  1.0000
  C   C1110     1.0  0.67815  0.73019  0.94626  1.0000
  H   H1106     1.0  0.58002  0.60829  0.69710  1.0000
  H   H1107     1.0  0.65171  0.74920  0.93186  1.0000
  H   H1108     1.0  0.75738  0.75083  0.79104  1.0000
  C   C1111     1.0  0.67637  0.71759  0.60769  1.0000
  C   C1112     1.0  0.97746  0.58658  0.74186  1.0000
  H   H1109     1.0  0.85462  0.56003  0.85631  1.0000
  C   C1113     1.0  0.72705  0.66400  0.55431  1.0000
  C   C1114     1.0  0.57986  0.58797  0.73390  1.0000
  C   C1115     1.0  0.79708  0.75478  0.51574  1.0000
  H   H1110     1.0  0.52374  0.56703  0.73002  1.0000
  H   H1111     1.0  0.98466  0.53774  0.79811  1.0000
  H   H1112     1.0  0.77545  0.65593  0.55799  1.0000
  C   C1116     1.0  0.75113  0.65475  0.53183  1.0000
  H   H1113     1.0  0.68870  0.64867  0.97889  1.0000
  H   H1114     1.0  0.87672  0.74511  0.92808  1.0000
  C   C1117     1.0  0.75476  0.66445  0.58150  1.0000
  H   H1115     1.0  0.81337  0.59544  0.82492  1.0000
  N   N92       1.0  0.93019  0.61705  0.56199  1.0000
  C   C1118     1.0  0.92556  0.61837  0.59127  1.0000
  C   C1119     1.0  0.94834  0.61755  0.55321  1.0000
  C   C1120     1.0  0.97553  0.54003  0.78015  1.0000
  C   C1121     1.0  0.96229  0.61905  0.57413  1.0000
  H   H1116     1.0  0.91803  0.60815  0.52102  1.0000
  C   C1122     1.0  0.91599  0.61604  0.53959  1.0000
  H   H1117     1.0  0.91113  0.61784  0.59835  1.0000
  H   H1118     1.0  0.95196  0.61634  0.53004  1.0000
  C   C1123     1.0  0.82920  0.57886  0.81074  1.0000
  H   H1119     1.0  0.75179  0.69741  0.75976  1.0000
  H   H1120     1.0  0.96826  0.62143  0.62063  1.0000
  C   C1124     1.0  0.76737  0.70322  0.75050  1.0000
  H   H1121     1.0  0.85372  0.71518  0.95631  1.0000
  S   S372      1.0  0.72238  0.71670  0.81024  1.0000
  H   H1122     1.0  0.77294  0.69159  0.75172  1.0000
  H   H1123     1.0  0.89813  0.70189  0.98333  1.0000
  C   C1125     1.0  0.81683  0.70705  0.97716  1.0000
  H   H1124     1.0  0.63594  0.68715  0.63918  1.0000
  C   C1126     1.0  0.57588  0.52620  0.93590  1.0000
  H   H1125     1.0  0.75688  0.65011  0.51284  1.0000
  H   H1126     1.0  0.82661  0.58085  0.78724  1.0000
  C   C1127     1.0  0.59018  0.50941  0.84887  1.0000
  H   H1127     1.0  0.64495  0.73195  0.55101  1.0000
  C   C1128     1.0  0.73720  0.66725  0.58019  1.0000
  C   C1129     1.0  0.61114  0.73768  0.52512  1.0000
  S   S373      1.0  0.50540  0.51707  0.76426  1.0000
  S   S374      1.0  0.72969  0.73415  0.62758  1.0000
  C   C1130     1.0  0.57935  0.53851  0.95787  1.0000
  N   N93       1.0  0.98301  0.55999  0.76689  1.0000
  Fe  Fe189     1.0  0.73392  0.75201  0.90423  1.0000
  H   H1128     1.0  0.91169  0.53016  0.57927  1.0000
  C   C1131     1.0  0.75196  0.74378  0.77160  1.0000
  C   C1132     1.0  0.56983  0.52557  0.82797  1.0000
  H   H1129     1.0  0.91778  0.63060  0.53007  1.0000
  C   C1133     1.0  0.59142  0.53727  0.98049  1.0000
  H   H1130     1.0  0.76220  0.70607  0.80869  1.0000
  C   C1134     1.0  0.83766  0.57589  0.87022  1.0000
  N   N94       1.0  0.82638  0.58584  0.86133  1.0000
  C   C1135     1.0  0.68459  0.73503  0.58941  1.0000
  C   C1136     1.0  0.82196  0.58724  0.83209  1.0000
  H   H1131     1.0  0.95827  0.52541  0.68458  1.0000
  H   H1132     1.0  0.57740  0.55413  0.83911  1.0000
  C   C1137     1.0  0.97826  0.63376  0.71355  1.0000
  S   S375      1.0  0.80149  0.75154  0.88622  1.0000
  H   H1133     1.0  0.87124  0.52950  0.67944  1.0000
  C   C1138     1.0  0.81903  0.59525  0.88297  1.0000
  H   H1134     1.0  0.61308  0.74050  0.50087  1.0000
  H   H1135     1.0  0.97770  0.63536  0.78908  1.0000
  H   H1136     1.0  0.76751  0.70864  0.72652  1.0000
  H   H1137     1.0  0.57493  0.56552  0.77030  1.0000
  C   C1139     1.0  0.92882  0.50784  0.76219  1.0000
  C   C1140     1.0  0.61429  0.74915  0.57368  1.0000
  C   C1141     1.0  0.77509  0.71748  0.79732  1.0000
  H   H1138     1.0  0.80959  0.73828  0.96090  1.0000
  S   S376      1.0  0.93041  0.57270  0.51404  1.0000
  C   C1142     1.0  0.65390  0.72801  0.56685  1.0000
  C   C1143     1.0  0.93924  0.68642  0.97672  1.0000
  H   H1139     1.0  0.57681  0.51602  0.65684  1.0000
  S   S377      1.0  0.55038  0.52666  0.80652  1.0000
  H   H1140     1.0  0.55222  0.52639  0.63247  1.0000
  C   C1144     1.0  0.83364  0.74560  0.86733  1.0000
  N   N95       1.0  0.55098  0.58860  0.71158  1.0000
  C   C1145     1.0  0.66649  0.73843  0.99059  1.0000
  N   N96       1.0  0.77944  0.71843  0.76717  1.0000
  H   H1141     1.0  0.90072  0.60825  0.54973  1.0000
  C   C1146     1.0  0.76253  0.75066  0.74336  1.0000
  C   C1147     1.0  0.80728  0.74758  0.76848  1.0000
  C   C1148     1.0  0.88100  0.52435  0.66773  1.0000
  H   H1142     1.0  0.96742  0.59276  0.73308  1.0000
  H   H1143     1.0  0.90113  0.62609  0.96753  1.0000
  H   H1144     1.0  0.81020  0.69712  0.96052  1.0000
  C   C1149     1.0  0.54802  0.51187  0.64297  1.0000
  H   H1145     1.0  0.72426  0.75257  0.97428  1.0000
  H   H1146     1.0  0.69967  0.74442  0.59106  1.0000
  H   H1147     1.0  0.96026  0.53538  0.79040  1.0000
  C   C1150     1.0  0.79539  0.73314  0.75273  1.0000
  H   H1148     1.0  0.91659  0.50773  0.62485  1.0000
  H   H1149     1.0  0.63947  0.86134  0.11766  1.0000
  H   H1150     1.0  0.68637  0.99597  0.07472  1.0000
  C   C1151     1.0  0.60184  0.97654  0.11111  1.0000
  C   C1152     1.0  0.65235  0.86833  0.10109  1.0000
  C   C1153     1.0  0.70217  0.87647  0.43129  1.0000
  N   N97       1.0  0.58550  0.78452  0.10323  1.0000
  C   C1154     1.0  0.73511  0.89317  0.44185  1.0000
  C   C1155     1.0  0.69813  0.97021  0.21008  1.0000
  H   H1151     1.0  0.74485  0.97202  0.02668  1.0000
  Fe  Fe190     1.0  0.52418  0.97471  0.24201  1.0000
  S   S378      1.0  0.54293  0.96181  0.21762  1.0000
  H   H1152     1.0  0.71689  0.95288  0.29078  1.0000
  S   S379      1.0  0.50964  0.96209  0.28865  1.0000
  H   H1153     1.0  0.71289  0.99584  0.17971  1.0000
  Fe  Fe191     1.0  0.64756  0.78503  0.12633  1.0000
  C   C1156     1.0  0.57228  0.80110  0.13495  1.0000
  Fe  Fe192     1.0  0.68019  0.82427  0.10554  1.0000
  S   S380      1.0  0.67781  0.82040  0.05657  1.0000
  S   S381      1.0  0.69886  0.84974  0.12782  1.0000
  Fe  Fe193     1.0  0.64525  0.80892  0.06913  1.0000
  S   S382      1.0  0.62515  0.81792  0.04008  1.0000
  Fe  Fe194     1.0  0.67506  0.79025  0.07058  1.0000
  H   H1154     1.0  0.72626  0.90087  0.37817  1.0000
  S   S383      1.0  0.64789  0.81452  0.11700  1.0000
  S   S384      1.0  0.68022  0.79511  0.11882  1.0000
  H   H1155     1.0  0.73108  0.99629  0.26939  1.0000
  H   H1156     1.0  0.66839  0.00500  0.35389  1.0000
  Fe  Fe195     1.0  0.73283  0.96154  0.09363  1.0000
  S   S385      1.0  0.72473  0.96591  0.14036  1.0000
  S   S386      1.0  0.72665  0.93569  0.06895  1.0000
  Fe  Fe196     1.0  0.71111  0.98469  0.11754  1.0000
  S   S387      1.0  0.68137  0.98084  0.13685  1.0000
  Fe  Fe197     1.0  0.75190  0.99273  0.13357  1.0000
  H   H1157     1.0  0.71322  0.85383  0.49270  1.0000
  S   S388      1.0  0.71673  0.97827  0.07160  1.0000
  S   S389      1.0  0.76160  0.98673  0.08874  1.0000
  Fe  Fe198     1.0  0.57716  0.89069  0.06468  1.0000
  S   S390      1.0  0.59366  0.90452  0.02009  1.0000
  S   S391      1.0  0.58198  0.86698  0.09318  1.0000
  Fe  Fe199     1.0  0.55731  0.91922  0.06825  1.0000
  S   S392      1.0  0.57243  0.93531  0.02384  1.0000
  S   S393      1.0  0.53572  0.92948  0.09127  1.0000
  H   H1158     1.0  0.56646  0.79831  0.08883  1.0000
  H   H1159     1.0  0.60176  0.77762  0.06931  1.0000
  Fe  Fe200     1.0  0.59920  0.93164  0.04002  1.0000
  S   S394      1.0  0.62860  0.95572  0.02998  1.0000
  S   S395      1.0  0.54819  0.89077  0.05070  1.0000
  S   S396      1.0  0.58482  0.91784  0.08572  1.0000
  Fe  Fe201     1.0  0.73699  0.96347  0.41041  1.0000
  S   S397      1.0  0.72327  0.95405  0.36813  1.0000
  S   S398      1.0  0.73697  0.94296  0.45078  1.0000
  H   H1160     1.0  0.68652  0.94669  0.24497  1.0000
  Fe  Fe202     1.0  0.75051  0.97647  0.34387  1.0000
  S   S399      1.0  0.75923  0.96544  0.30307  1.0000
  H   H1161     1.0  0.56114  0.96601  0.37314  1.0000
  S   S400      1.0  0.76552  0.98437  0.38641  1.0000
  S   S401      1.0  0.50174  0.00091  0.29214  1.0000
  C   C1157     1.0  0.75682  0.97524  0.21308  1.0000
  C   C1158     1.0  0.75452  0.96636  0.24273  1.0000
  C   C1159     1.0  0.76113  0.97718  0.26651  1.0000
  C   C1160     1.0  0.64383  0.89429  0.07789  1.0000
  C   C1161     1.0  0.68045  0.95921  0.99972  1.0000
  H   H1162     1.0  0.75192  0.96674  0.19491  1.0000
  H   H1163     1.0  0.74786  0.95101  0.24720  1.0000
  S   S402      1.0  0.72394  0.98545  0.41301  1.0000
  S   S403      1.0  0.73895  0.99969  0.34159  1.0000
  C   C1162     1.0  0.66567  0.97519  0.10808  1.0000
  C   C1163     1.0  0.64716  0.96050  0.11364  1.0000
  C   C1164     1.0  0.63548  0.95455  0.08981  1.0000
  C   C1165     1.0  0.64210  0.96359  0.06061  1.0000
  C   C1166     1.0  0.66029  0.97875  0.05535  1.0000
  C   C1167     1.0  0.67218  0.98440  0.07898  1.0000
  H   H1164     1.0  0.64219  0.95324  0.13613  1.0000
  H   H1165     1.0  0.62161  0.94275  0.09410  1.0000
  C   C1168     1.0  0.57638  0.97306  0.41314  1.0000
  H   H1166     1.0  0.68894  0.96274  0.19338  1.0000
  C   C1169     1.0  0.70679  0.87354  0.11096  1.0000
  C   C1170     1.0  0.71544  0.88836  0.12845  1.0000
  C   C1171     1.0  0.72158  0.90751  0.11598  1.0000
  C   C1172     1.0  0.71935  0.91195  0.08575  1.0000
  C   C1173     1.0  0.71078  0.89715  0.06821  1.0000
  C   C1174     1.0  0.70437  0.87801  0.08080  1.0000
  H   H1167     1.0  0.71740  0.88498  0.15178  1.0000
  H   H1168     1.0  0.72826  0.91879  0.12964  1.0000
  H   H1169     1.0  0.70907  0.90046  0.04477  1.0000
  H   H1170     1.0  0.69783  0.86672  0.06711  1.0000
  C   C1175     1.0  0.59416  0.85384  0.07753  1.0000
  C   C1176     1.0  0.59675  0.85387  0.04651  1.0000
  C   C1177     1.0  0.60634  0.84285  0.03513  1.0000
  C   C1178     1.0  0.61371  0.83211  0.05464  1.0000
  C   C1179     1.0  0.61129  0.83234  0.08557  1.0000
  C   C1180     1.0  0.60145  0.84305  0.09695  1.0000
  H   H1171     1.0  0.59105  0.86209  0.03134  1.0000
  C   C1181     1.0  0.69678  0.96126  0.23928  1.0000
  H   H1172     1.0  0.61655  0.82391  0.10085  1.0000
  H   H1173     1.0  0.59951  0.84303  0.12096  1.0000
  C   C1182     1.0  0.53950  0.95126  0.18375  1.0000
  C   C1183     1.0  0.52402  0.95051  0.16623  1.0000
  C   C1184     1.0  0.52283  0.94336  0.13829  1.0000
  C   C1185     1.0  0.53701  0.93683  0.12764  1.0000
  C   C1186     1.0  0.55235  0.93737  0.14534  1.0000
  C   C1187     1.0  0.55357  0.94456  0.17322  1.0000
  H   H1174     1.0  0.51310  0.95562  0.17404  1.0000
  H   H1175     1.0  0.51090  0.94298  0.12474  1.0000
  H   H1176     1.0  0.56335  0.93241  0.13743  1.0000
  H   H1177     1.0  0.56559  0.94507  0.18663  1.0000
  C   C1188     1.0  0.69764  0.91968  0.45265  1.0000
  C   C1189     1.0  0.71526  0.92390  0.46628  1.0000
  Fe  Fe203     1.0  0.52615  0.99116  0.30218  1.0000
  Fe  Fe204     1.0  0.71280  0.97781  0.36850  1.0000
  C   C1190     1.0  0.68119  0.90324  0.46363  1.0000
  Fe  Fe205     1.0  0.74499  0.00367  0.06871  1.0000
  C   C1191     1.0  0.71605  0.91192  0.49164  1.0000
  S   S404      1.0  0.54201  0.00307  0.25687  1.0000
  C   C1192     1.0  0.72340  0.99829  0.22388  1.0000
  H   H1178     1.0  0.65720  0.97003  0.45632  1.0000
  C   C1193     1.0  0.69962  0.86263  0.45565  1.0000
  H   H1179     1.0  0.71152  0.93640  0.01139  1.0000
  H   H1180     1.0  0.63740  0.91810  0.05815  1.0000
  H   H1181     1.0  0.69679  0.92887  0.43329  1.0000
  C   C1194     1.0  0.66366  0.92715  0.08187  1.0000
  H   H1182     1.0  0.70843  0.90832  0.39614  1.0000
  H   H1183     1.0  0.68117  0.89726  0.12020  1.0000
  H   H1184     1.0  0.60032  0.96423  0.06961  1.0000
  C   C1195     1.0  0.67589  0.92122  0.09955  1.0000
  C   C1196     1.0  0.57395  0.79463  0.10729  1.0000
  H   H1185     1.0  0.55221  0.97957  0.09440  1.0000
  C   C1197     1.0  0.65502  0.99383  0.42890  1.0000
  N   N98       1.0  0.65620  0.88864  0.09467  1.0000
  C   C1198     1.0  0.59326  0.97025  0.08499  1.0000
  C   C1199     1.0  0.73309  0.87955  0.46635  1.0000
  H   H1186     1.0  0.64955  0.86142  0.08015  1.0000
  H   H1187     1.0  0.60806  0.84268  0.01113  1.0000
  C   C1200     1.0  0.59507  0.78004  0.12648  1.0000
  H   H1188     1.0  0.66502  0.86581  0.11046  1.0000
  C   C1201     1.0  0.65945  0.97758  0.43393  1.0000
  C   C1202     1.0  0.66780  0.97164  0.41034  1.0000
  H   H1189     1.0  0.66772  0.89988  0.45259  1.0000
  H   H1190     1.0  0.69182  0.95107  0.29800  1.0000
  S   S405      1.0  0.68381  0.97598  0.35291  1.0000
  S   S406      1.0  0.49966  0.98360  0.22702  1.0000
  H   H1191     1.0  0.58780  0.99026  0.33946  1.0000
  H   H1192     1.0  0.69131  0.00618  0.47386  1.0000
  C   C1203     1.0  0.59235  0.98401  0.13084  1.0000
  C   C1204     1.0  0.60800  0.99894  0.40503  1.0000
  H   H1193     1.0  0.57572  0.76323  0.07404  1.0000
  H   H1194     1.0  0.58504  0.78747  0.05548  1.0000
  S   S407      1.0  0.63189  0.76778  0.17040  1.0000
  H   H1195     1.0  0.56471  0.96243  0.42811  1.0000
  C   C1205     1.0  0.64733  0.91364  0.07127  1.0000
  C   C1206     1.0  0.57540  0.97153  0.07888  1.0000
  H   H1196     1.0  0.58137  0.80205  0.18005  1.0000
  C   C1207     1.0  0.70090  0.77457  0.01502  1.0000
  H   H1197     1.0  0.59901  0.98870  0.15125  1.0000
  H   H1198     1.0  0.68859  0.93160  0.10801  1.0000
  C   C1208     1.0  0.67106  0.98159  0.38152  1.0000
  C   C1209     1.0  0.76637  0.99499  0.20689  1.0000
  C   C1210     1.0  0.71519  0.86422  0.47329  1.0000
  H   H1199     1.0  0.60161  0.78292  0.17265  1.0000
  H   H1200     1.0  0.68981  0.87536  0.41821  1.0000
  C   C1211     1.0  0.72155  0.98898  0.25294  1.0000
  C   C1212     1.0  0.77002  0.99699  0.26046  1.0000
  C   C1213     1.0  0.70678  0.94811  0.00629  1.0000
  C   C1214     1.0  0.68671  0.94422  0.00562  1.0000
  H   H1201     1.0  0.74888  0.90535  0.43709  1.0000
  H   H1202     1.0  0.66680  0.94220  0.07662  1.0000
  C   C1215     1.0  0.68215  0.89092  0.48839  1.0000
  Fe  Fe206     1.0  0.56546  0.90691  0.00735  1.0000
  H   H1203     1.0  0.56826  0.96612  0.05913  1.0000
  H   H1204     1.0  0.73371  0.91973  0.40187  1.0000
  N   N99       1.0  0.57479  0.98515  0.12471  1.0000
  H   H1205     1.0  0.66526  0.98606  0.03293  1.0000
  C   C1216     1.0  0.77288  0.00583  0.23069  1.0000
  C   C1217     1.0  0.58957  0.98878  0.36334  1.0000
  N   N100      1.0  0.70825  0.97075  0.26034  1.0000
  S   S408      1.0  0.53949  0.99499  0.34742  1.0000
  S   S409      1.0  0.64211  0.77839  0.07917  1.0000
  C   C1218     1.0  0.59373  0.78627  0.15442  1.0000
  C   C1219     1.0  0.58696  0.77776  0.07416  1.0000
  C   C1220     1.0  0.67174  0.90178  0.10613  1.0000
  H   H1206     1.0  0.68543  0.85114  0.46150  1.0000
  C   C1221     1.0  0.66572  0.99724  0.37616  1.0000
  H   H1207     1.0  0.67201  0.95956  0.41455  1.0000
  C   C1222     1.0  0.56552  0.99375  0.14505  1.0000
  N   N101      1.0  0.71969  0.89158  0.42485  1.0000
  C   C1223     1.0  0.70709  0.96091  0.29049  1.0000
  N   N102      1.0  0.60595  0.00076  0.37485  1.0000
  C   C1224     1.0  0.71042  0.76240  0.00857  1.0000
  C   C1225     1.0  0.56636  0.97914  0.09901  1.0000
  H   H1208     1.0  0.63114  0.88384  0.06956  1.0000
  C   C1226     1.0  0.71155  0.98883  0.20239  1.0000
  C   C1227     1.0  0.59332  0.98507  0.42461  1.0000
  H   H1209     1.0  0.71165  0.97115  0.30727  1.0000
  H   H1210     1.0  0.56361  0.80965  0.13773  1.0000
  C   C1228     1.0  0.58234  0.79695  0.15858  1.0000
  H   H1211     1.0  0.66491  0.95642  0.99931  1.0000
  S   S410      1.0  0.68921  0.77146  0.05144  1.0000
  C   C1229     1.0  0.57445  0.97492  0.38231  1.0000
  C   C1230     1.0  0.72215  0.90575  0.39890  1.0000
  C   C1231     1.0  0.65796  0.00350  0.39992  1.0000
  H   H1212     1.0  0.61568  0.97553  0.11614  1.0000
  H   H1213     1.0  0.67610  0.92968  0.00981  1.0000
  N   N103      1.0  0.72025  0.96642  0.00099  1.0000
  S   S411      1.0  0.64722  0.00254  0.45948  1.0000
  H   H1214     1.0  0.69770  0.00452  0.42023  1.0000
  H   H1215     1.0  0.77541  0.00543  0.27858  1.0000
  H   H1216     1.0  0.59514  0.98376  0.44851  1.0000
  Fe  Fe207     1.0  0.75138  0.00598  0.38614  1.0000
  H   H1217     1.0  0.74516  0.88114  0.48028  1.0000
  H   H1218     1.0  0.56808  0.99032  0.16880  1.0000
  C   C1232     1.0  0.74114  0.97028  0.00313  1.0000
  H   H1219     1.0  0.66870  0.75857  0.19607  1.0000
  S   S412      1.0  0.77088  0.00655  0.16973  1.0000
  H   H1220     1.0  0.60400  0.77176  0.12352  1.0000
  H   H1221     1.0  0.54935  0.98809  0.14396  1.0000
  H   H1222     1.0  0.55621  0.00461  0.40287  1.0000
  H   H1223     1.0  0.53470  0.96840  0.75112  1.0000
  C   C1233     1.0  0.58148  0.79097  0.59702  1.0000
  H   H1224     1.0  0.68150  0.81836  0.65708  1.0000
  Fe  Fe208     1.0  0.63694  0.82646  0.59708  1.0000
  S   S413      1.0  0.62844  0.82517  0.54965  1.0000
  S   S414      1.0  0.61549  0.82407  0.63644  1.0000
  Fe  Fe209     1.0  0.67606  0.82415  0.57955  1.0000
  S   S415      1.0  0.67076  0.82320  0.53076  1.0000
  S   S416      1.0  0.70210  0.82126  0.60087  1.0000
  Fe  Fe210     1.0  0.65930  0.84614  0.53651  1.0000
  C   C1234     1.0  0.64218  0.96645  0.68974  1.0000
  Fe  Fe211     1.0  0.64056  0.80240  0.54792  1.0000
  S   S417      1.0  0.62624  0.77645  0.52386  1.0000
  S   S418      1.0  0.66703  0.84892  0.58439  1.0000
  S   S419      1.0  0.64666  0.80192  0.59632  1.0000
  H   H1225     1.0  0.59511  0.83399  0.58409  1.0000
  H   H1226     1.0  0.64697  0.79723  0.66826  1.0000
  C   C1235     1.0  0.54719  0.85883  0.85573  1.0000
  C   C1236     1.0  0.64273  0.00537  0.75268  1.0000
  Fe  Fe212     1.0  0.58798  0.89683  0.72916  1.0000
  S   S420      1.0  0.60381  0.91891  0.75880  1.0000
  S   S421      1.0  0.60795  0.89528  0.69031  1.0000
  Fe  Fe213     1.0  0.54817  0.89146  0.75971  1.0000
  S   S422      1.0  0.56091  0.91305  0.79099  1.0000
  S   S423      1.0  0.51538  0.87658  0.76494  1.0000
  Fe  Fe214     1.0  0.58033  0.93024  0.75065  1.0000
  S   S424      1.0  0.58324  0.96047  0.73997  1.0000
  Fe  Fe215     1.0  0.58303  0.89975  0.79687  1.0000
  S   S425      1.0  0.59365  0.89394  0.84209  1.0000
  S   S426      1.0  0.56573  0.90972  0.71852  1.0000
  S   S427      1.0  0.56893  0.87645  0.76814  1.0000
  C   C1237     1.0  0.58412  0.89928  0.87520  1.0000
  C   C1238     1.0  0.59020  0.89454  0.90309  1.0000
  C   C1239     1.0  0.58140  0.89681  0.93003  1.0000
  C   C1240     1.0  0.56637  0.90373  0.92922  1.0000
  C   C1241     1.0  0.56078  0.90906  0.90134  1.0000
  C   C1242     1.0  0.56965  0.90693  0.87445  1.0000
  H   H1227     1.0  0.60139  0.88863  0.90389  1.0000
  H   H1228     1.0  0.58573  0.89252  0.95141  1.0000
  H   H1229     1.0  0.54916  0.91442  0.90058  1.0000
  H   H1230     1.0  0.56488  0.91070  0.85328  1.0000
  C   C1243     1.0  0.60569  0.97744  0.74759  1.0000
  C   C1244     1.0  0.62112  0.97217  0.75606  1.0000
  C   C1245     1.0  0.63970  0.98614  0.75837  1.0000
  N   N104      1.0  0.61691  0.97754  0.67566  1.0000
  C   C1246     1.0  0.60850  0.99666  0.74342  1.0000
  H   H1231     1.0  0.61902  0.95742  0.75981  1.0000
  H   H1232     1.0  0.53613  0.86322  0.92804  1.0000
  S   S428      1.0  0.73712  0.76536  0.54893  1.0000
  C   C1247     1.0  0.50916  0.91042  0.75593  1.0000
  H   H1233     1.0  0.59565  0.98520  0.82049  1.0000
  H   H1234     1.0  0.52435  0.91729  0.74722  1.0000
  H   H1235     1.0  0.57947  0.81529  0.53152  1.0000
  C   C1248     1.0  0.49715  0.92107  0.75701  1.0000
  C   C1249     1.0  0.68459  0.86378  0.65631  1.0000
  S   S429      1.0  0.66173  0.86937  0.49900  1.0000
  C   C1250     1.0  0.61303  0.84398  0.65047  1.0000
  C   C1251     1.0  0.62457  0.86257  0.63811  1.0000
  C   C1252     1.0  0.62274  0.87805  0.65060  1.0000
  C   C1253     1.0  0.60934  0.87515  0.67546  1.0000
  C   C1254     1.0  0.59775  0.85653  0.68776  1.0000
  C   C1255     1.0  0.59961  0.84102  0.67531  1.0000
  H   H1236     1.0  0.63497  0.86505  0.61902  1.0000
  H   H1237     1.0  0.63174  0.89241  0.64089  1.0000
  H   H1238     1.0  0.58741  0.85411  0.70692  1.0000
  H   H1239     1.0  0.59067  0.82668  0.68512  1.0000
  H   H1240     1.0  0.60941  0.99633  0.64532  1.0000
  H   H1241     1.0  0.69442  0.87829  0.64854  1.0000
  H   H1242     1.0  0.58995  0.95643  0.66582  1.0000
  H   H1243     1.0  0.58236  0.79238  0.62078  1.0000
  H   H1244     1.0  0.68956  0.98962  0.99038  1.0000
  H   H1245     1.0  0.73864  0.77929  0.60716  1.0000
  C   C1256     1.0  0.71112  0.80512  0.58670  1.0000
  C   C1257     1.0  0.70776  0.80013  0.55767  1.0000
  C   C1258     1.0  0.71596  0.78806  0.54622  1.0000
  C   C1259     1.0  0.72709  0.78048  0.56399  1.0000
  C   C1260     1.0  0.73001  0.78502  0.59331  1.0000
  C   C1261     1.0  0.72227  0.79753  0.60446  1.0000
  H   H1246     1.0  0.69929  0.80594  0.54373  1.0000
  H   H1247     1.0  0.71364  0.78459  0.52353  1.0000
  H   H1248     1.0  0.51374  0.87588  0.90282  1.0000
  H   H1249     1.0  0.72498  0.80135  0.62691  1.0000
  C   C1262     1.0  0.69014  0.84868  0.65158  1.0000
  C   C1263     1.0  0.70686  0.78775  0.96236  1.0000
  C   C1264     1.0  0.71553  0.77493  0.95569  1.0000
  H   H1250     1.0  0.55728  0.85499  0.84222  1.0000
  H   H1251     1.0  0.70429  0.85128  0.64010  1.0000
  H   H1252     1.0  0.70539  0.79758  0.94447  1.0000
  C   C1265     1.0  0.60478  0.95941  0.67201  1.0000
  H   H1253     1.0  0.65182  0.98203  0.76376  1.0000
  H   H1254     1.0  0.63009  0.80553  0.68550  1.0000
  C   C1266     1.0  0.58014  0.82269  0.58818  1.0000
  Fe  Fe216     1.0  0.50007  0.99208  0.72199  1.0000
  H   H1255     1.0  0.56964  0.82771  0.57663  1.0000
  H   H1256     1.0  0.59498  0.98888  0.68120  1.0000
  H   H1257     1.0  0.57596  0.82055  0.61272  1.0000
  H   H1258     1.0  0.60142  0.92997  0.67440  1.0000
  C   C1267     1.0  0.61109  0.94436  0.67713  1.0000
  H   H1259     1.0  0.72961  0.91515  0.50240  1.0000
  H   H1260     1.0  0.70046  0.88616  0.52182  1.0000
  C   C1268     1.0  0.63550  0.98124  0.68405  1.0000
  C   C1269     1.0  0.58059  0.78751  0.53617  1.0000
  C   C1270     1.0  0.71423  0.98122  0.99550  1.0000
  C   C1271     1.0  0.53827  0.96308  0.77323  1.0000
  C   C1272     1.0  0.67711  0.83003  0.66106  1.0000
  H   H1261     1.0  0.52500  0.95800  0.78921  1.0000
  H   H1262     1.0  0.51844  0.89259  0.82738  1.0000
  C   C1273     1.0  0.69957  0.89549  0.50269  1.0000
  C   C1274     1.0  0.53529  0.86341  0.90390  1.0000
  H   H1263     1.0  0.65670  0.96934  0.69729  1.0000
  H   H1264     1.0  0.63944  0.83852  0.69140  1.0000
  C   C1275     1.0  0.58160  0.77280  0.55611  1.0000
  H   H1265     1.0  0.58348  0.76334  0.60224  1.0000
  H   H1266     1.0  0.66168  0.87168  0.67452  1.0000
  C   C1276     1.0  0.55501  0.99637  0.78127  1.0000
  N   N105      1.0  0.52244  0.87200  0.85880  1.0000
  H   H1267     1.0  0.54238  0.95088  0.76927  1.0000
  N   N106      1.0  0.58007  0.80519  0.57736  1.0000
  H   H1268     1.0  0.54354  0.99950  0.77039  1.0000
  C   C1277     1.0  0.66627  0.86010  0.67084  1.0000
  C   C1278     1.0  0.64564  0.80686  0.68445  1.0000
  H   H1269     1.0  0.58245  0.76027  0.54773  1.0000
  C   C1279     1.0  0.65369  0.84127  0.68022  1.0000
  C   C1280     1.0  0.52275  0.87072  0.88940  1.0000
  H   H1270     1.0  0.56777  0.95956  0.80281  1.0000
  H   H1271     1.0  0.55817  0.85277  0.89766  1.0000
  H   H1272     1.0  0.86620  0.77223  0.91673  1.0000
  N   N107      1.0  0.55436  0.97818  0.78485  1.0000
  S   S430      1.0  0.55246  0.90354  0.96216  1.0000
  C   C1281     1.0  0.58416  0.98848  0.80988  1.0000
  H   H1273     1.0  0.64904  0.80208  0.70695  1.0000
  C   C1282     1.0  0.78018  0.75893  0.51574  1.0000
  H   H1274     1.0  0.72485  0.99579  0.99224  1.0000
  H   H1275     1.0  0.49931  0.86923  0.83068  1.0000
  C   C1283     1.0  0.54766  0.85755  0.88687  1.0000
  C   C1284     1.0  0.56834  0.97401  0.79978  1.0000
  C   C1285     1.0  0.53435  0.86607  0.84199  1.0000
  S   S431      1.0  0.53270  0.00131  0.70831  1.0000
  C   C1286     1.0  0.62985  0.94790  0.68627  1.0000
  N   N108      1.0  0.65901  0.82653  0.67464  1.0000
  C   C1287     1.0  0.57978  0.80370  0.54724  1.0000
  S   S432      1.0  0.72210  0.77386  0.91773  1.0000
  H   H1276     1.0  0.63467  0.93619  0.69089  1.0000
  H   H1277     1.0  0.59649  0.00079  0.73746  1.0000
  H   H1278     1.0  0.83227  0.76853  0.93308  1.0000
  C   C1288     1.0  0.50956  0.87996  0.84351  1.0000
  H   H1279     1.0  0.53422  0.86724  0.81772  1.0000
  C   C1289     1.0  0.71755  0.76245  0.97904  1.0000
  H   H1280     1.0  0.50076  0.88444  0.85942  1.0000
  H   H1281     1.0  0.64508  0.99557  0.68732  1.0000
  H   H1282     1.0  0.50305  0.93610  0.74909  1.0000
  C   C1290     1.0  0.58217  0.77453  0.58672  1.0000
  C   C1291     1.0  0.50130  0.89079  0.76558  1.0000
  C   C1292     1.0  0.69942  0.78749  0.99186  1.0000
  H   H1283     1.0  0.61874  0.76077  0.58720  1.0000
  C   C1293     1.0  0.60991  0.99304  0.66984  1.0000
  H   H1284     1.0  0.75051  0.98352  0.98862  1.0000
  H   H1285     1.0  0.58094  0.78654  0.51223  1.0000
  H   H1286     1.0  0.77613  0.76301  0.74121  1.0000
  C   C1294     1.0  0.69428  0.97784  0.99463  1.0000
  H   H1287     1.0  0.77633  0.76553  0.53396  1.0000
  H   H1288     1.0  0.61951  0.00617  0.67878  1.0000
  H   H1289     1.0  0.81962  0.75944  0.75682  1.0000
  H   H1290     1.0  0.83897  0.76032  0.85754  1.0000
  H   H1291     1.0  0.81182  0.75788  0.81183  1.0000
  H   H1292     1.0  0.74488  0.95839  0.99629  1.0000
  C   C1295     1.0  0.85635  0.75918  0.92984  1.0000
  H   H1293     1.0  0.69222  0.79700  0.99654  1.0000
  C   C1296     1.0  0.58544  0.00723  0.80500  1.0000
  H   H1294     1.0  0.80612  0.75792  0.53455  1.0000
  H   H1295     1.0  0.66508  0.76697  0.95534  1.0000
  H   H1296     1.0  0.67767  0.76324  0.92347  1.0000
