data_image0
_chemical_formula_structural       FeS2FeS2FeS2HSHFeSHFeS2FeSH2SCHSC3FeS2FeSHSFeS2FeS2FeSFeS3C6H6FeC4HFeC5H3C6H4C6H6C4HSHC7H4C6H4NCHNC2H2FeCSCSCNH4CHCH2C2HNCH2CHCHCSCHCH2SHC3FeC3SCNCH3CH3CHCH5CNH2FeH6C2FeH2CHC2SH2C2H2CFeSH2FeCFeS2CHCSCHSCFeS2FeS2FeS2FeSFeS6FeS2HC6H4CHC4H3C8H4CFeC7H2C2NH3CNCH3CH2CHCNH3SH2C2H2C4NCSCH4NC2H2C2H2FeCH5S2CHCH2FeH3CH3C3H3C2FeS2NC2HCHSCH3C7HFeH9C2H3C2HCNCSH3C2HNHCHCHCH5C4HSFeHSC2S3HSCH3S2C2H2C4H3C8H2C6HFeH2NCSCFeHNCFeHCSH3SCH2CSFeHC3HCNH3CH6CH4NCH2C5HCHCHCH2S2C4HC2NH2CSC7H5NH2SCHCHCFeH3CHCFeH2CH4CHCHC2NCHCHSHC3H2SFeCSHSHSH2SC2HSNSH2FeC5HC2H2C12H2CSC6H5NHCH3CFeH3FeHCHCH2C2SH5FeS2FeCFeS3FeCFeSC2FeS2FeSHFeS2FeS2CHSFeS2FeS2FeHFeS3CSH2SCHCHSHFeHC7H4CH2C3HNC6H4C6H3FeC6H4C3H7C6H5SC2SHCS2C4HCHSNC2HC4HC2H2CHSCHNHNCSNC2HCH2C2HCH3CHCSC2H4C2HCFe2CH4CFeC2H3C2HNCH2C2HFeHSCNH2CSC2H3C2HCH3CH2CHCFeSCFeS2FeS2NFeS2FeS2FeS2FeSFeS3FeS2FeC9H4CHC6H4C4HCH2SH3C6H4CNHC2H7CSCNC6H8SCH3CHSCSC3H4CHCH8C2HCH2FeH3SC3H4CH3CSHSFeHSHC3FeSC2SH3C2SHSHSHC5FeHCHC6H3C6H3CNCHCH3C3HNH2SCHCNCH2SHCH5C2H2CHCH3S2C3S2C4HCH2NC2H2C6HFeH2NCHCH2C2FeH5CH4C3HC2HSNCH2CH3CH3CH3C2HSH2FeH4C2NCHFeS2H2SCFeS2FeS2FeSFeS3FeS2Fe2S2HCSCFeS2C6H4C4H6C6H4C6H4C4H2CSH2CHC2FeHC5NFeHCH3SCH3CH5CH2CSC2H2CH2CH2NHNHCH2C3HFeC3H3NH3CH2SHSH2C2HC2NHCHFeS2FeSCFeSHFeS2FeS2Fe3HS2CHFeSHFeS2FeHCSFeS2FeS2FeSFeS3C6H5CH3C2SCNSH2SC3H3C8H3C6H4C6HCH2C6H4C6H3CNC6H3CH4NHSHC3SCSH3CS2HC2FeHCHC2HCSHC2FeHCH3CNHC2FeH4SHCH4C2NCS2HS2FeS2FeS2FeS2FeSFeS3FeS2HSH2FeS2H2CSNHC6H4C4FeHNHC6H4C8H5C2HFeH3SHCH3CNC6H7CSH2C3HC3HCFeCSCH3C2NH2NC3HCHFeCH2CH2NFe2CH2CHCHCH2FeS2FeCSH2CS2HFeS2FeS2FeSFeS3FeS2FeS2FeSFeS3CSCFeS2CSNC3H7CSC2HC2HC6H4C6H4C6H4C6H3C7H4C6H2NHNC6H9CFeNSHCHSCSHFeC3H2NC4H3CS2NHC3HNCHCHCSNHC2H2C2H4CSHNFeH2CFeHC3H5FeSH3CH4CHCS2CH3C2HCHFeC2FeH3CH4C2SC2SCSC2SCSNFeC4H6CSH2C2H2NHC6H2FeHC6H7CH3C4HCHCH2CSHCSCH3C2HSCHSHS2HC3H2CHCHC2H2C6H5C2HSC2HCNHNHSHCHFeH2CH2CH2C2HNSHCH2C2H2CN2HCFeHCHCH2C3H
_chemical_formula_sum              "Fe144 S288 H864 C864 N72"
_cell_length_a       50.3762
_cell_length_b       50.6517
_cell_length_c       50.7218
_cell_angle_alpha    89.7383
_cell_angle_beta     90.2004
_cell_angle_gamma    90.1821

_space_group_name_H-M_alt    "P 1"
_space_group_IT_number       1

loop_
  _space_group_symop_operation_xyz
  'x, y, z'

loop_
  _atom_site_type_symbol
  _atom_site_label
  _atom_site_symmetry_multiplicity
  _atom_site_fract_x
  _atom_site_fract_y
  _atom_site_fract_z
  _atom_site_occupancy
  Fe  Fe1       1.0  0.25783  0.04685  0.13437  1.0000
  S   S1        1.0  0.23975  0.02270  0.10146  1.0000
  S   S2        1.0  0.30204  0.05459  0.13879  1.0000
  Fe  Fe2       1.0  0.20467  0.06387  0.15574  1.0000
  S   S3        1.0  0.18171  0.04107  0.12577  1.0000
  S   S4        1.0  0.18834  0.09469  0.18314  1.0000
  Fe  Fe3       1.0  0.21120  0.05625  0.09656  1.0000
  S   S5        1.0  0.19189  0.06879  0.05855  1.0000
  S   S6        1.0  0.23195  0.08187  0.12581  1.0000
  H   H1        1.0  0.01953  0.23415  0.15350  1.0000
  S   S7        1.0  0.12979  0.19806  0.04458  1.0000
  H   H2        1.0  0.24504  0.10308  0.17605  1.0000
  Fe  Fe4       1.0  0.15142  0.27065  0.03104  1.0000
  S   S8        1.0  0.10969  0.26009  0.04277  1.0000
  H   H3        1.0  0.01066  0.19425  0.07966  1.0000
  Fe  Fe5       1.0  0.12881  0.23264  0.07184  1.0000
  S   S9        1.0  0.11673  0.23144  0.11441  1.0000
  S   S10       1.0  0.17006  0.24570  0.06243  1.0000
  Fe  Fe6       1.0  0.04674  0.10433  0.23144  1.0000
  S   S11       1.0  0.05833  0.14438  0.21684  1.0000
  H   H4        1.0  0.30210  0.06069  0.23560  1.0000
  H   H5        1.0  0.23490  0.10530  0.06899  1.0000
  S   S12       1.0  0.03138  0.14541  0.14383  1.0000
  C   C1        1.0  0.16307  0.13785  0.11122  1.0000
  H   H6        1.0  0.09390  0.12270  0.17395  1.0000
  S   S13       1.0  0.42902  0.09432  0.23312  1.0000
  C   C2        1.0  0.09836  0.10970  0.15698  1.0000
  C   C3        1.0  0.14708  0.15553  0.12491  1.0000
  C   C4        1.0  0.23307  0.45354  0.24385  1.0000
  Fe  Fe7       1.0  0.46882  0.36311  0.15334  1.0000
  S   S14       1.0  0.46555  0.36761  0.19731  1.0000
  S   S15       1.0  0.43678  0.37105  0.12303  1.0000
  Fe  Fe8       1.0  0.48297  0.32625  0.19890  1.0000
  S   S16       1.0  0.46357  0.29429  0.22546  1.0000
  H   H7        1.0  0.26318  0.25059  0.07401  1.0000
  S   S17       1.0  0.48373  0.32131  0.15497  1.0000
  Fe  Fe9       1.0  0.26978  0.46046  0.07963  1.0000
  S   S18       1.0  0.29572  0.42485  0.08645  1.0000
  S   S19       1.0  0.27274  0.48808  0.04333  1.0000
  Fe  Fe10      1.0  0.24460  0.45591  0.13618  1.0000
  S   S20       1.0  0.26828  0.41983  0.14543  1.0000
  S   S21       1.0  0.21770  0.47549  0.16712  1.0000
  Fe  Fe11      1.0  0.30257  0.44115  0.12708  1.0000
  S   S22       1.0  0.33919  0.44307  0.15282  1.0000
  Fe  Fe12      1.0  0.25892  0.40675  0.10413  1.0000
  S   S23       1.0  0.25067  0.36301  0.10004  1.0000
  S   S24       1.0  0.27947  0.47819  0.11949  1.0000
  S   S25       1.0  0.23226  0.44142  0.09556  1.0000
  C   C5        1.0  0.41136  0.39358  0.13041  1.0000
  C   C6        1.0  0.39053  0.39705  0.11231  1.0000
  C   C7        1.0  0.36857  0.41276  0.11871  1.0000
  C   C8        1.0  0.36747  0.42526  0.14319  1.0000
  C   C9        1.0  0.38872  0.42252  0.16094  1.0000
  C   C10       1.0  0.41062  0.40668  0.15459  1.0000
  H   H8        1.0  0.39113  0.38712  0.09348  1.0000
  H   H9        1.0  0.35242  0.41498  0.10481  1.0000
  H   H10       1.0  0.38807  0.43237  0.17981  1.0000
  H   H11       1.0  0.42678  0.40443  0.16850  1.0000
  H   H12       1.0  0.35964  0.01803  0.24949  1.0000
  H   H13       1.0  0.41395  0.33857  0.16452  1.0000
  Fe  Fe13      1.0  0.16946  0.21360  0.03244  1.0000
  C   C11       1.0  0.35397  0.36561  0.17353  1.0000
  C   C12       1.0  0.21646  0.47158  0.20223  1.0000
  C   C13       1.0  0.42333  0.02074  0.22777  1.0000
  C   C14       1.0  0.19805  0.48591  0.24476  1.0000
  H   H14       1.0  0.15971  0.01709  0.06313  1.0000
  Fe  Fe14      1.0  0.02589  0.13853  0.18723  1.0000
  C   C15       1.0  0.46013  0.20264  0.22099  1.0000
  C   C16       1.0  0.47772  0.21708  0.20481  1.0000
  C   C17       1.0  0.47852  0.24502  0.20529  1.0000
  C   C18       1.0  0.46163  0.25910  0.22196  1.0000
  C   C19       1.0  0.26306  0.11088  0.18475  1.0000
  H   H15       1.0  0.04913  0.24294  0.04240  1.0000
  H   H16       1.0  0.31609  0.47437  0.20075  1.0000
  H   H17       1.0  0.19135  0.44944  0.02966  1.0000
  C   C20       1.0  0.09413  0.20658  0.12289  1.0000
  C   C21       1.0  0.08533  0.18845  0.10409  1.0000
  C   C22       1.0  0.06640  0.16935  0.11085  1.0000
  C   C23       1.0  0.05623  0.16831  0.13645  1.0000
  C   C24       1.0  0.06530  0.18613  0.15546  1.0000
  C   C25       1.0  0.08427  0.20529  0.14865  1.0000
  H   H18       1.0  0.09283  0.18929  0.08427  1.0000
  H   H19       1.0  0.05937  0.15554  0.09615  1.0000
  H   H20       1.0  0.05717  0.18567  0.17516  1.0000
  H   H21       1.0  0.09098  0.21938  0.16323  1.0000
  C   C26       1.0  0.18615  0.32826  0.04653  1.0000
  C   C27       1.0  0.19649  0.35351  0.04109  1.0000
  C   C28       1.0  0.21531  0.36517  0.05812  1.0000
  C   C29       1.0  0.22407  0.35143  0.08051  1.0000
  C   C30       1.0  0.21313  0.32662  0.08632  1.0000
  C   C31       1.0  0.19406  0.31523  0.06958  1.0000
  H   H22       1.0  0.11417  0.15957  0.15126  1.0000
  H   H23       1.0  0.22372  0.38429  0.05345  1.0000
  H   H24       1.0  0.21959  0.31603  0.10375  1.0000
  H   H25       1.0  0.18576  0.29627  0.07447  1.0000
  H   H26       1.0  0.29098  0.12193  0.24397  1.0000
  H   H27       1.0  0.40369  0.36052  0.18977  1.0000
  C   C32       1.0  0.04905  0.24652  0.09451  1.0000
  C   C33       1.0  0.19591  0.10260  0.05165  1.0000
  C   C34       1.0  0.21911  0.11589  0.05908  1.0000
  C   C35       1.0  0.22241  0.14269  0.05265  1.0000
  H   H28       1.0  0.24070  0.15271  0.05777  1.0000
  S   S26       1.0  0.16505  0.31271  0.02328  1.0000
  H   H29       1.0  0.49251  0.25565  0.19304  1.0000
  C   C36       1.0  0.50396  0.49547  0.21129  1.0000
  C   C37       1.0  0.10856  0.07984  0.22339  1.0000
  C   C38       1.0  0.11950  0.10525  0.22232  1.0000
  C   C39       1.0  0.14399  0.10952  0.20988  1.0000
  C   C40       1.0  0.15750  0.08853  0.19810  1.0000
  C   C41       1.0  0.14646  0.06317  0.19882  1.0000
  C   C42       1.0  0.12220  0.05879  0.21180  1.0000
  H   H30       1.0  0.05271  0.26435  0.13293  1.0000
  H   H31       1.0  0.15251  0.12916  0.20941  1.0000
  H   H32       1.0  0.15688  0.04683  0.18994  1.0000
  H   H33       1.0  0.11391  0.03906  0.21276  1.0000
  C   C43       1.0  0.33896  0.07473  0.21914  1.0000
  C   C44       1.0  0.31346  0.06351  0.21774  1.0000
  C   C45       1.0  0.30214  0.05676  0.19330  1.0000
  C   C46       1.0  0.31640  0.06085  0.17002  1.0000
  C   C47       1.0  0.34234  0.07107  0.17151  1.0000
  C   C48       1.0  0.35357  0.07812  0.19597  1.0000
  H   H34       1.0  0.06432  0.25907  0.08602  1.0000
  H   H35       1.0  0.28229  0.04865  0.19243  1.0000
  H   H36       1.0  0.49107  0.20655  0.19196  1.0000
  H   H37       1.0  0.37318  0.08687  0.19677  1.0000
  N   N1        1.0  0.37318  0.35027  0.16238  1.0000
  C   C49       1.0  0.36981  0.34051  0.13747  1.0000
  H   H38       1.0  0.20782  0.47654  0.04568  1.0000
  N   N2        1.0  0.12162  0.11925  0.14242  1.0000
  C   C50       1.0  0.19849  0.48693  0.21687  1.0000
  C   C51       1.0  0.33076  0.37179  0.15958  1.0000
  H   H39       1.0  0.19036  0.36381  0.02337  1.0000
  H   H40       1.0  0.26370  0.29920  0.06470  1.0000
  Fe  Fe15      1.0  0.21120  0.00852  0.13232  1.0000
  C   C52       1.0  0.44291  0.21671  0.23735  1.0000
  S   S27       1.0  0.01670  0.09706  0.19961  1.0000
  C   C53       1.0  0.04257  0.24960  0.12111  1.0000
  S   S28       1.0  0.20690  0.18989  0.03121  1.0000
  C   C54       1.0  0.30944  0.13044  0.20688  1.0000
  N   N3        1.0  0.28235  0.49942  0.20691  1.0000
  H   H41       1.0  0.39305  0.32632  0.19071  1.0000
  H   H42       1.0  0.25876  0.33324  0.03010  1.0000
  H   H43       1.0  0.35684  0.37378  0.19306  1.0000
  H   H44       1.0  0.13362  0.08071  0.13072  1.0000
  C   C55       1.0  0.20925  0.46229  0.02913  1.0000
  H   H45       1.0  0.35351  0.07420  0.15357  1.0000
  C   C56       1.0  0.29877  0.48276  0.19001  1.0000
  H   H46       1.0  0.32788  0.13708  0.21583  1.0000
  H   H47       1.0  0.32369  0.13438  0.16702  1.0000
  C   C57       1.0  0.17568  0.11637  0.03853  1.0000
  C   C58       1.0  0.24398  0.10197  0.22805  1.0000
  H   H48       1.0  0.16308  0.15385  0.02251  1.0000
  N   N4        1.0  0.24100  0.27022  0.04398  1.0000
  C   C59       1.0  0.44361  0.24467  0.23771  1.0000
  H   H49       1.0  0.17909  0.14504  0.09881  1.0000
  H   H50       1.0  0.34452  0.33915  0.10297  1.0000
  C   C60       1.0  0.50436  0.46760  0.20930  1.0000
  H   H51       1.0  0.06345  0.21158  0.05135  1.0000
  C   C61       1.0  0.04512  0.22366  0.05221  1.0000
  H   H52       1.0  0.39251  0.04997  0.23241  1.0000
  C   C62       1.0  0.13729  0.10177  0.12919  1.0000
  S   S29       1.0  0.23152  0.02996  0.16599  1.0000
  C   C63       1.0  0.20219  0.15648  0.03955  1.0000
  H   H53       1.0  0.18441  0.49821  0.25561  1.0000
  C   C64       1.0  0.39704  0.34351  0.17763  1.0000
  H   H54       1.0  0.29679  0.48240  0.24275  1.0000
  H   H55       1.0  0.38535  0.32891  0.12838  1.0000
  S   S30       1.0  0.07832  0.07405  0.23978  1.0000
  H   H56       1.0  0.28203  0.11702  0.14708  1.0000
  C   C65       1.0  0.30712  0.12886  0.17951  1.0000
  C   C66       1.0  0.39788  0.02938  0.23449  1.0000
  C   C67       1.0  0.25011  0.31379  0.02730  1.0000
  Fe  Fe16      1.0  0.02634  0.15909  0.24374  1.0000
  C   C68       1.0  0.28845  0.12170  0.22273  1.0000
  C   C69       1.0  0.28374  0.11913  0.16831  1.0000
  C   C70       1.0  0.15830  0.11080  0.11353  1.0000
  S   S31       1.0  0.46126  0.16724  0.22055  1.0000
  C   C71       1.0  0.17865  0.14338  0.03282  1.0000
  N   N5        1.0  0.03712  0.22728  0.07972  1.0000
  C   C72       1.0  0.23353  0.45459  0.21598  1.0000
  H   H57       1.0  0.23754  0.08207  0.22126  1.0000
  H   H58       1.0  0.22834  0.25574  0.08105  1.0000
  H   H59       1.0  0.17072  0.09691  0.10312  1.0000
  C   C73       1.0  0.32716  0.36200  0.13415  1.0000
  H   H60       1.0  0.24726  0.44241  0.20515  1.0000
  H   H61       1.0  0.02944  0.21364  0.04044  1.0000
  H   H62       1.0  0.24989  0.10013  0.24909  1.0000
  C   C74       1.0  0.34680  0.34628  0.12297  1.0000
  H   H63       1.0  0.08068  0.10939  0.14381  1.0000
  C   C75       1.0  0.25285  0.29440  0.04682  1.0000
  H   H64       1.0  0.10167  0.08955  0.16509  1.0000
  H   H65       1.0  0.15042  0.17668  0.12321  1.0000
  H   H66       1.0  0.10943  0.12151  0.23157  1.0000
  H   H67       1.0  0.24660  0.44051  0.25416  1.0000
  H   H68       1.0  0.30941  0.36706  0.12298  1.0000
  C   C76       1.0  0.12644  0.14578  0.14063  1.0000
  N   N6        1.0  0.26576  0.11178  0.21155  1.0000
  H   H69       1.0  0.31603  0.38477  0.16810  1.0000
  H   H70       1.0  0.15769  0.10615  0.03282  1.0000
  Fe  Fe17      1.0  0.44117  0.13542  0.24645  1.0000
  H   H71       1.0  0.43779  0.03504  0.22075  1.0000
  H   H72       1.0  0.43038  0.25521  0.25068  1.0000
  H   H73       1.0  0.48604  0.45680  0.20627  1.0000
  H   H74       1.0  0.30685  0.49425  0.17310  1.0000
  H   H75       1.0  0.48524  0.50575  0.20944  1.0000
  H   H76       1.0  0.23854  0.23046  0.05831  1.0000
  C   C77       1.0  0.24288  0.25080  0.06541  1.0000
  C   C78       1.0  0.28350  0.49665  0.23375  1.0000
  Fe  Fe18      1.0  0.11353  0.22638  0.01429  1.0000
  H   H77       1.0  0.28668  0.46618  0.18213  1.0000
  H   H78       1.0  0.13040  0.46277  0.24797  1.0000
  C   C79       1.0  0.01229  0.21279  0.11755  1.0000
  H   H79       1.0  0.22666  0.11544  0.22642  1.0000
  C   C80       1.0  0.01918  0.21032  0.09097  1.0000
  C   C81       1.0  0.02403  0.23263  0.13265  1.0000
  S   S32       1.0  0.35058  0.08631  0.24991  1.0000
  H   H80       1.0  0.42919  0.20606  0.24988  1.0000
  H   H81       1.0  0.18511  0.50012  0.20655  1.0000
  C   C82       1.0  0.27951  0.48440  0.00882  1.0000
  C   C83       1.0  0.37935  0.01132  0.24409  1.0000
  H   H82       1.0  0.21610  0.24586  0.02006  1.0000
  H   H83       1.0  0.22722  0.45008  0.03270  1.0000
  C   C84       1.0  0.22602  0.26479  0.02209  1.0000
  Fe  Fe19      1.0  0.50758  0.38382  0.19495  1.0000
  S   S33       1.0  0.50943  0.38147  0.15069  1.0000
  H   H84       1.0  0.27007  0.44304  0.00634  1.0000
  H   H85       1.0  0.10939  0.20909  0.28159  1.0000
  Fe  Fe20      1.0  0.19159  0.48693  0.32655  1.0000
  C   C85       1.0  0.11640  0.17089  0.33640  1.0000
  Fe  Fe21      1.0  0.42493  0.12437  0.30310  1.0000
  S   S34       1.0  0.46325  0.11877  0.28138  1.0000
  S   S35       1.0  0.42669  0.15026  0.33940  1.0000
  C   C86       1.0  0.10534  0.44951  0.27987  1.0000
  H   H86       1.0  0.16995  0.43918  0.26464  1.0000
  C   C87       1.0  0.47281  0.00816  0.28214  1.0000
  S   S36       1.0  0.41092  0.08285  0.29529  1.0000
  C   C88       1.0  0.21036  0.21137  0.49588  1.0000
  H   H87       1.0  0.45111  0.25247  0.31623  1.0000
  S   S37       1.0  0.28722  0.21496  0.46873  1.0000
  C   C89       1.0  0.35133  0.17745  0.37136  1.0000
  Fe  Fe22      1.0  0.35887  0.14804  0.47633  1.0000
  S   S38       1.0  0.36516  0.11849  0.44365  1.0000
  S   S39       1.0  0.36073  0.19210  0.47180  1.0000
  Fe  Fe23      1.0  0.09021  0.23570  0.40657  1.0000
  S   S40       1.0  0.08607  0.23331  0.45075  1.0000
  S   S41       1.0  0.07231  0.20058  0.38504  1.0000
  Fe  Fe24      1.0  0.11991  0.28829  0.40964  1.0000
  S   S42       1.0  0.11668  0.28959  0.45370  1.0000
  S   S43       1.0  0.14645  0.31755  0.38817  1.0000
  Fe  Fe25      1.0  0.12905  0.24682  0.45218  1.0000
  S   S44       1.0  0.16100  0.22967  0.48003  1.0000
  Fe  Fe26      1.0  0.07409  0.27597  0.44772  1.0000
  S   S45       1.0  0.03880  0.29713  0.46736  1.0000
  S   S46       1.0  0.13368  0.24599  0.40834  1.0000
  S   S47       1.0  0.07686  0.27791  0.40335  1.0000
  S   S48       1.0  0.40333  0.14210  0.26854  1.0000
  S   S49       1.0  0.14713  0.48551  0.32399  1.0000
  S   S50       1.0  0.21698  0.46804  0.29377  1.0000
  Fe  Fe27      1.0  0.14888  0.47149  0.36612  1.0000
  S   S51       1.0  0.12028  0.43999  0.38067  1.0000
  S   S52       1.0  0.19343  0.47050  0.36839  1.0000
  H   H88       1.0  0.03407  0.15774  0.30736  1.0000
  C   C90       1.0  0.13947  0.35172  0.38785  1.0000
  C   C91       1.0  0.15886  0.36949  0.37862  1.0000
  C   C92       1.0  0.15363  0.39676  0.37728  1.0000
  C   C93       1.0  0.12876  0.40636  0.38469  1.0000
  C   C94       1.0  0.10950  0.38862  0.39414  1.0000
  C   C95       1.0  0.11488  0.36141  0.39593  1.0000
  H   H89       1.0  0.17798  0.36211  0.37246  1.0000
  H   H90       1.0  0.16869  0.41029  0.37027  1.0000
  H   H91       1.0  0.09021  0.39591  0.39988  1.0000
  H   H92       1.0  0.09981  0.34791  0.40305  1.0000
  C   C96       1.0  0.25171  0.21576  0.47118  1.0000
  H   H93       1.0  0.12181  0.17226  0.35711  1.0000
  C   C97       1.0  0.47583  0.19277  0.29855  1.0000
  C   C98       1.0  0.19557  0.22284  0.47516  1.0000
  C   C99       1.0  0.20902  0.23005  0.45207  1.0000
  C   C100      1.0  0.23684  0.22665  0.45019  1.0000
  H   H94       1.0  0.17799  0.28798  0.43018  1.0000
  H   H95       1.0  0.19807  0.23877  0.43587  1.0000
  H   H96       1.0  0.24697  0.23294  0.43247  1.0000
  C   C101      1.0  0.24636  0.28365  0.47940  1.0000
  C   C102      1.0  0.10417  0.43463  0.30307  1.0000
  C   C103      1.0  0.41127  0.14025  0.36896  1.0000
  C   C104      1.0  0.41078  0.15777  0.39033  1.0000
  C   C105      1.0  0.39712  0.15115  0.41358  1.0000
  C   C106      1.0  0.38412  0.12681  0.41566  1.0000
  C   C107      1.0  0.38522  0.10900  0.39456  1.0000
  C   C108      1.0  0.39865  0.11573  0.37120  1.0000
  H   H97       1.0  0.42068  0.17669  0.38878  1.0000
  H   H98       1.0  0.39655  0.16490  0.42981  1.0000
  H   H99       1.0  0.37534  0.09006  0.39616  1.0000
  H   H100      1.0  0.39910  0.10203  0.35492  1.0000
  C   C109      1.0  0.34306  0.19271  0.39263  1.0000
  Fe  Fe28      1.0  0.44759  0.07829  0.27062  1.0000
  C   C110      1.0  0.04307  0.19854  0.29937  1.0000
  C   C111      1.0  0.04133  0.17612  0.31545  1.0000
  C   C112      1.0  0.04944  0.17740  0.34198  1.0000
  C   C113      1.0  0.05958  0.20097  0.35257  1.0000
  C   C114      1.0  0.06060  0.22360  0.33674  1.0000
  C   C115      1.0  0.05228  0.22238  0.31024  1.0000
  C   C116      1.0  0.17423  0.41097  0.30897  1.0000
  H   H101      1.0  0.04846  0.15986  0.35420  1.0000
  H   H102      1.0  0.06835  0.24186  0.34469  1.0000
  C   C117      1.0  0.19195  0.28904  0.48531  1.0000
  C   C118      1.0  0.23057  0.29378  0.45898  1.0000
  N   N7        1.0  0.15010  0.42298  0.29809  1.0000
  H   H103      1.0  0.05358  0.23982  0.29790  1.0000
  H   H104      1.0  0.12408  0.21200  0.32844  1.0000
  H   H105      1.0  0.12589  0.41038  0.33023  1.0000
  C   C119      1.0  0.46030  0.21116  0.31193  1.0000
  N   N8        1.0  0.49365  0.20087  0.27984  1.0000
  C   C120      1.0  0.23181  0.50428  0.48774  1.0000
  H   H106      1.0  0.09259  0.16682  0.26416  1.0000
  H   H107      1.0  0.16961  0.39218  0.31944  1.0000
  H   H108      1.0  0.17053  0.28983  0.48737  1.0000
  C   C121      1.0  0.49704  0.22717  0.27450  1.0000
  H   H109      1.0  0.48394  0.26690  0.28246  1.0000
  H   H110      1.0  0.26746  0.28048  0.47649  1.0000
  C   C122      1.0  0.09980  0.16761  0.28433  1.0000
  H   H111      1.0  0.34881  0.13945  0.35265  1.0000
  C   C123      1.0  0.48192  0.24613  0.28760  1.0000
  N   N9        1.0  0.09827  0.14587  0.30039  1.0000
  H   H112      1.0  0.10470  0.10749  0.28490  1.0000
  H   H113      1.0  0.22112  0.48951  0.44902  1.0000
  H   H114      1.0  0.35091  0.21246  0.39542  1.0000
  S   S53       1.0  0.47481  0.04163  0.27048  1.0000
  H   H115      1.0  0.18885  0.40657  0.29323  1.0000
  H   H116      1.0  0.17099  0.31851  0.44693  1.0000
  C   C124      1.0  0.34170  0.15177  0.36857  1.0000
  C   C125      1.0  0.08804  0.12082  0.29006  1.0000
  H   H117      1.0  0.36591  0.18510  0.35755  1.0000
  H   H118      1.0  0.19865  0.31665  0.42516  1.0000
  C   C126      1.0  0.18714  0.30532  0.44008  1.0000
  C   C127      1.0  0.11765  0.19325  0.32029  1.0000
  C   C128      1.0  0.10674  0.14716  0.32602  1.0000
  C   C129      1.0  0.23815  0.20773  0.49391  1.0000
  N   N10       1.0  0.20374  0.29647  0.46218  1.0000
  C   C130      1.0  0.21561  0.46942  0.25851  1.0000
  S   S54       1.0  0.31769  0.14761  0.49330  1.0000
  C   C131      1.0  0.46333  0.23801  0.30632  1.0000
  H   H119      1.0  0.44591  0.20447  0.32642  1.0000
  H   H120      1.0  0.10532  0.13001  0.33881  1.0000
  H   H121      1.0  0.23564  0.48482  0.49577  1.0000
  H   H122      1.0  0.08611  0.43398  0.31467  1.0000
  N   N11       1.0  0.31570  0.15683  0.40785  1.0000
  C   C132      1.0  0.32503  0.18205  0.41074  1.0000
  C   C133      1.0  0.32405  0.14159  0.38730  1.0000
  H   H123      1.0  0.45337  0.18551  0.50357  1.0000
  H   H124      1.0  0.23980  0.29870  0.44031  1.0000
  C   C134      1.0  0.23449  0.27608  0.50307  1.0000
  C   C135      1.0  0.29719  0.14555  0.42710  1.0000
  H   H125      1.0  0.31884  0.19399  0.42730  1.0000
  H   H126      1.0  0.31761  0.12121  0.38573  1.0000
  Fe  Fe29      1.0  0.39281  0.10009  0.25829  1.0000
  C   C136      1.0  0.10943  0.19162  0.29405  1.0000
  H   H127      1.0  0.18374  0.42491  0.32304  1.0000
  H   H128      1.0  0.30721  0.12952  0.43839  1.0000
  H   H129      1.0  0.29010  0.16059  0.44137  1.0000
  H   H130      1.0  0.27946  0.13729  0.41700  1.0000
  H   H131      1.0  0.07503  0.11083  0.30470  1.0000
  S   S55       1.0  0.01678  0.11910  0.26072  1.0000
  S   S56       1.0  0.03561  0.19721  0.26534  1.0000
  C   C137      1.0  0.12686  0.42138  0.31190  1.0000
  H   H132      1.0  0.07580  0.12388  0.27207  1.0000
  C   C138      1.0  0.15140  0.43745  0.27528  1.0000
  H   H133      1.0  0.49983  0.16201  0.26496  1.0000
  H   H134      1.0  0.47327  0.17197  0.30312  1.0000
  Fe  Fe30      1.0  0.32006  0.19179  0.49091  1.0000
  H   H135      1.0  0.03123  0.24203  0.39514  1.0000
  H   H136      1.0  0.08806  0.46043  0.27316  1.0000
  H   H137      1.0  0.43128  0.00846  0.29183  1.0000
  C   C139      1.0  0.12906  0.45085  0.26576  1.0000
  H   H138      1.0  0.50166  0.50130  0.27548  1.0000
  H   H139      1.0  0.16926  0.50458  0.48960  1.0000
  H   H140      1.0  0.01898  0.28846  0.40603  1.0000
  C   C140      1.0  0.01091  0.24702  0.40007  1.0000
  C   C141      1.0  0.22351  0.50686  0.46118  1.0000
  C   C142      1.0  0.20713  0.27886  0.50613  1.0000
  H   H141      1.0  0.36546  0.14843  0.60206  1.0000
  H   H142      1.0  0.37934  0.10437  0.56080  1.0000
  H   H143      1.0  0.38229  0.19423  0.60386  1.0000
  C   C143      1.0  0.49129  0.19958  0.51852  1.0000
  C   C144      1.0  0.46148  0.23515  0.54767  1.0000
  Fe  Fe31      1.0  0.33830  0.15077  0.53235  1.0000
  S   S57       1.0  0.32485  0.13014  0.56997  1.0000
  S   S58       1.0  0.33834  0.19533  0.53154  1.0000
  N   N12       1.0  0.39984  0.13348  0.58272  1.0000
  C   C145      1.0  0.50474  0.21748  0.53516  1.0000
  C   C146      1.0  0.25372  0.01231  0.71940  1.0000
  H   H144      1.0  0.45010  0.24923  0.55889  1.0000
  C   C147      1.0  0.44803  0.21731  0.53098  1.0000
  H   H145      1.0  0.24912  0.19935  0.51028  1.0000
  S   S59       1.0  0.41242  0.21832  0.52933  1.0000
  C   C148      1.0  0.48952  0.23513  0.54993  1.0000
  H   H146      1.0  0.19748  0.27186  0.52394  1.0000
  H   H147      1.0  0.17782  0.03787  0.70484  1.0000
  H   H148      1.0  0.42674  0.20495  0.58554  1.0000
  C   C149      1.0  0.39445  0.17878  0.59547  1.0000
  C   C150      1.0  0.31688  0.04015  0.58050  1.0000
  C   C151      1.0  0.32552  0.05077  0.55634  1.0000
  C   C152      1.0  0.32758  0.07830  0.55261  1.0000
  C   C153      1.0  0.32116  0.09545  0.57314  1.0000
  C   C154      1.0  0.31269  0.08482  0.59736  1.0000
  C   C155      1.0  0.31048  0.05731  0.60103  1.0000
  H   H149      1.0  0.33046  0.03765  0.54032  1.0000
  Fe  Fe32      1.0  0.37896  0.19165  0.51270  1.0000
  H   H150      1.0  0.30776  0.09794  0.61337  1.0000
  H   H151      1.0  0.30388  0.04939  0.61974  1.0000
  H   H152      1.0  0.02934  0.25254  0.74349  1.0000
  H   H153      1.0  0.25927  0.49506  0.71782  1.0000
  H   H154      1.0  0.49684  0.34519  0.60073  1.0000
  H   H155      1.0  0.37403  0.10249  0.59578  1.0000
  H   H156      1.0  0.27242  0.01977  0.71176  1.0000
  H   H157      1.0  0.40502  0.09164  0.58241  1.0000
  H   H158      1.0  0.45342  0.16973  0.56465  1.0000
  C   C156      1.0  0.42407  0.13935  0.57202  1.0000
  C   C157      1.0  0.38497  0.15285  0.59417  1.0000
  H   H159      1.0  0.43542  0.12427  0.56203  1.0000
  H   H160      1.0  0.49937  0.24913  0.56272  1.0000
  H   H161      1.0  0.33411  0.08621  0.53386  1.0000
  C   C158      1.0  0.43434  0.16500  0.57337  1.0000
  C   C159      1.0  0.41939  0.18478  0.58520  1.0000
  H   H162      1.0  0.48446  0.34962  0.66077  1.0000
  C   C160      1.0  0.38914  0.10665  0.58034  1.0000
  N   N13       1.0  0.20620  0.00920  0.71649  1.0000
  C   C161      1.0  0.22977  0.01852  0.70683  1.0000
  S   S60       1.0  0.37951  0.14727  0.51586  1.0000
  H   H163      1.0  0.49380  0.38585  0.69184  1.0000
  H   H164      1.0  0.32461  0.47346  0.72181  1.0000
  H   H165      1.0  0.23018  0.03061  0.68912  1.0000
  C   C162      1.0  0.32840  0.49441  0.72408  1.0000
  C   C163      1.0  0.18146  0.01635  0.70297  1.0000
  H   H166      1.0  0.20030  0.20561  0.51384  1.0000
  N   N14       1.0  0.33575  0.50444  0.74804  1.0000
  H   H167      1.0  0.18278  0.01120  0.68170  1.0000
  C   C164      1.0  0.46322  0.19933  0.51657  1.0000
  H   H168      1.0  0.24633  0.26707  0.51858  1.0000
  C   C165      1.0  0.50055  0.36326  0.65647  1.0000
  H   H169      1.0  0.50145  0.32102  0.62677  1.0000
  C   C166      1.0  0.50568  0.38381  0.67413  1.0000
  H   H170      1.0  0.02835  0.30050  0.75245  1.0000
  H   H171      1.0  0.31808  0.50333  0.68355  1.0000
  H   H172      1.0  0.01110  0.27074  0.53530  1.0000
  H   H173      1.0  0.50268  0.18586  0.50687  1.0000
  H   H174      1.0  0.35948  0.01047  0.75536  1.0000
  C   C167      1.0  0.08387  0.14153  0.89675  1.0000
  C   C168      1.0  0.07015  0.13574  0.91992  1.0000
  C   C169      1.0  0.28213  0.48281  0.95253  1.0000
  C   C170      1.0  0.42838  0.42499  0.86735  1.0000
  H   H175      1.0  0.07383  0.04890  0.80834  1.0000
  S   S61       1.0  0.47795  0.44954  0.77727  1.0000
  Fe  Fe33      1.0  0.03003  0.18071  0.85172  1.0000
  H   H176      1.0  0.02964  0.18889  0.91172  1.0000
  S   S62       1.0  0.06560  0.20216  0.86891  1.0000
  C   C171      1.0  0.22270  0.28380  0.00228  1.0000
  C   C172      1.0  0.05382  0.01618  0.78942  1.0000
  S   S63       1.0  0.07677  0.21138  0.99316  1.0000
  S   S64       1.0  0.29848  0.48809  0.84201  1.0000
  S   S65       1.0  0.36281  0.45080  0.82740  1.0000
  H   H177      1.0  0.03367  0.33636  0.78047  1.0000
  S   S66       1.0  0.34523  0.49911  0.88589  1.0000
  C   C173      1.0  0.04936  0.25196  0.80749  1.0000
  H   H178      1.0  0.27149  0.44183  0.95731  1.0000
  H   H179      1.0  0.05458  0.23834  0.82330  1.0000
  H   H180      1.0  0.33947  0.46582  0.76548  1.0000
  S   S67       1.0  0.48938  0.37065  0.78248  1.0000
  S   S68       1.0  0.15375  0.23923  0.99967  1.0000
  C   C174      1.0  0.27524  0.46065  0.99537  1.0000
  C   C175      1.0  0.04268  0.24237  0.78259  1.0000
  H   H181      1.0  0.39353  0.44371  0.88351  1.0000
  H   H182      1.0  0.48355  0.40080  0.86225  1.0000
  C   C176      1.0  0.05553  0.04224  0.79931  1.0000
  C   C177      1.0  0.03391  0.05983  0.79754  1.0000
  C   C178      1.0  0.33821  0.48697  0.77104  1.0000
  C   C179      1.0  0.27617  0.46000  0.96747  1.0000
  H   H183      1.0  0.13933  0.16837  0.92377  1.0000
  H   H184      1.0  0.48196  0.45655  0.84342  1.0000
  H   H185      1.0  0.05033  0.12734  0.91893  1.0000
  C   C180      1.0  0.07334  0.21094  0.95853  1.0000
  C   C181      1.0  0.05024  0.19994  0.94749  1.0000
  C   C182      1.0  0.04739  0.19769  0.92001  1.0000
  C   C183      1.0  0.06765  0.20650  0.90337  1.0000
  C   C184      1.0  0.09055  0.21798  0.91437  1.0000
  C   C185      1.0  0.09344  0.22015  0.94189  1.0000
  C   C186      1.0  0.20899  0.46142  0.98090  1.0000
  C   C187      1.0  0.46291  0.45360  0.85297  1.0000
  H   H186      1.0  0.10624  0.22493  0.90156  1.0000
  H   H187      1.0  0.11123  0.22882  0.95019  1.0000
  C   C188      1.0  0.44525  0.44965  0.78958  1.0000
  C   C189      1.0  0.43323  0.47386  0.79559  1.0000
  C   C190      1.0  0.40782  0.47460  0.80699  1.0000
  C   C191      1.0  0.39412  0.45106  0.81199  1.0000
  C   C192      1.0  0.40580  0.42691  0.80522  1.0000
  C   C193      1.0  0.43135  0.42616  0.79421  1.0000
  H   H188      1.0  0.44390  0.49210  0.79199  1.0000
  Fe  Fe34      1.0  0.01466  0.13110  0.81964  1.0000
  H   H189      1.0  0.39520  0.40865  0.80888  1.0000
  H   H190      1.0  0.44028  0.40744  0.78932  1.0000
  N   N15       1.0  0.10632  0.15343  0.94548  1.0000
  C   C194      1.0  0.12002  0.15890  0.92285  1.0000
  S   S69       1.0  0.03760  0.09264  0.81036  1.0000
  C   C195      1.0  0.10895  0.15317  0.89816  1.0000
  Fe  Fe35      1.0  0.34311  0.48754  0.84332  1.0000
  H   H191      1.0  0.06046  0.33211  0.80372  1.0000
  N   N16       1.0  0.45269  0.42870  0.85591  1.0000
  C   C196      1.0  0.04054  0.32472  0.79786  1.0000
  Fe  Fe36      1.0  0.50305  0.41251  0.77714  1.0000
  H   H192      1.0  0.11930  0.15851  0.88018  1.0000
  C   C197      1.0  0.42345  0.47208  0.87239  1.0000
  S   S70       1.0  0.03252  0.17078  0.80871  1.0000
  H   H193      1.0  0.05356  0.28649  0.83154  1.0000
  H   H194      1.0  0.45560  0.38831  0.84370  1.0000
  H   H195      1.0  0.35659  0.49159  0.78230  1.0000
  S   S71       1.0  0.01479  0.14065  0.86310  1.0000
  C   C198      1.0  0.23479  0.30846  0.00497  1.0000
  H   H196      1.0  0.07478  0.13776  0.87767  1.0000
  H   H197      1.0  0.41164  0.48903  0.87807  1.0000
  C   C199      1.0  0.41333  0.44661  0.87559  1.0000
  S   S72       1.0  0.27680  0.48255  0.91754  1.0000
  Fe  Fe37      1.0  0.30095  0.50265  0.88429  1.0000
  H   H198      1.0  0.42010  0.40531  0.86944  1.0000
  C   C200      1.0  0.08176  0.14182  0.94429  1.0000
  C   C201      1.0  0.11850  0.15952  0.97107  1.0000
  C   C202      1.0  0.44845  0.47565  0.86113  1.0000
  H   H199      1.0  0.39907  0.49330  0.81225  1.0000
  C   C203      1.0  0.04870  0.27920  0.81203  1.0000
  N   N17       1.0  0.04154  0.29634  0.79232  1.0000
  H   H200      1.0  0.20493  0.44041  0.98182  1.0000
  H   H201      1.0  0.12736  0.17966  0.97076  1.0000
  H   H202      1.0  0.07068  0.13786  0.96217  1.0000
  C   C204      1.0  0.28790  0.50618  0.96610  1.0000
  H   H203      1.0  0.10359  0.15950  0.98720  1.0000
  H   H204      1.0  0.04236  0.22128  0.77893  1.0000
  H   H205      1.0  0.20993  0.27981  0.98549  1.0000
  H   H206      1.0  0.47835  0.41044  0.82827  1.0000
  H   H207      1.0  0.32083  0.48955  0.78421  1.0000
  H   H208      1.0  0.45624  0.49540  0.85801  1.0000
  C   C205      1.0  0.46828  0.40595  0.84723  1.0000
  H   H209      1.0  0.23146  0.32371  0.99026  1.0000
  H   H210      1.0  0.21196  0.46182  0.93832  1.0000
  H   H211      1.0  0.02613  0.32865  0.81391  1.0000
  H   H212      1.0  0.03456  0.19286  0.96025  1.0000
  N   N18       1.0  0.21154  0.47576  0.00357  1.0000
  C   C206      1.0  0.03497  0.28706  0.76782  1.0000
  H   H213      1.0  0.13418  0.14488  0.97587  1.0000
  H   H214      1.0  0.27216  0.50320  0.76451  1.0000
  C   C207      1.0  0.03553  0.25997  0.76259  1.0000
  C   C208      1.0  0.21914  0.50017  0.95494  1.0000
  C   C209      1.0  0.01045  0.05080  0.78566  1.0000
  C   C210      1.0  0.21789  0.50204  0.00245  1.0000
  C   C211      1.0  0.21273  0.47340  0.95626  1.0000
  H   H215      1.0  0.03604  0.01392  0.85165  1.0000
  C   C212      1.0  0.03047  0.00727  0.77727  1.0000
  H   H216      1.0  0.02039  0.83928  0.01026  1.0000
  C   C213      1.0  0.05530  0.79016  0.00988  1.0000
  H   H217      1.0  0.23305  0.54439  0.20205  1.0000
  C   C214      1.0  0.17370  0.93975  0.01289  1.0000
  H   H218      1.0  0.18985  0.00487  0.07801  1.0000
  H   H219      1.0  0.03025  0.67753  0.22919  1.0000
  S   S73       1.0  0.21349  0.88768  0.03790  1.0000
  S   S74       1.0  0.17811  0.81626  0.02583  1.0000
  C   C215      1.0  0.06599  0.79821  0.03409  1.0000
  C   C216      1.0  0.01205  0.70658  0.25388  1.0000
  C   C217      1.0  0.30605  0.83285  0.02282  1.0000
  C   C218      1.0  0.02319  0.78722  0.05504  1.0000
  H   H220      1.0  0.20425  0.99634  0.03219  1.0000
  C   C219      1.0  0.04970  0.79652  0.05663  1.0000
  C   C220      1.0  0.26682  0.51144  0.24999  1.0000
  N   N19       1.0  0.17106  0.97858  0.05135  1.0000
  H   H221      1.0  0.47153  0.00187  0.22509  1.0000
  H   H222      1.0  0.05767  0.80249  0.07552  1.0000
  C   C221      1.0  0.15409  0.93861  0.03221  1.0000
  S   S75       1.0  0.09928  0.81056  0.03755  1.0000
  C   C222      1.0  0.38636  0.98480  0.24676  1.0000
  C   C223      1.0  0.19844  0.94559  0.10563  1.0000
  C   C224      1.0  0.21989  0.94910  0.08855  1.0000
  C   C225      1.0  0.22424  0.93108  0.06802  1.0000
  C   C226      1.0  0.20690  0.90970  0.06400  1.0000
  C   C227      1.0  0.18524  0.90629  0.08086  1.0000
  C   C228      1.0  0.18119  0.92407  0.10176  1.0000
  H   H223      1.0  0.23354  0.96531  0.09155  1.0000
  H   H224      1.0  0.24115  0.93376  0.05518  1.0000
  H   H225      1.0  0.17190  0.88974  0.07812  1.0000
  H   H226      1.0  0.16465  0.92111  0.11503  1.0000
  H   H227      1.0  0.22135  0.51310  0.02043  1.0000
  N   N20       1.0  0.28067  0.84229  0.02448  1.0000
  H   H228      1.0  0.37213  0.97060  0.25437  1.0000
  H   H229      1.0  0.23517  0.53991  0.25093  1.0000
  S   S76       1.0  0.19258  0.96767  0.13191  1.0000
  C   C229      1.0  0.15304  0.95832  0.05141  1.0000
  H   H230      1.0  0.46336  0.96911  0.23516  1.0000
  C   C230      1.0  0.19181  0.96066  0.01281  1.0000
  H   H231      1.0  0.26814  0.86831  0.05461  1.0000
  C   C231      1.0  0.24885  0.52904  0.23858  1.0000
  Fe  Fe38      1.0  0.18342  0.85995  0.01922  1.0000
  H   H232      1.0  0.13819  0.95691  0.06679  1.0000
  H   H233      1.0  0.27906  0.83633  0.06640  1.0000
  H   H234      1.0  0.49675  0.72412  0.22180  1.0000
  C   C232      1.0  0.01495  0.85324  0.04973  1.0000
  H   H235      1.0  0.50880  0.76889  0.23284  1.0000
  C   C233      1.0  0.02894  0.78041  0.00837  1.0000
  Fe  Fe39      1.0  0.13535  0.82328  0.01220  1.0000
  H   H236      1.0  0.03600  0.85665  0.05298  1.0000
  H   H237      1.0  0.01105  0.78624  0.07257  1.0000
  C   C234      1.0  0.24770  0.53160  0.21119  1.0000
  H   H238      1.0  0.14029  0.92215  0.03280  1.0000
  H   H239      1.0  0.31720  0.82800  0.04050  1.0000
  H   H240      1.0  0.24752  0.83958  0.05028  1.0000
  H   H241      1.0  0.15885  0.99243  0.08926  1.0000
  C   C235      1.0  0.45655  0.98585  0.22258  1.0000
  H   H242      1.0  0.41738  0.95617  0.24203  1.0000
  C   C236      1.0  0.41193  0.97676  0.23967  1.0000
  H   H243      1.0  0.03769  0.69676  0.17776  1.0000
  C   C237      1.0  0.19007  0.98015  0.03221  1.0000
  C   C238      1.0  0.26842  0.84680  0.05026  1.0000
  N   N21       1.0  0.43009  0.99474  0.23054  1.0000
  C   C239      1.0  0.16961  0.99928  0.07135  1.0000
  H   H244      1.0  0.30017  0.76869  0.01100  1.0000
  C   C240      1.0  0.01257  0.77901  0.03086  1.0000
  H   H245      1.0  0.45622  0.97962  0.20165  1.0000
  S   S77       1.0  0.14096  0.86756  0.00818  1.0000
  H   H246      1.0  0.26271  0.51758  0.17425  1.0000
  C   C241      1.0  0.01822  0.69526  0.22958  1.0000
  C   C242      1.0  0.26460  0.51644  0.19556  1.0000
  C   C243      1.0  0.01615  0.69401  0.18145  1.0000
  H   H247      1.0  0.01147  0.67252  0.18190  1.0000
  H   H248      1.0  0.48115  0.90729  0.38952  1.0000
  S   S78       1.0  0.41174  0.77592  0.44415  1.0000
  Fe  Fe40      1.0  0.49975  0.88765  0.31035  1.0000
  C   C244      1.0  0.44783  0.96912  0.29625  1.0000
  S   S79       1.0  0.20974  0.53670  0.41651  1.0000
  H   H249      1.0  0.44309  0.88420  0.33953  1.0000
  S   S80       1.0  0.12573  0.56145  0.32372  1.0000
  H   H250      1.0  0.41357  0.84517  0.34184  1.0000
  S   S81       1.0  0.46734  0.91799  0.29919  1.0000
  H   H251      1.0  0.27621  0.58732  0.49083  1.0000
  H   H252      1.0  0.03176  0.66036  0.36797  1.0000
  S   S82       1.0  0.48845  0.84631  0.32422  1.0000
  C   C245      1.0  0.44899  0.99652  0.29052  1.0000
  C   C246      1.0  0.41914  0.85545  0.35974  1.0000
  H   H253      1.0  0.15055  0.58624  0.48259  1.0000
  S   S83       1.0  0.14550  0.51242  0.38295  1.0000
  N   N22       1.0  0.15920  0.54505  0.48340  1.0000
  S   S84       1.0  0.19246  0.52889  0.34125  1.0000
  H   H254      1.0  0.03243  0.61259  0.35645  1.0000
  H   H255      1.0  0.30316  0.62608  0.47655  1.0000
  Fe  Fe41      1.0  0.14779  0.52629  0.34098  1.0000
  C   C247      1.0  0.21917  0.53188  0.45021  1.0000
  C   C248      1.0  0.22262  0.55418  0.46644  1.0000
  C   C249      1.0  0.23014  0.55156  0.49321  1.0000
  C   C250      1.0  0.49454  0.96486  0.28701  1.0000
  C   C251      1.0  0.29202  0.59479  0.50336  1.0000
  H   H256      1.0  0.21926  0.57365  0.45824  1.0000
  C   C252      1.0  0.01643  0.64715  0.37532  1.0000
  C   C253      1.0  0.30725  0.61640  0.49526  1.0000
  H   H257      1.0  0.03320  0.53103  0.33490  1.0000
  H   H258      1.0  0.15999  0.52257  0.44763  1.0000
  C   C254      1.0  0.47053  0.95299  0.29440  1.0000
  C   C255      1.0  0.15708  0.56957  0.49442  1.0000
  C   C256      1.0  0.49557  0.99210  0.28072  1.0000
  C   C257      1.0  0.41784  0.85960  0.40706  1.0000
  C   C258      1.0  0.43599  0.87746  0.35859  1.0000
  C   C259      1.0  0.43506  0.88126  0.40522  1.0000
  C   C260      1.0  0.03503  0.56963  0.31689  1.0000
  C   C261      1.0  0.05191  0.58979  0.30814  1.0000
  C   C262      1.0  0.07962  0.58695  0.31043  1.0000
  C   C263      1.0  0.09074  0.56399  0.32147  1.0000
  C   C264      1.0  0.07387  0.54385  0.33033  1.0000
  C   C265      1.0  0.04612  0.54670  0.32804  1.0000
  H   H259      1.0  0.04367  0.60750  0.29950  1.0000
  H   H260      1.0  0.09255  0.60258  0.30350  1.0000
  C   C266      1.0  0.41002  0.84652  0.38417  1.0000
  S   S85       1.0  0.35056  0.77977  0.48818  1.0000
  C   C267      1.0  0.43784  0.79658  0.43348  1.0000
  C   C268      1.0  0.44635  0.79501  0.40718  1.0000
  C   C269      1.0  0.46624  0.81206  0.39760  1.0000
  C   C270      1.0  0.47782  0.83066  0.41437  1.0000
  C   C271      1.0  0.46966  0.83192  0.44079  1.0000
  C   C272      1.0  0.44967  0.81498  0.45032  1.0000
  H   H261      1.0  0.43732  0.78071  0.39412  1.0000
  H   H262      1.0  0.47245  0.81092  0.37725  1.0000
  H   H263      1.0  0.47863  0.84625  0.45385  1.0000
  H   H264      1.0  0.44331  0.81625  0.47061  1.0000
  H   H265      1.0  0.46622  0.91877  0.35932  1.0000
  N   N23       1.0  0.44376  0.89001  0.38119  1.0000
  H   H266      1.0  0.44203  0.89057  0.42317  1.0000
  C   C273      1.0  0.46197  0.91261  0.37999  1.0000
  H   H267      1.0  0.08220  0.52611  0.33891  1.0000
  H   H268      1.0  0.42912  0.96032  0.30199  1.0000
  H   H269      1.0  0.23219  0.56887  0.50545  1.0000
  C   C274      1.0  0.23519  0.52656  0.50397  1.0000
  Fe  Fe42      1.0  0.19016  0.51264  0.38293  1.0000
  H   H270      1.0  0.41147  0.85227  0.42618  1.0000
  H   H271      1.0  0.39751  0.82907  0.38553  1.0000
  H   H272      1.0  0.45332  0.92983  0.39029  1.0000
  Fe  Fe43      1.0  0.39495  0.77782  0.48556  1.0000
  H   H273      1.0  0.01684  0.74413  0.35778  1.0000
  C   C275      1.0  0.15203  0.54139  0.45558  1.0000
  H   H274      1.0  0.01962  0.69807  0.27207  1.0000
  C   C276      1.0  0.01676  0.62043  0.36877  1.0000
  H   H275      1.0  0.13013  0.54133  0.45313  1.0000
  H   H276      1.0  0.16077  0.55737  0.44319  1.0000
  C   C277      1.0  0.16725  0.52397  0.49836  1.0000
  C   C278      1.0  0.50777  0.72100  0.28882  1.0000
  S   S86       1.0  0.50144  0.85365  0.40281  1.0000
  H   H277      1.0  0.48924  0.71220  0.29519  1.0000
  H   H278      1.0  0.49626  0.76053  0.30035  1.0000
  H   H279      1.0  0.26701  0.50849  0.27122  1.0000
  H   H280      1.0  0.33946  0.64247  0.50512  1.0000
  H   H281      1.0  0.29053  0.76646  0.50474  1.0000
  Fe  Fe44      1.0  0.30137  0.92958  0.64402  1.0000
  S   S87       1.0  0.27930  0.94017  0.68081  1.0000
  S   S88       1.0  0.32091  0.88980  0.64011  1.0000
  Fe  Fe45      1.0  0.30399  0.97688  0.68015  1.0000
  C   C279      1.0  0.28947  0.75002  0.58165  1.0000
  Fe  Fe46      1.0  0.25222  0.96281  0.65383  1.0000
  S   S89       1.0  0.20733  0.96297  0.65855  1.0000
  S   S90       1.0  0.32840  0.96453  0.64598  1.0000
  S   S91       1.0  0.27231  0.94911  0.61666  1.0000
  Fe  Fe47      1.0  0.35708  0.80775  0.52159  1.0000
  C   C280      1.0  0.27061  0.51956  0.75082  1.0000
  Fe  Fe48      1.0  0.01600  0.68808  0.70053  1.0000
  S   S92       1.0  0.31505  0.00538  0.58437  1.0000
  C   C281      1.0  0.38868  0.82964  0.71746  1.0000
  C   C282      1.0  0.39376  0.98548  0.75201  1.0000
  Fe  Fe49      1.0  0.40038  0.77487  0.54514  1.0000
  S   S93       1.0  0.42779  0.77350  0.58039  1.0000
  S   S94       1.0  0.35639  0.77580  0.55228  1.0000
  Fe  Fe50      1.0  0.45405  0.91788  0.73007  1.0000
  S   S95       1.0  0.42747  0.88380  0.72121  1.0000
  H   H282      1.0  0.35941  0.64398  0.54810  1.0000
  Fe  Fe51      1.0  0.44883  0.88232  0.68274  1.0000
  S   S96       1.0  0.42535  0.87966  0.64503  1.0000
  S   S97       1.0  0.47278  0.91890  0.69011  1.0000
  Fe  Fe52      1.0  0.05669  0.64579  0.68650  1.0000
  S   S98       1.0  0.03073  0.65168  0.72187  1.0000
  S   S99       1.0  0.09979  0.63605  0.69381  1.0000
  C   C283      1.0  0.29413  0.77154  0.59815  1.0000
  H   H283      1.0  0.05754  0.80196  0.68131  1.0000
  S   S100      1.0  0.04393  0.68335  0.66662  1.0000
  Fe  Fe53      1.0  0.20828  0.58693  0.60186  1.0000
  S   S101      1.0  0.21557  0.54344  0.60488  1.0000
  S   S102      1.0  0.16564  0.59838  0.59524  1.0000
  Fe  Fe54      1.0  0.26683  0.59950  0.60036  1.0000
  S   S103      1.0  0.27815  0.55653  0.60235  1.0000
  S   S104      1.0  0.30031  0.62938  0.60225  1.0000
  Fe  Fe55      1.0  0.24517  0.55047  0.57251  1.0000
  H   H284      1.0  0.37714  0.91043  0.62057  1.0000
  Fe  Fe56      1.0  0.24745  0.55384  0.63463  1.0000
  S   S105      1.0  0.25207  0.52879  0.67256  1.0000
  S   S106      1.0  0.23653  0.59360  0.56824  1.0000
  S   S107      1.0  0.23757  0.59705  0.63388  1.0000
  C   C284      1.0  0.15470  0.55030  0.65114  1.0000
  S   S108      1.0  0.07747  0.91888  0.73471  1.0000
  H   H285      1.0  0.26449  0.57808  0.70117  1.0000
  H   H286      1.0  0.02096  0.72095  0.57349  1.0000
  S   S109      1.0  0.05434  0.84620  0.71682  1.0000
  C   C285      1.0  0.26110  0.53597  0.70597  1.0000
  H   H287      1.0  0.47692  0.90180  0.61668  1.0000
  C   C286      1.0  0.48947  0.81814  0.58306  1.0000
  H   H288      1.0  0.03041  0.71851  0.62135  1.0000
  S   S110      1.0  0.48598  0.89316  0.74916  1.0000
  H   H289      1.0  0.36416  0.94949  0.56156  1.0000
  Fe  Fe57      1.0  0.06135  0.87893  0.74769  1.0000
  H   H290      1.0  0.46633  0.86568  0.58572  1.0000
  C   C287      1.0  0.12625  0.56734  0.68518  1.0000
  C   C288      1.0  0.14811  0.61161  0.62200  1.0000
  C   C289      1.0  0.16085  0.61732  0.64585  1.0000
  C   C290      1.0  0.14599  0.62596  0.66754  1.0000
  C   C291      1.0  0.11836  0.62876  0.66549  1.0000
  C   C292      1.0  0.10574  0.62379  0.64142  1.0000
  C   C293      1.0  0.12061  0.61525  0.61972  1.0000
  H   H291      1.0  0.18206  0.61477  0.64771  1.0000
  H   H292      1.0  0.15582  0.62997  0.68609  1.0000
  H   H293      1.0  0.08446  0.62600  0.63965  1.0000
  H   H294      1.0  0.11068  0.61100  0.60126  1.0000
  C   C294      1.0  0.35874  0.87233  0.70036  1.0000
  H   H295      1.0  0.19096  0.57176  0.73056  1.0000
  H   H296      1.0  0.39541  0.82185  0.67614  1.0000
  C   C295      1.0  0.04326  0.81257  0.71985  1.0000
  C   C296      1.0  0.04723  0.79503  0.69869  1.0000
  C   C297      1.0  0.39468  0.94068  0.64454  1.0000
  H   H297      1.0  0.37151  0.98876  0.59001  1.0000
  N   N24       1.0  0.37682  0.84579  0.73549  1.0000
  C   C298      1.0  0.42534  0.80215  0.59962  1.0000
  C   C299      1.0  0.41171  0.82415  0.58998  1.0000
  C   C300      1.0  0.41137  0.84765  0.60441  1.0000
  C   C301      1.0  0.42475  0.84931  0.62856  1.0000
  C   C302      1.0  0.43813  0.82723  0.63850  1.0000
  C   C303      1.0  0.43837  0.80363  0.62404  1.0000
  H   H298      1.0  0.40178  0.82324  0.57113  1.0000
  H   H299      1.0  0.40098  0.86466  0.59661  1.0000
  H   H300      1.0  0.44845  0.82833  0.65715  1.0000
  H   H301      1.0  0.44893  0.78661  0.63159  1.0000
  C   C304      1.0  0.31534  0.69298  0.53972  1.0000
  C   C305      1.0  0.33022  0.69252  0.56300  1.0000
  C   C306      1.0  0.32458  0.67360  0.58258  1.0000
  C   C307      1.0  0.30406  0.65510  0.57901  1.0000
  C   C308      1.0  0.28854  0.65623  0.55615  1.0000
  C   C309      1.0  0.29420  0.67513  0.53656  1.0000
  H   H302      1.0  0.34647  0.70632  0.56565  1.0000
  H   H303      1.0  0.33666  0.67281  0.60026  1.0000
  H   H304      1.0  0.27267  0.64210  0.55323  1.0000
  Fe  Fe58      1.0  0.01185  0.65801  0.64860  1.0000
  C   C310      1.0  0.32410  0.87766  0.60786  1.0000
  C   C311      1.0  0.33982  0.85537  0.60340  1.0000
  C   C312      1.0  0.34272  0.84539  0.57784  1.0000
  C   C313      1.0  0.32986  0.85754  0.55660  1.0000
  C   C314      1.0  0.31406  0.87978  0.56103  1.0000
  C   C315      1.0  0.31119  0.88983  0.58662  1.0000
  H   H305      1.0  0.34984  0.84574  0.61967  1.0000
  H   H306      1.0  0.35477  0.82815  0.57463  1.0000
  H   H307      1.0  0.30387  0.88914  0.54468  1.0000
  H   H308      1.0  0.29884  0.90686  0.58984  1.0000
  C   C316      1.0  0.35398  0.98121  0.72517  1.0000
  C   C317      1.0  0.36545  0.95972  0.71209  1.0000
  C   C318      1.0  0.39113  0.95112  0.71913  1.0000
  H   H309      1.0  0.40940  0.97502  0.66484  1.0000
  H   H310      1.0  0.29348  0.80127  0.50917  1.0000
  H   H311      1.0  0.36142  0.91749  0.57667  1.0000
  H   H312      1.0  0.35447  0.94961  0.69683  1.0000
  H   H313      1.0  0.39996  0.93457  0.70913  1.0000
  H   H314      1.0  0.28959  0.73003  0.58950  1.0000
  H   H315      1.0  0.16299  0.92126  0.63978  1.0000
  C   C319      1.0  0.19244  0.95003  0.68730  1.0000
  C   C320      1.0  0.16479  0.95177  0.69029  1.0000
  C   C321      1.0  0.15235  0.94179  0.71306  1.0000
  C   C322      1.0  0.16755  0.93005  0.73300  1.0000
  C   C323      1.0  0.19515  0.92825  0.72996  1.0000
  C   C324      1.0  0.20754  0.93810  0.70716  1.0000
  H   H316      1.0  0.13105  0.94328  0.71523  1.0000
  H   H317      1.0  0.20472  0.54338  0.71439  1.0000
  H   H318      1.0  0.22879  0.93664  0.70517  1.0000
  H   H319      1.0  0.35360  0.88044  0.74151  1.0000
  H   H320      1.0  0.11294  0.55805  0.64589  1.0000
  S   S111      1.0  0.02739  0.61977  0.66550  1.0000
  C   C325      1.0  0.16360  0.57356  0.52099  1.0000
  C   C326      1.0  0.26600  0.56168  0.71483  1.0000
  S   S112      1.0  0.24564  0.52204  0.53741  1.0000
  H   H321      1.0  0.28547  0.56598  0.53410  1.0000
  C   C327      1.0  0.33942  0.53102  0.75111  1.0000
  S   S113      1.0  0.40129  0.80888  0.51646  1.0000
  S   S114      1.0  0.32191  0.99269  0.71736  1.0000
  C   C328      1.0  0.35523  0.62265  0.55146  1.0000
  C   C329      1.0  0.36216  0.86704  0.72727  1.0000
  C   C330      1.0  0.28244  0.78344  0.51602  1.0000
  C   C331      1.0  0.39980  0.96761  0.64712  1.0000
  H   H322      1.0  0.19150  0.90408  0.65160  1.0000
  C   C332      1.0  0.28502  0.75440  0.55475  1.0000
  H   H323      1.0  0.35080  0.62034  0.57283  1.0000
  S   S115      1.0  0.33189  0.84426  0.52471  1.0000
  N   N25       1.0  0.15412  0.88999  0.66651  1.0000
  C   C333      1.0  0.12721  0.88830  0.66310  1.0000
  C   C334      1.0  0.16570  0.88080  0.68921  1.0000
  H   H324      1.0  0.28910  0.82051  0.55262  1.0000
  C   C335      1.0  0.15019  0.86982  0.70933  1.0000
  C   C336      1.0  0.12278  0.86790  0.70593  1.0000
  C   C337      1.0  0.17046  0.90136  0.64539  1.0000
  C   C338      1.0  0.11114  0.87719  0.68272  1.0000
  H   H325      1.0  0.34736  0.88933  0.69379  1.0000
  C   C339      1.0  0.28938  0.80065  0.56065  1.0000
  C   C340      1.0  0.32877  0.53825  0.70523  1.0000
  H   H326      1.0  0.15763  0.54391  0.63097  1.0000
  H   H327      1.0  0.29720  0.81403  0.60029  1.0000
  C   C341      1.0  0.38564  0.83437  0.69041  1.0000
  H   H328      1.0  0.28116  0.73765  0.54208  1.0000
  S   S116      1.0  0.32277  0.71514  0.51391  1.0000
  C   C342      1.0  0.35842  0.93898  0.57995  1.0000
  H   H329      1.0  0.48685  0.79894  0.59350  1.0000
  N   N26       1.0  0.37393  0.94854  0.60249  1.0000
  H   H330      1.0  0.19576  0.54590  0.66197  1.0000
  N   N27       1.0  0.17283  0.56125  0.69360  1.0000
  C   C343      1.0  0.02395  0.75939  0.72175  1.0000
  S   S117      1.0  0.48017  0.85473  0.69742  1.0000
  N   N28       1.0  0.28601  0.77938  0.54445  1.0000
  C   C344      1.0  0.40533  0.96409  0.73912  1.0000
  C   C345      1.0  0.29375  0.79707  0.58769  1.0000
  H   H331      1.0  0.18697  0.88250  0.69220  1.0000
  C   C346      1.0  0.38163  0.93138  0.62199  1.0000
  H   H332      1.0  0.11799  0.89563  0.64516  1.0000
  H   H333      1.0  0.29798  0.76843  0.61899  1.0000
  C   C347      1.0  0.48199  0.86287  0.60019  1.0000
  C   C348      1.0  0.17621  0.55184  0.66860  1.0000
  H   H334      1.0  0.21132  0.57615  0.70185  1.0000
  C   C349      1.0  0.27281  0.56626  0.74152  1.0000
  H   H335      1.0  0.36872  0.86025  0.66099  1.0000
  H   H336      1.0  0.14556  0.57705  0.72158  1.0000
  H   H337      1.0  0.27638  0.58627  0.74808  1.0000
  C   C350      1.0  0.19599  0.56327  0.71105  1.0000
  H   H338      1.0  0.32514  0.55152  0.68875  1.0000
  C   C351      1.0  0.12959  0.55815  0.65953  1.0000
  S   S118      1.0  0.39784  0.74347  0.51383  1.0000
  C   C352      1.0  0.33615  0.54830  0.72976  1.0000
  C   C353      1.0  0.02000  0.77691  0.74291  1.0000
  H   H339      1.0  0.04122  0.75555  0.68324  1.0000
  H   H340      1.0  0.16212  0.59302  0.52981  1.0000
  H   H341      1.0  0.11050  0.85936  0.72133  1.0000
  H   H342      1.0  0.15293  0.96097  0.67498  1.0000
  C   C354      1.0  0.03793  0.76861  0.69971  1.0000
  C   C355      1.0  0.17227  0.55228  0.53623  1.0000
  H   H343      1.0  0.33830  0.56943  0.73253  1.0000
  C   C356      1.0  0.14825  0.56895  0.70202  1.0000
  Fe  Fe59      1.0  0.29828  0.98523  0.62084  1.0000
  Fe  Fe60      1.0  0.46048  0.85868  0.73703  1.0000
  C   C357      1.0  0.37064  0.85591  0.68188  1.0000
  H   H344      1.0  0.15926  0.86341  0.72771  1.0000
  H   H345      1.0  0.08975  0.87584  0.68013  1.0000
  H   H346      1.0  0.28247  0.67558  0.51864  1.0000
  H   H347      1.0  0.18710  0.98612  0.74630  1.0000
  C   C358      1.0  0.48796  0.88346  0.61757  1.0000
  Fe  Fe61      1.0  0.35370  0.74752  0.51849  1.0000
  C   C359      1.0  0.01245  0.72807  0.61439  1.0000
  C   C360      1.0  0.17407  0.52730  0.52493  1.0000
  H   H348      1.0  0.33696  0.94258  0.58353  1.0000
  H   H349      1.0  0.32158  0.58340  0.56250  1.0000
  H   H350      1.0  0.40032  0.92711  0.66016  1.0000
  C   C361      1.0  0.37873  0.97504  0.60490  1.0000
  C   C362      1.0  0.25354  0.99603  0.74163  1.0000
  H   H351      1.0  0.18157  0.51079  0.53644  1.0000
  N   N29       1.0  0.33279  0.61368  0.53530  1.0000
  C   C363      1.0  0.02979  0.80315  0.74212  1.0000
  H   H352      1.0  0.47072  0.82170  0.57195  1.0000
  H   H353      1.0  0.10700  0.57447  0.69156  1.0000
  C   C364      1.0  0.39183  0.98496  0.62717  1.0000
  C   C365      1.0  0.31782  0.59260  0.54349  1.0000
  H   H354      1.0  0.17008  0.88835  0.62784  1.0000
  Fe  Fe62      1.0  0.50286  0.89158  0.70806  1.0000
  H   H355      1.0  0.17780  0.55523  0.55671  1.0000
  S   S119      1.0  0.43754  0.95438  0.74858  1.0000
  C   C366      1.0  0.29726  0.58280  0.52763  1.0000
  N   N30       1.0  0.49518  0.83933  0.60191  1.0000
  H   H356      1.0  0.37324  0.61110  0.54665  1.0000
  H   H357      1.0  0.20702  0.91914  0.74532  1.0000
  C   C367      1.0  0.32782  0.62553  0.51148  1.0000
  S   S120      1.0  0.27561  0.00080  0.65551  1.0000
  C   C368      1.0  0.32485  0.51115  0.70231  1.0000
  C   C369      1.0  0.26322  0.51502  0.72427  1.0000
  H   H358      1.0  0.50590  0.81641  0.56866  1.0000
  H   H359      1.0  0.40126  0.81348  0.72397  1.0000
  H   H360      1.0  0.26107  0.78580  0.51128  1.0000
  C   C370      1.0  0.20574  0.99374  0.73870  1.0000
  C   C371      1.0  0.36819  0.99391  0.74517  1.0000
  H   H361      1.0  0.01102  0.55733  0.69715  1.0000
  C   C372      1.0  0.22940  0.98669  0.75143  1.0000
  H   H362      1.0  0.27218  0.99061  0.75104  1.0000
  H   H363      1.0  0.01216  0.50825  0.69940  1.0000
  H   H364      1.0  0.16407  0.00555  0.71114  1.0000
  C   C373      1.0  0.50776  0.87999  0.63654  1.0000
  H   H365      1.0  0.39498  0.00603  0.62932  1.0000
  H   H366      1.0  0.34003  0.64695  0.97188  1.0000
  C   C374      1.0  0.27780  0.84436  0.97721  1.0000
  H   H367      1.0  0.50277  0.71709  0.85618  1.0000
  C   C375      1.0  0.49576  0.74728  0.88524  1.0000
  Fe  Fe63      1.0  0.18823  0.81138  0.98271  1.0000
  S   S121      1.0  0.19553  0.85438  0.97731  1.0000
  C   C376      1.0  0.32858  0.61462  0.93232  1.0000
  Fe  Fe64      1.0  0.15284  0.85842  0.96667  1.0000
  S   S122      1.0  0.14969  0.88639  0.93210  1.0000
  S   S123      1.0  0.14517  0.81479  0.96946  1.0000
  Fe  Fe65      1.0  0.06801  0.89330  0.80586  1.0000
  S   S124      1.0  0.03413  0.89790  0.77729  1.0000
  S   S125      1.0  0.05910  0.87623  0.84606  1.0000
  N   N31       1.0  0.48969  0.77322  0.88955  1.0000
  Fe  Fe66      1.0  0.05331  0.93730  0.76752  1.0000
  S   S126      1.0  0.09400  0.87227  0.77714  1.0000
  S   S127      1.0  0.08551  0.93336  0.79800  1.0000
  Fe  Fe67      1.0  0.41199  0.77507  0.90089  1.0000
  S   S128      1.0  0.41721  0.77141  0.94499  1.0000
  S   S129      1.0  0.42502  0.81338  0.88147  1.0000
  Fe  Fe68      1.0  0.38988  0.71949  0.89634  1.0000
  S   S130      1.0  0.39409  0.71169  0.93969  1.0000
  S   S131      1.0  0.37084  0.69155  0.86724  1.0000
  Fe  Fe69      1.0  0.37629  0.75238  0.94431  1.0000
  S   S132      1.0  0.34275  0.76034  0.97420  1.0000
  Fe  Fe70      1.0  0.43453  0.73132  0.93620  1.0000
  S   S133      1.0  0.47289  0.71044  0.95057  1.0000
  S   S134      1.0  0.37034  0.75907  0.90102  1.0000
  S   S135      1.0  0.43095  0.73616  0.89212  1.0000
  Fe  Fe71      1.0  0.34559  0.54091  0.87068  1.0000
  S   S136      1.0  0.30125  0.54533  0.87077  1.0000
  S   S137      1.0  0.37341  0.56886  0.89189  1.0000
  Fe  Fe72      1.0  0.30330  0.53031  0.82854  1.0000
  C   C377      1.0  0.49888  0.73786  0.85954  1.0000
  C   C378      1.0  0.38171  0.84173  0.76374  1.0000
  C   C379      1.0  0.48576  0.78259  0.91654  1.0000
  C   C380      1.0  0.37322  0.65734  0.87312  1.0000
  C   C381      1.0  0.38827  0.64742  0.89411  1.0000
  C   C382      1.0  0.38877  0.62012  0.89915  1.0000
  C   C383      1.0  0.37387  0.60265  0.88355  1.0000
  C   C384      1.0  0.35882  0.61255  0.86253  1.0000
  C   C385      1.0  0.35873  0.63982  0.85718  1.0000
  H   H368      1.0  0.39959  0.66075  0.90641  1.0000
  H   H369      1.0  0.40049  0.61254  0.91540  1.0000
  H   H370      1.0  0.34728  0.59920  0.85041  1.0000
  H   H371      1.0  0.34707  0.64741  0.84089  1.0000
  C   C386      1.0  0.48803  0.79060  0.86889  1.0000
  H   H372      1.0  0.26625  0.84831  0.95955  1.0000
  C   C387      1.0  0.12386  0.88361  0.90892  1.0000
  C   C388      1.0  0.12537  0.89854  0.88562  1.0000
  C   C389      1.0  0.10571  0.89616  0.86611  1.0000
  C   C390      1.0  0.08412  0.87923  0.87009  1.0000
  C   C391      1.0  0.08241  0.86453  0.89355  1.0000
  C   C392      1.0  0.10240  0.86650  0.91287  1.0000
  H   H373      1.0  0.14197  0.91179  0.88250  1.0000
  H   H374      1.0  0.10724  0.90750  0.84806  1.0000
  H   H375      1.0  0.06569  0.85144  0.89669  1.0000
  H   H376      1.0  0.10115  0.85492  0.93080  1.0000
  C   C393      1.0  0.25345  0.78106  0.96357  1.0000
  C   C394      1.0  0.26978  0.77716  0.94141  1.0000
  C   C395      1.0  0.29702  0.77090  0.94420  1.0000
  C   C396      1.0  0.30829  0.76776  0.96930  1.0000
  H   H377      1.0  0.01818  0.64707  0.78944  1.0000
  C   C397      1.0  0.05015  0.97425  0.85858  1.0000
  H   H378      1.0  0.26131  0.77903  0.92186  1.0000
  H   H379      1.0  0.30923  0.76846  0.92689  1.0000
  S   S138      1.0  0.34804  0.52891  0.82818  1.0000
  H   H380      1.0  0.39864  0.85433  0.77019  1.0000
  H   H381      1.0  0.06732  0.98040  0.87000  1.0000
  H   H382      1.0  0.17520  0.92413  0.99835  1.0000
  C   C398      1.0  0.44192  0.81943  0.79268  1.0000
  C   C399      1.0  0.43286  0.79553  0.80364  1.0000
  C   C400      1.0  0.42701  0.79354  0.83071  1.0000
  C   C401      1.0  0.43029  0.81549  0.84705  1.0000
  C   C402      1.0  0.43919  0.83943  0.83605  1.0000
  C   C403      1.0  0.44492  0.84144  0.80895  1.0000
  H   H383      1.0  0.43042  0.77841  0.79117  1.0000
  H   H384      1.0  0.42022  0.77498  0.83896  1.0000
  H   H385      1.0  0.44181  0.85649  0.84857  1.0000
  H   H386      1.0  0.45184  0.85997  0.80073  1.0000
  C   C404      1.0  0.03259  0.99300  0.84844  1.0000
  N   N32       1.0  0.32732  0.64357  0.93188  1.0000
  H   H387      1.0  0.48898  0.79564  0.82659  1.0000
  C   C405      1.0  0.02378  0.93990  0.83846  1.0000
  C   C406      1.0  0.30355  0.83449  0.97531  1.0000
  H   H388      1.0  0.48338  0.81122  0.87231  1.0000
  H   H389      1.0  0.02117  0.77393  0.98957  1.0000
  H   H390      1.0  0.22343  0.50932  0.93600  1.0000
  H   H391      1.0  0.06747  0.79106  0.99238  1.0000
  H   H392      1.0  0.28964  0.52551  0.00398  1.0000
  H   H393      1.0  0.32477  0.71987  0.93134  1.0000
  H   H394      1.0  0.32475  0.60594  0.91254  1.0000
  C   C407      1.0  0.01805  0.69929  0.78417  1.0000
  S   S139      1.0  0.28479  0.55247  0.79304  1.0000
  C   C408      1.0  0.33252  0.68495  0.95445  1.0000
  N   N33       1.0  0.17657  0.83067  0.89381  1.0000
  C   C409      1.0  0.16327  0.84376  0.87417  1.0000
  C   C410      1.0  0.16595  0.80837  0.90492  1.0000
  C   C411      1.0  0.13879  0.83440  0.86496  1.0000
  C   C412      1.0  0.14128  0.79873  0.89651  1.0000
  C   C413      1.0  0.12763  0.81191  0.87642  1.0000
  C   C414      1.0  0.20177  0.84142  0.90360  1.0000
  H   H395      1.0  0.17124  0.86194  0.86598  1.0000
  H   H396      1.0  0.17636  0.79808  0.92066  1.0000
  H   H397      1.0  0.12808  0.84507  0.84966  1.0000
  H   H398      1.0  0.13270  0.78137  0.90579  1.0000
  H   H399      1.0  0.10825  0.80501  0.86998  1.0000
  H   H400      1.0  0.21505  0.84657  0.88692  1.0000
  H   H401      1.0  0.19790  0.85943  0.91540  1.0000
  H   H402      1.0  0.21245  0.82701  0.91638  1.0000
  S   S140      1.0  0.44914  0.82085  0.75860  1.0000
  C   C415      1.0  0.31786  0.82880  0.99823  1.0000
  H   H403      1.0  0.50174  0.75752  0.97030  1.0000
  H   H404      1.0  0.20735  0.96151  0.99809  1.0000
  H   H405      1.0  0.22901  0.97381  0.76857  1.0000
  C   C416      1.0  0.32504  0.69845  0.93160  1.0000
  H   H406      1.0  0.33788  0.69598  0.97202  1.0000
  S   S141      1.0  0.21889  0.78794  0.95868  1.0000
  C   C417      1.0  0.49122  0.78191  0.84296  1.0000
  S   S142      1.0  0.02670  0.97425  0.76508  1.0000
  C   C418      1.0  0.31854  0.68428  0.90896  1.0000
  C   C419      1.0  0.22163  0.51466  0.97814  1.0000
  C   C420      1.0  0.31958  0.65668  0.90950  1.0000
  H   H407      1.0  0.31489  0.64591  0.89164  1.0000
  H   H408      1.0  0.49736  0.73353  0.90169  1.0000
  H   H409      1.0  0.05903  0.93269  0.86168  1.0000
  H   H410      1.0  0.34405  0.53913  0.77035  1.0000
  C   C421      1.0  0.26671  0.84837  0.00212  1.0000
  H   H411      1.0  0.01118  0.72013  0.78448  1.0000
  C   C422      1.0  0.27549  0.54527  0.75969  1.0000
  H   H412      1.0  0.25252  0.78063  0.00596  1.0000
  H   H413      1.0  0.36393  0.84673  0.77557  1.0000
  H   H414      1.0  0.47701  0.76678  0.92909  1.0000
  H   H415      1.0  0.02615  0.69441  0.80398  1.0000
  H   H416      1.0  0.40462  0.99556  0.76745  1.0000
  H   H417      1.0  0.31218  0.83053  0.95615  1.0000
  H   H418      1.0  0.34873  0.60799  0.93839  1.0000
  H   H419      1.0  0.47159  0.79942  0.91693  1.0000
  C   C423      1.0  0.33373  0.65732  0.95420  1.0000
  C   C424      1.0  0.49638  0.75530  0.83829  1.0000
  H   H420      1.0  0.31362  0.69462  0.89081  1.0000
  C   C425      1.0  0.26478  0.77818  0.98868  1.0000
  H   H421      1.0  0.31369  0.60644  0.94623  1.0000
  H   H422      1.0  0.50503  0.78886  0.92517  1.0000
  Fe  Fe73      1.0  0.10847  0.91282  0.76606  1.0000
  H   H423      1.0  0.24674  0.85612  0.00354  1.0000
  H   H424      1.0  0.38692  0.82085  0.76819  1.0000
  H   H425      1.0  0.02634  0.81628  0.75851  1.0000
  S   S143      1.0  0.15304  0.91727  0.76190  1.0000
  C   C426      1.0  0.29185  0.77123  0.99146  1.0000
  C   C427      1.0  0.04559  0.94750  0.85384  1.0000
  C   C428      1.0  0.50641  0.71635  0.96117  1.0000
  H   H426      1.0  0.03421  0.69808  0.76931  1.0000
  H   H427      1.0  0.49824  0.74824  0.81821  1.0000
  H   H428      1.0  0.02058  0.91906  0.83463  1.0000
  H   H429      1.0  0.29220  0.52400  0.95507  1.0000
  C   C429      1.0  0.01081  0.98468  0.83342  1.0000
  H   H430      1.0  0.22775  0.53519  0.97736  1.0000
  H   H431      1.0  0.33761  0.82036  0.99685  1.0000
  H   H432      1.0  0.07065  0.00306  0.79107  1.0000
  C   C430      1.0  0.28631  0.50699  0.99394  1.0000
  S   S144      1.0  0.63554  0.28361  0.01050  1.0000
  H   H433      1.0  0.85465  0.04949  0.12221  1.0000
  S   S145      1.0  0.77925  0.03808  0.09618  1.0000
  Fe  Fe74      1.0  0.98741  0.11552  0.22705  1.0000
  H   H434      1.0  0.57016  0.45798  0.21968  1.0000
  S   S146      1.0  0.94472  0.10148  0.23191  1.0000
  H   H435      1.0  0.58914  0.24845  0.10657  1.0000
  C   C431      1.0  0.61297  0.36514  0.04750  1.0000
  C   C432      1.0  0.79743  0.01981  0.04735  1.0000
  C   C433      1.0  0.59892  0.37315  0.06986  1.0000
  Fe  Fe75      1.0  0.52409  0.34007  0.15652  1.0000
  S   S147      1.0  0.81795  0.02992  0.16499  1.0000
  C   C434      1.0  0.60496  0.22313  0.03677  1.0000
  C   C435      1.0  0.82897  0.08108  0.03699  1.0000
  S   S148      1.0  0.56099  0.32566  0.13559  1.0000
  H   H436      1.0  0.54371  0.25428  0.09348  1.0000
  H   H437      1.0  0.89053  0.08742  0.22040  1.0000
  H   H438      1.0  0.75338  0.06871  0.00723  1.0000
  C   C436      1.0  0.61995  0.23773  0.07949  1.0000
  C   C437      1.0  0.55162  0.46837  0.21695  1.0000
  S   S149      1.0  0.52468  0.34276  0.20079  1.0000
  H   H439      1.0  0.53293  0.24565  0.06109  1.0000
  S   S150      1.0  0.89487  0.01408  0.15682  1.0000
  H   H440      1.0  0.94824  0.03125  0.16533  1.0000
  S   S151      1.0  0.99461  0.15694  0.21236  1.0000
  H   H441      1.0  0.85598  0.05703  0.01483  1.0000
  C   C438      1.0  0.76585  0.05517  0.01820  1.0000
  C   C439      1.0  0.76542  0.05512  0.04611  1.0000
  C   C440      1.0  0.55732  0.38196  0.09327  1.0000
  C   C441      1.0  0.62567  0.22856  0.05424  1.0000
  C   C442      1.0  0.57873  0.22714  0.04472  1.0000
  Fe  Fe76      1.0  0.79918  0.01256  0.12828  1.0000
  H   H442      1.0  0.75269  0.06888  0.05628  1.0000
  C   C443      1.0  0.52814  0.45370  0.21263  1.0000
  H   H443      1.0  0.56034  0.34980  0.00836  1.0000
  C   C444      1.0  0.90793  0.03980  0.17647  1.0000
  C   C445      1.0  0.89169  0.05591  0.19184  1.0000
  C   C446      1.0  0.90314  0.07528  0.20824  1.0000
  C   C447      1.0  0.93083  0.07883  0.20919  1.0000
  C   C448      1.0  0.94693  0.06302  0.19343  1.0000
  C   C449      1.0  0.93552  0.04362  0.17716  1.0000
  H   H444      1.0  0.87039  0.05318  0.19148  1.0000
  H   H445      1.0  0.96824  0.06531  0.19416  1.0000
  H   H446      1.0  0.63594  0.24222  0.09315  1.0000
  C   C450      1.0  0.55818  0.29790  0.04991  1.0000
  C   C451      1.0  0.58239  0.30078  0.06312  1.0000
  C   C452      1.0  0.58291  0.30914  0.08946  1.0000
  C   C453      1.0  0.55927  0.31503  0.10267  1.0000
  C   C454      1.0  0.53503  0.31259  0.08938  1.0000
  C   C455      1.0  0.53450  0.30392  0.06308  1.0000
  H   H447      1.0  0.60072  0.29621  0.05322  1.0000
  H   H448      1.0  0.60172  0.31114  0.09964  1.0000
  H   H449      1.0  0.63453  0.36510  0.04739  1.0000
  C   C456      1.0  0.55127  0.49630  0.21864  1.0000
  N   N34       1.0  0.57328  0.23612  0.06952  1.0000
  C   C457      1.0  0.59346  0.24119  0.08694  1.0000
  H   H450      1.0  0.55305  0.40339  0.09159  1.0000
  C   C458      1.0  0.78107  0.03739  0.06093  1.0000
  H   H451      1.0  0.60928  0.21605  0.01709  1.0000
  H   H452      1.0  0.56277  0.22348  0.03077  1.0000
  H   H453      1.0  0.60971  0.35041  0.00789  1.0000
  C   C459      1.0  0.55792  0.36514  0.04801  1.0000
  C   C460      1.0  0.86811  0.05074  0.10494  1.0000
  C   C461      1.0  0.83376  0.07822  0.08429  1.0000
  H   H454      1.0  0.82685  0.08371  0.10375  1.0000
  N   N35       1.0  0.57174  0.37285  0.06996  1.0000
  H   H455      1.0  0.92096  0.01431  0.23279  1.0000
  H   H456      1.0  0.56888  0.37829  0.11167  1.0000
  S   S152      1.0  0.55674  0.28587  0.01741  1.0000
  C   C462      1.0  0.84989  0.06333  0.03432  1.0000
  H   H457      1.0  0.88498  0.06396  0.11008  1.0000
  C   C463      1.0  0.59902  0.35692  0.02520  1.0000
  N   N36       1.0  0.85417  0.06070  0.08151  1.0000
  C   C464      1.0  0.86248  0.05341  0.05694  1.0000
  H   H458      1.0  0.64612  0.22580  0.04805  1.0000
  H   H459      1.0  0.87877  0.03966  0.05472  1.0000
  S   S153      1.0  0.52885  0.41843  0.21632  1.0000
  H   H460      1.0  0.81860  0.08840  0.01962  1.0000
  C   C465      1.0  0.54560  0.23903  0.07787  1.0000
  H   H461      1.0  0.51670  0.31716  0.09943  1.0000
  H   H462      1.0  0.51567  0.30176  0.05296  1.0000
  H   H463      1.0  0.53792  0.21994  0.08554  1.0000
  H   H464      1.0  0.51386  0.18762  0.24551  1.0000
  H   H465      1.0  0.60988  0.37932  0.08723  1.0000
  C   C466      1.0  0.57133  0.35689  0.02538  1.0000
  C   C467      1.0  0.79751  0.01955  0.01943  1.0000
  H   H466      1.0  0.87594  0.03050  0.10177  1.0000
  H   H467      1.0  0.53829  0.37102  0.09569  1.0000
  C   C468      1.0  0.90124  0.01660  0.24101  1.0000
  H   H468      1.0  0.53639  0.36468  0.04814  1.0000
  C   C469      1.0  0.82089  0.08869  0.06211  1.0000
  H   H469      1.0  0.80415  0.10189  0.06442  1.0000
  H   H470      1.0  0.99884  0.19867  0.12667  1.0000
  H   H471      1.0  0.83028  0.02577  0.26794  1.0000
  S   S154      1.0  0.76223  0.46871  0.44567  1.0000
  S   S155      1.0  0.89289  0.34348  0.50467  1.0000
  C   C470      1.0  0.87149  0.03823  0.26998  1.0000
  C   C471      1.0  0.77356  0.34161  0.49020  1.0000
  C   C472      1.0  0.96544  0.23389  0.40737  1.0000
  S   S156      1.0  0.84489  0.37501  0.45425  1.0000
  S   S157      1.0  0.84238  0.30590  0.48748  1.0000
  C   C473      1.0  0.52948  0.46915  0.27824  1.0000
  C   C474      1.0  0.98656  0.31002  0.47670  1.0000
  C   C475      1.0  0.95948  0.30497  0.48196  1.0000
  C   C476      1.0  0.94994  0.27902  0.48311  1.0000
  H   H472      1.0  0.99691  0.20709  0.39619  1.0000
  C   C477      1.0  0.99155  0.22732  0.40073  1.0000
  H   H473      1.0  0.76221  0.02403  0.50292  1.0000
  H   H474      1.0  0.86777  0.05277  0.28514  1.0000
  N   N37       1.0  0.89655  0.03488  0.26022  1.0000
  C   C478      1.0  0.96784  0.25826  0.47828  1.0000
  C   C479      1.0  0.78122  0.34582  0.46402  1.0000
  H   H475      1.0  0.52925  0.17884  0.27678  1.0000
  H   H476      1.0  0.96076  0.23808  0.47898  1.0000
  C   C480      1.0  0.78678  0.44416  0.44849  1.0000
  C   C481      1.0  0.79018  0.43084  0.47261  1.0000
  C   C482      1.0  0.80870  0.41022  0.47504  1.0000
  C   C483      1.0  0.82364  0.40260  0.45318  1.0000
  C   C484      1.0  0.82070  0.41638  0.42927  1.0000
  C   C485      1.0  0.80243  0.43718  0.42694  1.0000
  H   H477      1.0  0.77821  0.43629  0.48939  1.0000
  Fe  Fe77      1.0  0.85112  0.34947  0.49053  1.0000
  H   H478      1.0  0.83222  0.41057  0.41230  1.0000
  H   H479      1.0  0.79995  0.44734  0.40828  1.0000
  N   N38       1.0  0.75470  0.35722  0.50156  1.0000
  C   C486      1.0  0.99494  0.26331  0.47289  1.0000
  H   H480      1.0  0.91884  0.26576  0.40163  1.0000
  C   C487      1.0  0.84313  0.48653  0.45595  1.0000
  H   H481      1.0  0.91307  0.07199  0.27101  1.0000
  H   H482      1.0  0.97264  0.29913  0.41715  1.0000
  C   C488      1.0  0.52215  0.49567  0.27896  1.0000
  C   C489      1.0  0.57522  0.48225  0.28422  1.0000
  Fe  Fe78      1.0  0.76457  0.49864  0.41234  1.0000
  H   H483      1.0  0.92960  0.28543  0.42930  1.0000
  H   H484      1.0  0.75654  0.01552  0.27841  1.0000
  H   H485      1.0  0.92315  0.25120  0.43412  1.0000
  H   H486      1.0  0.79692  0.33411  0.45535  1.0000
  H   H487      1.0  0.78303  0.32602  0.50150  1.0000
  C   C490      1.0  0.74961  0.38136  0.46092  1.0000
  H   H488      1.0  0.60986  0.21723  0.47167  1.0000
  H   H489      1.0  0.51471  0.45398  0.27428  1.0000
  H   H490      1.0  0.94605  0.32122  0.48529  1.0000
  H   H491      1.0  0.93673  0.04907  0.25888  1.0000
  C   C491      1.0  0.91843  0.05070  0.27100  1.0000
  C   C492      1.0  0.85027  0.02309  0.26043  1.0000
  C   C493      1.0  0.76916  0.36584  0.44935  1.0000
  H   H492      1.0  0.95049  0.21845  0.40795  1.0000
  C   C494      1.0  0.00399  0.27301  0.40589  1.0000
  C   C495      1.0  0.00455  0.28930  0.47225  1.0000
  H   H493      1.0  0.59600  0.47683  0.28546  1.0000
  S   S158      1.0  0.77267  0.49204  0.36934  1.0000
  N   N39       1.0  0.95886  0.25940  0.41322  1.0000
  C   C496      1.0  0.97768  0.27893  0.41226  1.0000
  H   H494      1.0  0.62190  0.23772  0.49842  1.0000
  H   H495      1.0  0.75644  0.28151  0.50213  1.0000
  C   C497      1.0  0.55616  0.46233  0.28094  1.0000
  H   H496      1.0  0.74067  0.39749  0.44986  1.0000
  H   H497      1.0  0.70925  0.26758  0.49750  1.0000
  H   H498      1.0  0.79269  0.49432  0.28476  1.0000
  C   C498      1.0  0.85688  0.48665  0.43213  1.0000
  H   H499      1.0  0.80510  0.49858  0.31805  1.0000
  H   H500      1.0  0.77561  0.36987  0.42933  1.0000
  H   H501      1.0  0.83608  0.46804  0.46431  1.0000
  C   C499      1.0  0.93127  0.26577  0.41974  1.0000
  H   H502      1.0  0.81090  0.39976  0.49355  1.0000
  H   H503      1.0  0.58825  0.22667  0.49853  1.0000
  H   H504      1.0  0.00846  0.24710  0.46962  1.0000
  C   C500      1.0  0.74252  0.37671  0.48720  1.0000
  C   C501      1.0  0.60883  0.22072  0.49321  1.0000
  H   H505      1.0  0.99366  0.33021  0.47619  1.0000
  S   S159      1.0  0.91593  0.27155  0.49003  1.0000
  H   H506      1.0  0.92314  0.04423  0.29141  1.0000
  H   H507      1.0  0.72750  0.38905  0.49610  1.0000
  Fe  Fe79      1.0  0.88378  0.30042  0.50440  1.0000
  H   H508      1.0  0.56206  0.44181  0.27926  1.0000
  H   H509      1.0  0.86043  0.46825  0.42183  1.0000
  H   H510      1.0  0.77106  0.50562  0.31051  1.0000
  H   H511      1.0  0.51087  0.23362  0.25942  1.0000
  C   C502      1.0  0.51010  0.18141  0.26624  1.0000
  C   C503      1.0  0.79163  0.50679  0.30265  1.0000
  N   N40       1.0  0.58273  0.24996  0.69247  1.0000
  C   C504      1.0  0.71723  0.27166  0.51688  1.0000
  H   H512      1.0  0.92826  0.26592  0.55517  1.0000
  Fe  Fe80      1.0  0.67971  0.05485  0.64073  1.0000
  S   S160      1.0  0.71634  0.03069  0.64842  1.0000
  S   S161      1.0  0.68560  0.09333  0.61861  1.0000
  H   H513      1.0  0.58333  0.20812  0.69221  1.0000
  H   H514      1.0  0.76636  0.05247  0.72048  1.0000
  S   S162      1.0  0.66215  0.04607  0.68054  1.0000
  C   C505      1.0  0.94493  0.30505  0.55153  1.0000
  Fe  Fe81      1.0  0.60745  0.22283  0.61017  1.0000
  S   S163      1.0  0.60982  0.21466  0.56716  1.0000
  S   S164      1.0  0.61189  0.19192  0.64202  1.0000
  Fe  Fe82      1.0  0.59256  0.27950  0.60101  1.0000
  S   S165      1.0  0.59355  0.27557  0.55667  1.0000
  S   S166      1.0  0.58657  0.31831  0.62215  1.0000
  Fe  Fe83      1.0  0.57136  0.23719  0.56337  1.0000
  S   S167      1.0  0.54041  0.21738  0.53606  1.0000
  Fe  Fe84      1.0  0.63190  0.25340  0.56362  1.0000
  S   S168      1.0  0.66697  0.25776  0.53459  1.0000
  S   S169      1.0  0.56787  0.24299  0.60717  1.0000
  S   S170      1.0  0.63205  0.25981  0.60744  1.0000
  Fe  Fe85      1.0  0.95148  0.43600  0.73996  1.0000
  S   S171      1.0  0.90694  0.43899  0.74086  1.0000
  S   S172      1.0  0.97827  0.46903  0.72305  1.0000
  Fe  Fe86      1.0  0.82750  0.30983  0.52930  1.0000
  Fe  Fe87      1.0  0.90735  0.39822  0.72346  1.0000
  S   S173      1.0  0.87518  0.38877  0.69372  1.0000
  S   S174      1.0  0.95180  0.39590  0.71996  1.0000
  H   H515      1.0  0.57948  0.30163  0.73449  1.0000
  C   C506      1.0  0.60806  0.29759  0.70319  1.0000
  S   S175      1.0  0.83454  0.35397  0.53133  1.0000
  C   C507      1.0  0.94691  0.44275  0.66102  1.0000
  Fe  Fe88      1.0  0.87571  0.34360  0.54548  1.0000
  S   S176      1.0  0.90407  0.36208  0.57501  1.0000
  S   S177      1.0  0.86816  0.29993  0.54610  1.0000
  C   C508      1.0  0.88346  0.37984  0.66113  1.0000
  C   C509      1.0  0.86315  0.37397  0.64302  1.0000
  C   C510      1.0  0.86916  0.36782  0.61666  1.0000
  C   C511      1.0  0.89555  0.36794  0.60821  1.0000
  C   C512      1.0  0.91586  0.37363  0.62637  1.0000
  C   C513      1.0  0.90987  0.37923  0.65281  1.0000
  H   H516      1.0  0.84267  0.37429  0.64936  1.0000
  H   H517      1.0  0.85337  0.36347  0.60282  1.0000
  H   H518      1.0  0.93632  0.37356  0.61999  1.0000
  H   H519      1.0  0.92564  0.38308  0.66675  1.0000
  C   C514      1.0  0.70068  0.26865  0.53910  1.0000
  C   C515      1.0  0.71153  0.27394  0.56400  1.0000
  C   C516      1.0  0.73843  0.28177  0.56657  1.0000
  C   C517      1.0  0.75502  0.28467  0.54440  1.0000
  H   H520      1.0  0.73168  0.33622  0.52966  1.0000
  H   H521      1.0  0.74649  0.28554  0.58601  1.0000
  H   H522      1.0  0.69928  0.27172  0.58135  1.0000
  H   H523      1.0  0.51504  0.28980  0.68131  1.0000
  H   H524      1.0  0.63672  0.13656  0.55030  1.0000
  H   H525      1.0  0.94706  0.35490  0.53402  1.0000
  C   C518      1.0  0.66418  0.12010  0.62478  1.0000
  C   C519      1.0  0.66523  0.14243  0.60828  1.0000
  C   C520      1.0  0.64889  0.16434  0.61307  1.0000
  C   C521      1.0  0.63167  0.16421  0.63466  1.0000
  C   C522      1.0  0.63056  0.14186  0.65110  1.0000
  C   C523      1.0  0.64660  0.11977  0.64606  1.0000
  H   H526      1.0  0.67896  0.14289  0.59194  1.0000
  H   H527      1.0  0.65011  0.18159  0.60049  1.0000
  H   H528      1.0  0.61727  0.14162  0.66780  1.0000
  H   H529      1.0  0.64564  0.10267  0.65886  1.0000
  C   C524      1.0  0.53471  0.32483  0.69551  1.0000
  C   C525      1.0  0.55561  0.34258  0.69140  1.0000
  C   C526      1.0  0.57204  0.33983  0.66926  1.0000
  C   C527      1.0  0.56810  0.31898  0.65153  1.0000
  C   C528      1.0  0.54810  0.30043  0.65644  1.0000
  C   C529      1.0  0.53121  0.30357  0.67818  1.0000
  H   H530      1.0  0.55850  0.35897  0.70473  1.0000
  H   H531      1.0  0.58755  0.35421  0.66558  1.0000
  H   H532      1.0  0.54479  0.28441  0.64280  1.0000
  H   H533      1.0  0.61069  0.24563  0.66137  1.0000
  C   C530      1.0  0.74548  0.04019  0.53860  1.0000
  C   C531      1.0  0.99253  0.28020  0.54047  1.0000
  C   C532      1.0  0.91587  0.47550  0.67609  1.0000
  C   C533      1.0  0.95832  0.48904  0.66082  1.0000
  H   H534      1.0  0.95212  0.42231  0.65753  1.0000
  H   H535      1.0  0.73480  0.06223  0.59852  1.0000
  C   C534      1.0  0.61664  0.28188  0.68238  1.0000
  S   S178      1.0  0.53088  0.40311  0.74374  1.0000
  H   H536      1.0  0.71915  0.07252  0.56858  1.0000
  H   H537      1.0  0.98243  0.35814  0.53598  1.0000
  C   C535      1.0  0.96521  0.46281  0.65582  1.0000
  H   H538      1.0  0.98483  0.45803  0.64858  1.0000
  C   C536      1.0  0.72536  0.05488  0.58011  1.0000
  C   C537      1.0  0.58675  0.28923  0.71866  1.0000
  Fe  Fe89      1.0  0.69703  0.01932  0.68711  1.0000
  H   H539      1.0  0.73851  0.37023  0.53825  1.0000
  C   C538      1.0  0.76136  0.07211  0.72884  1.0000
  C   C539      1.0  0.54266  0.39737  0.64714  1.0000
  C   C540      1.0  0.60594  0.01927  0.73446  1.0000
  C   C541      1.0  0.52690  0.40093  0.66941  1.0000
  C   C542      1.0  0.75748  0.01883  0.57866  1.0000
  N   N41       1.0  0.93403  0.49505  0.67115  1.0000
  Fe  Fe90      1.0  0.64347  0.01095  0.66030  1.0000
  H   H540      1.0  0.55952  0.41026  0.64356  1.0000
  C   C543      1.0  0.53701  0.37656  0.62991  1.0000
  H   H541      1.0  0.00811  0.31934  0.53562  1.0000
  H   H542      1.0  0.83342  0.38825  0.74830  1.0000
  H   H543      1.0  0.77082  0.08786  0.71680  1.0000
  S   S179      1.0  0.78890  0.29490  0.54920  1.0000
  C   C544      1.0  0.60382  0.25787  0.67744  1.0000
  H   H544      1.0  0.90763  0.43361  0.67521  1.0000
  H   H545      1.0  0.70724  0.04353  0.58550  1.0000
  H   H546      1.0  0.68270  0.05183  0.75294  1.0000
  C   C545      1.0  0.97709  0.50439  0.72337  1.0000
  H   H547      1.0  0.95955  0.25615  0.73730  1.0000
  H   H548      1.0  0.97095  0.24364  0.54505  1.0000
  H   H549      1.0  0.58980  0.14237  0.53583  1.0000
  H   H550      1.0  0.61747  0.31652  0.70694  1.0000
  H   H551      1.0  0.52910  0.33080  0.60713  1.0000
  C   C546      1.0  0.99067  0.30775  0.54059  1.0000
  H   H552      1.0  0.73376  0.05468  0.52798  1.0000
  H   H553      1.0  0.95736  0.30517  0.73873  1.0000
  C   C547      1.0  0.94608  0.27747  0.55159  1.0000
  S   S180      1.0  0.65784  0.02240  0.61981  1.0000
  C   C548      1.0  0.74410  0.27968  0.51944  1.0000
  C   C549      1.0  0.92201  0.44908  0.67107  1.0000
  H   H554      1.0  0.55083  0.22218  0.69755  1.0000
  H   H555      1.0  0.61586  0.03360  0.72102  1.0000
  C   C550      1.0  0.56984  0.22463  0.68677  1.0000
  H   H556      1.0  0.55735  0.25918  0.72483  1.0000
  H   H557      1.0  0.96287  0.35611  0.56585  1.0000
  C   C551      1.0  0.96493  0.34866  0.54538  1.0000
  H   H558      1.0  0.56540  0.22304  0.66534  1.0000
  H   H559      1.0  0.76416  0.34610  0.54111  1.0000
  N   N42       1.0  0.96695  0.31979  0.54571  1.0000
  H   H560      1.0  0.53141  0.41660  0.68328  1.0000
  N   N43       1.0  0.74365  0.03798  0.56545  1.0000
  H   H561      1.0  0.54981  0.37343  0.61304  1.0000
  C   C552      1.0  0.60493  0.15632  0.52959  1.0000
  H   H562      1.0  0.63279  0.28845  0.66982  1.0000
  H   H563      1.0  0.92619  0.31459  0.55568  1.0000
  C   C553      1.0  0.97002  0.26501  0.54589  1.0000
  C   C554      1.0  0.57421  0.26522  0.71298  1.0000
  C   C555      1.0  0.63125  0.15306  0.53765  1.0000
  H   H564      1.0  0.69360  0.00758  0.50896  1.0000
  Fe  Fe91      1.0  0.52000  0.36078  0.75171  1.0000
  C   C556      1.0  0.65039  0.17148  0.52988  1.0000
  C   C557      1.0  0.74679  0.35226  0.52894  1.0000
  C   C558      1.0  0.76166  0.02302  0.52431  1.0000
  H   H565      1.0  0.67084  0.16940  0.53637  1.0000
  H   H566      1.0  0.57731  0.18129  0.50897  1.0000
  H   H567      1.0  0.58549  0.01664  0.72648  1.0000
  N   N44       1.0  0.51635  0.35966  0.63488  1.0000
  H   H568      1.0  0.89657  0.48021  0.68416  1.0000
  H   H569      1.0  0.80419  0.04985  0.75048  1.0000
  H   H570      1.0  0.75498  0.01621  0.59976  1.0000
  C   C559      1.0  0.96459  0.26631  0.75538  1.0000
  H   H571      1.0  0.97283  0.50447  0.65712  1.0000
  H   H572      1.0  0.73940  0.07390  0.72719  1.0000
  S   S181      1.0  0.72053  0.01604  0.72633  1.0000
  H   H573      1.0  0.83129  0.42379  0.74695  1.0000
  S   S182      1.0  0.51140  0.32984  0.72072  1.0000
  H   H574      1.0  0.65843  0.01271  0.73371  1.0000
  H   H575      1.0  0.60489  0.02763  0.75461  1.0000
  C   C560      1.0  0.59800  0.17838  0.51433  1.0000
  C   C561      1.0  0.64280  0.19325  0.51454  1.0000
  H   H576      1.0  0.65768  0.20787  0.50922  1.0000
  C   C562      1.0  0.51055  0.33818  0.61642  1.0000
  C   C563      1.0  0.96313  0.29419  0.75617  1.0000
  N   N45       1.0  0.61675  0.19685  0.50765  1.0000
  H   H577      1.0  0.79378  0.07972  0.82863  1.0000
  C   C564      1.0  0.79295  0.06166  0.76426  1.0000
  H   H578      1.0  0.78755  0.49870  0.94355  1.0000
  Fe  Fe92      1.0  0.52328  0.36723  0.81116  1.0000
  S   S183      1.0  0.97457  0.34294  0.77944  1.0000
  S   S184      1.0  0.53468  0.40986  0.80828  1.0000
  Fe  Fe93      1.0  0.75177  0.48671  0.85089  1.0000
  S   S185      1.0  0.76249  0.47364  0.89187  1.0000
  C   C565      1.0  0.78735  0.07853  0.80826  1.0000
  Fe  Fe94      1.0  0.69251  0.48553  0.86229  1.0000
  S   S186      1.0  0.69844  0.47175  0.90391  1.0000
  H   H579      1.0  0.75187  0.02587  0.81821  1.0000
  Fe  Fe95      1.0  0.72898  0.44474  0.88695  1.0000
  S   S187      1.0  0.73274  0.40094  0.89316  1.0000
  S   S188      1.0  0.72032  0.45594  0.84506  1.0000
  Fe  Fe96      1.0  0.61497  0.27854  0.93717  1.0000
  S   S189      1.0  0.65774  0.27914  0.94963  1.0000
  S   S190      1.0  0.60692  0.27439  0.89391  1.0000
  Fe  Fe97      1.0  0.64476  0.31139  0.97699  1.0000
  Fe  Fe98      1.0  0.95064  0.37725  0.76071  1.0000
  Fe  Fe99      1.0  0.64441  0.25123  0.98150  1.0000
  H   H580      1.0  0.92246  0.26664  0.81747  1.0000
  S   S191      1.0  0.60296  0.31289  0.96190  1.0000
  S   S192      1.0  0.60235  0.24847  0.96703  1.0000
  C   C566      1.0  0.71794  0.02869  0.75926  1.0000
  H   H581      1.0  0.81975  0.05362  0.79688  1.0000
  Fe  Fe100     1.0  0.90963  0.41778  0.77973  1.0000
  S   S193      1.0  0.88559  0.42489  0.81665  1.0000
  H   H582      1.0  0.85285  0.49762  0.86822  1.0000
  Fe  Fe101     1.0  0.97432  0.15775  0.85577  1.0000
  S   S194      1.0  0.97279  0.14639  0.81296  1.0000
  S   S195      1.0  0.94120  0.15392  0.88554  1.0000
  Fe  Fe102     1.0  0.99093  0.18702  0.80618  1.0000
  H   H583      1.0  0.66071  0.42913  0.86094  1.0000
  C   C567      1.0  0.78122  0.40350  0.82454  1.0000
  S   S196      1.0  0.98968  0.19892  0.84851  1.0000
  Fe  Fe103     1.0  0.75860  0.11726  0.91376  1.0000
  S   S197      1.0  0.73310  0.08127  0.92037  1.0000
  S   S198      1.0  0.74758  0.16055  0.91741  1.0000
  Fe  Fe104     1.0  0.80271  0.08528  0.88748  1.0000
  S   S199      1.0  0.78032  0.04720  0.89283  1.0000
  S   S200      1.0  0.83905  0.08431  0.86119  1.0000
  Fe  Fe105     1.0  0.74437  0.06953  0.87854  1.0000
  S   S201      1.0  0.71423  0.06167  0.84480  1.0000
  Fe  Fe106     1.0  0.77165  0.06223  0.93417  1.0000
  S   S202      1.0  0.78097  0.03426  0.96940  1.0000
  S   S203      1.0  0.76732  0.10680  0.87182  1.0000
  S   S204      1.0  0.79651  0.09909  0.92907  1.0000
  C   C568      1.0  0.91324  0.13391  0.87891  1.0000
  C   C569      1.0  0.89139  0.13475  0.89600  1.0000
  C   C570      1.0  0.86848  0.11967  0.89080  1.0000
  C   C571      1.0  0.86734  0.10360  0.86848  1.0000
  C   C572      1.0  0.88918  0.10281  0.85137  1.0000
  C   C573      1.0  0.91206  0.11792  0.85653  1.0000
  H   H584      1.0  0.89214  0.14715  0.91330  1.0000
  H   H585      1.0  0.85173  0.12044  0.90406  1.0000
  H   H586      1.0  0.88845  0.09031  0.83414  1.0000
  H   H587      1.0  0.92883  0.11700  0.84335  1.0000
  H   H588      1.0  0.70416  0.13566  0.88850  1.0000
  C   C574      1.0  0.91306  0.19307  0.83513  1.0000
  H   H589      1.0  0.62340  0.36221  0.92456  1.0000
  H   H590      1.0  0.66343  0.40541  0.83452  1.0000
  H   H591      1.0  0.68216  0.40073  0.86415  1.0000
  C   C575      1.0  0.97330  0.25158  0.77738  1.0000
  C   C576      1.0  0.91958  0.24602  0.82268  1.0000
  S   S205      1.0  0.78127  0.49444  0.81827  1.0000
  C   C577      1.0  0.65537  0.21513  0.90312  1.0000
  N   N46       1.0  0.91429  0.20083  0.80931  1.0000
  S   S206      1.0  0.55273  0.35404  0.78091  1.0000
  H   H592      1.0  0.92125  0.25266  0.86463  1.0000
  H   H593      1.0  0.64789  0.23517  0.90440  1.0000
  S   S207      1.0  0.97671  0.21655  0.77457  1.0000
  C   C578      1.0  0.71641  0.04862  0.81199  1.0000
  C   C579      1.0  0.69683  0.05548  0.79322  1.0000
  C   C580      1.0  0.69770  0.04587  0.76704  1.0000
  H   H594      1.0  0.68399  0.22441  0.87303  1.0000
  H   H595      1.0  0.75259  0.10246  0.81397  1.0000
  H   H596      1.0  0.68092  0.06853  0.79896  1.0000
  C   C581      1.0  0.97045  0.30783  0.77903  1.0000
  C   C582      1.0  0.68706  0.19792  0.97325  1.0000
  C   C583      1.0  0.69321  0.17097  0.97583  1.0000
  C   C584      1.0  0.71214  0.15918  0.95925  1.0000
  C   C585      1.0  0.72519  0.17441  0.94017  1.0000
  C   C586      1.0  0.71943  0.20143  0.93805  1.0000
  C   C587      1.0  0.70036  0.21312  0.95439  1.0000
  C   C588      1.0  0.73739  0.02166  0.77806  1.0000
  H   H597      1.0  0.71660  0.13838  0.96118  1.0000
  H   H598      1.0  0.72958  0.21337  0.92346  1.0000
  H   H599      1.0  0.69607  0.23392  0.95243  1.0000
  C   C589      1.0  0.71373  0.38738  0.91894  1.0000
  C   C590      1.0  0.70817  0.36024  0.91911  1.0000
  C   C591      1.0  0.69216  0.34914  0.93893  1.0000
  C   C592      1.0  0.68213  0.36505  0.95902  1.0000
  C   C593      1.0  0.68785  0.39216  0.95894  1.0000
  C   C594      1.0  0.70342  0.40336  0.93882  1.0000
  H   H600      1.0  0.71609  0.34777  0.90378  1.0000
  H   H601      1.0  0.68803  0.32820  0.93891  1.0000
  H   H602      1.0  0.68024  0.40454  0.97449  1.0000
  H   H603      1.0  0.70780  0.42426  0.93899  1.0000
  C   C595      1.0  0.81046  0.47539  0.81798  1.0000
  C   C596      1.0  0.82772  0.47710  0.79637  1.0000
  C   C597      1.0  0.85104  0.46190  0.79571  1.0000
  C   C598      1.0  0.85735  0.44526  0.81689  1.0000
  C   C599      1.0  0.84037  0.44404  0.83871  1.0000
  C   C600      1.0  0.81685  0.45879  0.83912  1.0000
  H   H604      1.0  0.76775  0.40303  0.84125  1.0000
  C   C601      1.0  0.97822  0.29301  0.80134  1.0000
  H   H605      1.0  0.84514  0.43115  0.85511  1.0000
  H   H606      1.0  0.80369  0.45723  0.85580  1.0000
  C   C602      1.0  0.63734  0.47109  0.82728  1.0000
  C   C603      1.0  0.60993  0.46656  0.82600  1.0000
  C   C604      1.0  0.59951  0.44793  0.80832  1.0000
  C   C605      1.0  0.61646  0.43383  0.79179  1.0000
  C   C606      1.0  0.64380  0.43891  0.79259  1.0000
  C   C607      1.0  0.65423  0.45749  0.81029  1.0000
  H   H607      1.0  0.59674  0.47726  0.83888  1.0000
  H   H608      1.0  0.57839  0.44464  0.80743  1.0000
  H   H609      1.0  0.98382  0.30321  0.81922  1.0000
  H   H610      1.0  0.67528  0.46144  0.81058  1.0000
  C   C608      1.0  0.54099  0.32828  0.86336  1.0000
  C   C609      1.0  0.56016  0.31835  0.84622  1.0000
  C   C610      1.0  0.58000  0.30138  0.85567  1.0000
  C   C611      1.0  0.58095  0.29443  0.88238  1.0000
  C   C612      1.0  0.56149  0.30388  0.89953  1.0000
  C   C613      1.0  0.54140  0.32062  0.88996  1.0000
  H   H611      1.0  0.55979  0.32368  0.82569  1.0000
  H   H612      1.0  0.59489  0.29395  0.84232  1.0000
  H   H613      1.0  0.56181  0.29817  0.92009  1.0000
  C   C614      1.0  0.80459  0.38877  0.82511  1.0000
  N   N47       1.0  0.64063  0.39298  0.86774  1.0000
  C   C615      1.0  0.61764  0.38967  0.85364  1.0000
  C   C616      1.0  0.64258  0.38369  0.89304  1.0000
  C   C617      1.0  0.59601  0.37632  0.86473  1.0000
  C   C618      1.0  0.62150  0.36997  0.90464  1.0000
  C   C619      1.0  0.59807  0.36638  0.89037  1.0000
  C   C620      1.0  0.66281  0.40782  0.85628  1.0000
  H   H614      1.0  0.61592  0.39730  0.83368  1.0000
  H   H615      1.0  0.66051  0.38684  0.90440  1.0000
  H   H616      1.0  0.57780  0.37364  0.85351  1.0000
  C   C621      1.0  0.91896  0.23818  0.84909  1.0000
  H   H617      1.0  0.91511  0.20508  0.87585  1.0000
  H   H618      1.0  0.75316  0.00838  0.77247  1.0000
  H   H619      1.0  0.70134  0.17873  0.87092  1.0000
  H   H620      1.0  0.58151  0.35598  0.89921  1.0000
  N   N48       1.0  0.67494  0.16390  0.90030  1.0000
  H   H621      1.0  0.98614  0.25422  0.81778  1.0000
  S   S208      1.0  0.66241  0.35163  0.98439  1.0000
  H   H622      1.0  0.84165  0.49187  0.91541  1.0000
  C   C622      1.0  0.91208  0.18128  0.78817  1.0000
  C   C623      1.0  0.82206  0.39013  0.80371  1.0000
  C   C624      1.0  0.83498  0.40661  0.76014  1.0000
  S   S209      1.0  0.95427  0.41721  0.78039  1.0000
  C   C625      1.0  0.68443  0.13663  0.89824  1.0000
  S   S210      1.0  0.65014  0.49317  0.85078  1.0000
  H   H623      1.0  0.91316  0.16072  0.79591  1.0000
  H   H624      1.0  0.91817  0.23308  0.78242  1.0000
  H   H625      1.0  0.67015  0.12455  0.88671  1.0000
  C   C626      1.0  0.67558  0.20906  0.88544  1.0000
  S   S211      1.0  0.90617  0.37723  0.76252  1.0000
  S   S212      1.0  0.51733  0.35135  0.85231  1.0000
  H   H626      1.0  0.52648  0.32803  0.90328  1.0000
  C   C627      1.0  0.97959  0.26514  0.80058  1.0000
  C   C628      1.0  0.79340  0.42007  0.78151  1.0000
  Fe  Fe107     1.0  0.56141  0.39717  0.77560  1.0000
  H   H627      1.0  0.80942  0.37683  0.84226  1.0000
  C   C629      1.0  0.77557  0.41928  0.80262  1.0000
  H   H628      1.0  0.92873  0.18380  0.77401  1.0000
  C   C630      1.0  0.73676  0.03161  0.80411  1.0000
  C   C631      1.0  0.76437  0.09144  0.79995  1.0000
  H   H629      1.0  0.86416  0.46312  0.77891  1.0000
  C   C632      1.0  0.80186  0.06366  0.79036  1.0000
  S   S213      1.0  0.66231  0.21193  0.99341  1.0000
  H   H630      1.0  0.62993  0.20015  0.93379  1.0000
  C   C633      1.0  0.91711  0.22695  0.80293  1.0000
  C   C634      1.0  0.68520  0.18318  0.88427  1.0000
  Fe  Fe108     1.0  0.59448  0.28298  0.99352  1.0000
  H   H631      1.0  0.68708  0.12774  0.91815  1.0000
  C   C635      1.0  0.91552  0.21156  0.85540  1.0000
  H   H632      1.0  0.65696  0.42828  0.77961  1.0000
  H   H633      1.0  0.89294  0.18374  0.77756  1.0000
  H   H634      1.0  0.82294  0.49004  0.78001  1.0000
  C   C636      1.0  0.65514  0.16972  0.91773  1.0000
  N   N49       1.0  0.81639  0.40574  0.78235  1.0000
  H   H635      1.0  0.91044  0.17246  0.84025  1.0000
  C   C637      1.0  0.75604  0.08907  0.77373  1.0000
  C   C638      1.0  0.64514  0.19541  0.91948  1.0000
  Fe  Fe109     1.0  0.73090  0.50220  0.90490  1.0000
  H   H636      1.0  0.75781  0.43137  0.80222  1.0000
  H   H637      1.0  0.84059  0.37924  0.80459  1.0000
  H   H638      1.0  0.99364  0.06394  0.78398  1.0000
  H   H639      1.0  0.64736  0.15459  0.93080  1.0000
  S   S214      1.0  0.60433  0.40884  0.77099  1.0000
  H   H640      1.0  0.68314  0.15913  0.99054  1.0000
  C   C639      1.0  0.78168  0.03715  0.00458  1.0000
  H   H641      1.0  0.99066  0.01833  0.76611  1.0000
  H   H642      1.0  0.78900  0.43276  0.76479  1.0000
  H   H643      1.0  0.85570  0.40861  0.76747  1.0000
  H   H644      1.0  0.73781  0.09867  0.76761  1.0000
  C   C640      1.0  0.00885  0.02484  0.77547  1.0000
  C   C641      1.0  0.83014  0.50550  0.90347  1.0000
  N   N50       1.0  0.77013  0.07404  0.75636  1.0000
  C   C642      1.0  0.96161  0.84259  0.04116  1.0000
  S   S215      1.0  0.96442  0.65095  0.20897  1.0000
  S   S216      1.0  0.83400  0.98705  0.11880  1.0000
  H   H645      1.0  0.53499  0.62523  0.02641  1.0000
  S   S217      1.0  0.83548  0.96914  0.18173  1.0000
  S   S218      1.0  0.69041  0.65722  0.01967  1.0000
  Fe  Fe110     1.0  0.81447  0.95674  0.14466  1.0000
  S   S219      1.0  0.80776  0.91426  0.13295  1.0000
  S   S220      1.0  0.77815  0.98128  0.15238  1.0000
  Fe  Fe111     1.0  0.91501  0.76116  0.10802  1.0000
  S   S221      1.0  0.91967  0.73419  0.07321  1.0000
  S   S222      1.0  0.91793  0.75281  0.15199  1.0000
  Fe  Fe112     1.0  0.90107  0.80824  0.07343  1.0000
  S   S223      1.0  0.90440  0.78461  0.03621  1.0000
  S   S224      1.0  0.89718  0.85265  0.07087  1.0000
  Fe  Fe113     1.0  0.88155  0.75297  0.05815  1.0000
  S   S225      1.0  0.84871  0.72606  0.04067  1.0000
  Fe  Fe114     1.0  0.94209  0.76836  0.05429  1.0000
  S   S226      1.0  0.97897  0.76759  0.02731  1.0000
  S   S227      1.0  0.87591  0.77799  0.09422  1.0000
  S   S228      1.0  0.93963  0.79374  0.09025  1.0000
  Fe  Fe115     1.0  0.64882  0.65711  0.03610  1.0000
  S   S229      1.0  0.64710  0.70104  0.04123  1.0000
  S   S230      1.0  0.63238  0.62616  0.06394  1.0000
  H   H646      1.0  0.72687  0.00256  0.05647  1.0000
  S   S231      1.0  0.72115  0.72986  0.03474  1.0000
  H   H647      1.0  0.80980  0.00546  0.00919  1.0000
  H   H648      1.0  0.59371  0.67292  0.06510  1.0000
  Fe  Fe116     1.0  0.58848  0.62490  0.21369  1.0000
  S   S232      1.0  0.54399  0.62101  0.21444  1.0000
  S   S233      1.0  0.60890  0.65191  0.18414  1.0000
  H   H649      1.0  0.57692  0.62896  0.05225  1.0000
  H   H650      1.0  0.98556  0.73664  0.18899  1.0000
  C   C643      1.0  0.77064  0.70472  0.03185  1.0000
  S   S234      1.0  0.59623  0.58350  0.22908  1.0000
  N   N51       1.0  0.77822  0.94615  0.06098  1.0000
  H   H651      1.0  0.81709  0.93421  0.07169  1.0000
  C   C644      1.0  0.62582  0.63355  0.09730  1.0000
  C   C645      1.0  0.61332  0.61454  0.11329  1.0000
  C   C646      1.0  0.60782  0.61986  0.13995  1.0000
  C   C647      1.0  0.61490  0.64424  0.15075  1.0000
  C   C648      1.0  0.62717  0.66332  0.13467  1.0000
  C   C649      1.0  0.63259  0.65804  0.10804  1.0000
  H   H652      1.0  0.60805  0.59553  0.10512  1.0000
  H   H653      1.0  0.59839  0.60501  0.15218  1.0000
  H   H654      1.0  0.63284  0.68216  0.14296  1.0000
  H   H655      1.0  0.64243  0.67273  0.09599  1.0000
  C   C650      1.0  0.75650  0.72761  0.03810  1.0000
  C   C651      1.0  0.77095  0.75007  0.04620  1.0000
  C   C652      1.0  0.79902  0.74992  0.04753  1.0000
  C   C653      1.0  0.81318  0.72724  0.04066  1.0000
  Fe  Fe117     1.0  0.80049  0.99573  0.18832  1.0000
  H   H656      1.0  0.58760  0.71070  0.18787  1.0000
  N   N52       1.0  0.97968  0.83760  0.02177  1.0000
  H   H657      1.0  0.80970  0.76749  0.05350  1.0000
  C   C654      1.0  0.83366  0.89704  0.11733  1.0000
  C   C655      1.0  0.83120  0.86973  0.11341  1.0000
  C   C656      1.0  0.85091  0.85572  0.09981  1.0000
  C   C657      1.0  0.87293  0.86911  0.08958  1.0000
  C   C658      1.0  0.87533  0.89645  0.09342  1.0000
  C   C659      1.0  0.85592  0.91034  0.10752  1.0000
  H   H658      1.0  0.81396  0.85937  0.12089  1.0000
  H   H659      1.0  0.84882  0.83470  0.09679  1.0000
  H   H660      1.0  0.89233  0.90690  0.08556  1.0000
  H   H661      1.0  0.85805  0.93136  0.11048  1.0000
  C   C660      1.0  0.79872  0.70461  0.03306  1.0000
  C   C661      1.0  0.52838  0.66727  0.02554  1.0000
  C   C662      1.0  0.94929  0.67815  0.19299  1.0000
  C   C663      1.0  0.95146  0.68084  0.16548  1.0000
  C   C664      1.0  0.94166  0.70344  0.15244  1.0000
  C   C665      1.0  0.92960  0.72349  0.16693  1.0000
  C   C666      1.0  0.92684  0.72051  0.19430  1.0000
  C   C667      1.0  0.93655  0.69792  0.20727  1.0000
  H   H662      1.0  0.96119  0.66556  0.15425  1.0000
  H   H663      1.0  0.94382  0.70551  0.13131  1.0000
  H   H664      1.0  0.91742  0.73590  0.20564  1.0000
  H   H665      1.0  0.93470  0.69613  0.22839  1.0000
  H   H666      1.0  0.88415  0.98733  0.21512  1.0000
  C   C668      1.0  0.99329  0.72818  0.20714  1.0000
  C   C669      1.0  0.85488  0.00447  0.24085  1.0000
  H   H667      1.0  0.80934  0.68687  0.02782  1.0000
  Fe  Fe118     1.0  0.68759  0.70154  0.02172  1.0000
  H   H668      1.0  0.79179  0.90946  0.07639  1.0000
  H   H669      1.0  0.74120  0.98535  0.10017  1.0000
  H   H670      1.0  0.55740  0.67255  0.19313  1.0000
  S   S235      1.0  0.52466  0.54495  0.22217  1.0000
  H   H671      1.0  0.77399  0.94907  0.10266  1.0000
  C   C670      1.0  0.55056  0.69218  0.19803  1.0000
  H   H672      1.0  0.74608  0.98370  0.01562  1.0000
  H   H673      1.0  0.94071  0.83841  0.03804  1.0000
  H   H674      1.0  0.76033  0.76791  0.05114  1.0000
  C   C671      1.0  0.56752  0.71376  0.19500  1.0000
  N   N53       1.0  0.84419  0.73162  0.14044  1.0000
  C   C672      1.0  0.86215  0.71326  0.13211  1.0000
  C   C673      1.0  0.82022  0.73417  0.12790  1.0000
  C   C674      1.0  0.85613  0.69652  0.11108  1.0000
  C   C675      1.0  0.81335  0.71744  0.10708  1.0000
  C   C676      1.0  0.83147  0.69850  0.09869  1.0000
  C   C677      1.0  0.85123  0.74968  0.16187  1.0000
  H   H675      1.0  0.88138  0.71156  0.14157  1.0000
  H   H676      1.0  0.80632  0.74931  0.13385  1.0000
  H   H677      1.0  0.87066  0.68240  0.10416  1.0000
  H   H678      1.0  0.79437  0.71951  0.09709  1.0000
  H   H679      1.0  0.82674  0.68593  0.08204  1.0000
  H   H680      1.0  0.83348  0.75554  0.17335  1.0000
  H   H681      1.0  0.86547  0.74033  0.17588  1.0000
  C   C678      1.0  0.75156  0.97565  0.03478  1.0000
  S   S236      1.0  0.78197  0.00333  0.22925  1.0000
  H   H682      1.0  0.77942  0.94810  0.01890  1.0000
  H   H683      1.0  0.51192  0.67911  0.21082  1.0000
  C   C679      1.0  0.98621  0.73963  0.23118  1.0000
  C   C680      1.0  0.52397  0.76925  0.21694  1.0000
  C   C681      1.0  0.57149  0.71968  0.05542  1.0000
  H   H684      1.0  0.80349  0.91678  0.04378  1.0000
  C   C682      1.0  0.00599  0.84330  0.02558  1.0000
  C   C683      1.0  0.77057  0.95563  0.03680  1.0000
  C   C684      1.0  0.56591  0.64655  0.04673  1.0000
  H   H685      1.0  0.56308  0.73585  0.04307  1.0000
  C   C685      1.0  0.57531  0.67152  0.05396  1.0000
  Fe  Fe119     1.0  0.55154  0.58055  0.23239  1.0000
  C   C686      1.0  0.76765  0.95638  0.08352  1.0000
  S   S237      1.0  0.59081  0.64346  0.25385  1.0000
  C   C687      1.0  0.74075  0.98625  0.05769  1.0000
  H   H686      1.0  0.59336  0.72093  0.05294  1.0000
  H   H687      1.0  0.56641  0.72307  0.07639  1.0000
  H   H688      1.0  0.86085  0.76768  0.15361  1.0000
  C   C688      1.0  0.74885  0.97663  0.08223  1.0000
  C   C689      1.0  0.54236  0.64447  0.03232  1.0000
  N   N54       1.0  0.56163  0.69379  0.04699  1.0000
  H   H689      1.0  0.80529  0.95317  0.24857  1.0000
  H   H690      1.0  0.95534  0.85629  0.08087  1.0000
  N   N55       1.0  0.53332  0.74256  0.21092  1.0000
  C   C690      1.0  0.79863  0.92567  0.06314  1.0000
  C   C691      1.0  0.55848  0.73902  0.20146  1.0000
  C   C692      1.0  0.99671  0.85786  0.06982  1.0000
  H   H691      1.0  0.75996  0.68722  0.02575  1.0000
  C   C693      1.0  0.53826  0.69190  0.03327  1.0000
  H   H692      1.0  0.00488  0.70267  0.16464  1.0000
  Fe  Fe120     1.0  0.85152  0.00234  0.15676  1.0000
  C   C694      1.0  0.52494  0.69595  0.20761  1.0000
  H   H693      1.0  0.83853  0.99272  0.23337  1.0000
  H   H694      1.0  0.97320  0.75665  0.23154  1.0000
  C   C695      1.0  0.96982  0.85274  0.06547  1.0000
  H   H695      1.0  0.00339  0.86522  0.08878  1.0000
  H   H696      1.0  0.57181  0.75572  0.19917  1.0000
  N   N56       1.0  0.00886  0.70608  0.20662  1.0000
  Fe  Fe121     1.0  0.54699  0.63807  0.25530  1.0000
  Fe  Fe122     1.0  0.96179  0.64531  0.25342  1.0000
  C   C696      1.0  0.88046  0.00125  0.23091  1.0000
  H   H697      1.0  0.80967  0.00609  0.05831  1.0000
  H   H698      1.0  0.52740  0.70953  0.02763  1.0000
  C   C697      1.0  0.52727  0.51008  0.21643  1.0000
  H   H699      1.0  0.54046  0.78186  0.22445  1.0000
  C   C698      1.0  0.51652  0.72146  0.21385  1.0000
  H   H700      1.0  0.56944  0.50706  0.22242  1.0000
  C   C699      1.0  0.99567  0.72868  0.25469  1.0000
  H   H701      1.0  0.51017  0.66598  0.01407  1.0000
  H   H702      1.0  0.51530  0.77856  0.19906  1.0000
  Fe  Fe123     1.0  0.92628  0.63723  0.30099  1.0000
  S   S238      1.0  0.94107  0.67362  0.28017  1.0000
  S   S239      1.0  0.88425  0.63612  0.31582  1.0000
  Fe  Fe124     1.0  0.97671  0.66907  0.30616  1.0000
  C   C700      1.0  0.66258  0.94914  0.44705  1.0000
  S   S240      1.0  0.96018  0.63541  0.32949  1.0000
  H   H703      1.0  0.65318  0.93677  0.26598  1.0000
  H   H704      1.0  0.85414  0.57002  0.28185  1.0000
  C   C701      1.0  0.58820  0.52890  0.28685  1.0000
  S   S241      1.0  0.84308  0.52514  0.35622  1.0000
  S   S242      1.0  0.73182  0.52819  0.40508  1.0000
  H   H705      1.0  0.82040  0.60548  0.27908  1.0000
  Fe  Fe125     1.0  0.76471  0.55833  0.40593  1.0000
  S   S243      1.0  0.76623  0.59655  0.42823  1.0000
  S   S244      1.0  0.77193  0.55688  0.36249  1.0000
  Fe  Fe126     1.0  0.92205  0.73022  0.45233  1.0000
  S   S245      1.0  0.88658  0.71673  0.42988  1.0000
  S   S246      1.0  0.95565  0.75040  0.43154  1.0000
  Fe  Fe127     1.0  0.88751  0.68140  0.45641  1.0000
  S   S247      1.0  0.88318  0.64181  0.43663  1.0000
  Fe  Fe128     1.0  0.86298  0.73621  0.46163  1.0000
  S   S248      1.0  0.82677  0.75729  0.44539  1.0000
  S   S249      1.0  0.92564  0.69315  0.47634  1.0000
  S   S250      1.0  0.89872  0.75252  0.48253  1.0000
  Fe  Fe129     1.0  0.76265  0.93740  0.38439  1.0000
  S   S251      1.0  0.76272  0.89356  0.39254  1.0000
  S   S252      1.0  0.77747  0.94299  0.34146  1.0000
  Fe  Fe130     1.0  0.74160  0.94823  0.44183  1.0000
  S   S253      1.0  0.74036  0.90517  0.45202  1.0000
  S   S254      1.0  0.72470  0.97792  0.47180  1.0000
  Fe  Fe131     1.0  0.77996  0.90295  0.43202  1.0000
  S   S255      1.0  0.81549  0.88201  0.44992  1.0000
  Fe  Fe132     1.0  0.72323  0.90011  0.41140  1.0000
  S   S256      1.0  0.68965  0.87144  0.40430  1.0000
  S   S257      1.0  0.78266  0.94661  0.42354  1.0000
  S   S258      1.0  0.72178  0.94326  0.40181  1.0000
  C   C702      1.0  0.76682  0.99701  0.28135  1.0000
  S   S259      1.0  0.55112  0.83898  0.34319  1.0000
  C   C703      1.0  0.59995  0.66558  0.31980  1.0000
  Fe  Fe133     1.0  0.55791  0.87965  0.32685  1.0000
  S   S260      1.0  0.59615  0.90329  0.32696  1.0000
  S   S261      1.0  0.53583  0.87241  0.28896  1.0000
  C   C704      1.0  0.67498  0.88176  0.47520  1.0000
  S   S262      1.0  0.55001  0.59743  0.27349  1.0000
  N   N57       1.0  0.79929  0.53399  0.29622  1.0000
  C   C705      1.0  0.60162  0.69302  0.32153  1.0000
  C   C706      1.0  0.86547  0.51058  0.42136  1.0000
  C   C707      1.0  0.53515  0.76046  0.28300  1.0000
  H   H706      1.0  0.83854  0.87371  0.39209  1.0000
  H   H707      1.0  0.88460  0.77550  0.42822  1.0000
  H   H708      1.0  0.60588  0.52204  0.29812  1.0000
  H   H709      1.0  0.58062  0.54662  0.29724  1.0000
  H   H710      1.0  0.68816  0.87019  0.46205  1.0000
  H   H711      1.0  0.57290  0.75328  0.26452  1.0000
  H   H712      1.0  0.86096  0.59946  0.40655  1.0000
  C   C708      1.0  0.77894  0.96045  0.31060  1.0000
  S   S263      1.0  0.71672  0.52087  0.32520  1.0000
  C   C709      1.0  0.66742  0.92807  0.27955  1.0000
  C   C710      1.0  0.95318  0.65153  0.41372  1.0000
  H   H713      1.0  0.51136  0.66678  0.33191  1.0000
  C   C711      1.0  0.97573  0.61445  0.39255  1.0000
  C   C712      1.0  0.72173  0.89599  0.33513  1.0000
  H   H714      1.0  0.86614  0.55269  0.42563  1.0000
  C   C713      1.0  0.66325  0.88096  0.38358  1.0000
  C   C714      1.0  0.64263  0.86299  0.37863  1.0000
  C   C715      1.0  0.62143  0.86993  0.36195  1.0000
  C   C716      1.0  0.62077  0.89489  0.35014  1.0000
  C   C717      1.0  0.64105  0.91310  0.35561  1.0000
  C   C718      1.0  0.66228  0.90614  0.37222  1.0000
  H   H715      1.0  0.64319  0.84350  0.38745  1.0000
  H   H716      1.0  0.60594  0.85573  0.35776  1.0000
  H   H717      1.0  0.64059  0.93248  0.34653  1.0000
  H   H718      1.0  0.67788  0.92022  0.37601  1.0000
  C   C719      1.0  0.82265  0.79174  0.44895  1.0000
  C   C720      1.0  0.84123  0.80713  0.46254  1.0000
  C   C721      1.0  0.83830  0.83474  0.46343  1.0000
  C   C722      1.0  0.81681  0.84715  0.45079  1.0000
  C   C723      1.0  0.79791  0.83169  0.43770  1.0000
  C   C724      1.0  0.80086  0.80408  0.43677  1.0000
  H   H719      1.0  0.85795  0.79784  0.47219  1.0000
  H   H720      1.0  0.63515  0.87827  0.44082  1.0000
  H   H721      1.0  0.78127  0.84105  0.42792  1.0000
  H   H722      1.0  0.90716  0.84198  0.43102  1.0000
  C   C725      1.0  0.79898  0.60819  0.43168  1.0000
  C   C726      1.0  0.81948  0.59736  0.41672  1.0000
  C   C727      1.0  0.84531  0.60761  0.41858  1.0000
  C   C728      1.0  0.85079  0.62883  0.43538  1.0000
  C   C729      1.0  0.83034  0.63959  0.45045  1.0000
  C   C730      1.0  0.80450  0.62922  0.44868  1.0000
  H   H723      1.0  0.81534  0.58139  0.40332  1.0000
  H   H724      1.0  0.68285  0.52936  0.28025  1.0000
  H   H725      1.0  0.83433  0.65585  0.46353  1.0000
  H   H726      1.0  0.78872  0.63770  0.46030  1.0000
  C   C731      1.0  0.68944  0.54226  0.32020  1.0000
  C   C732      1.0  0.68068  0.55905  0.34013  1.0000
  C   C733      1.0  0.65856  0.57542  0.33578  1.0000
  C   C734      1.0  0.64522  0.57544  0.31141  1.0000
  C   C735      1.0  0.65418  0.55891  0.29131  1.0000
  C   C736      1.0  0.67612  0.54226  0.29578  1.0000
  H   H727      1.0  0.69071  0.55916  0.35903  1.0000
  H   H728      1.0  0.65173  0.58809  0.35146  1.0000
  H   H729      1.0  0.91252  0.79602  0.43556  1.0000
  C   C737      1.0  0.55097  0.71678  0.26894  1.0000
  C   C738      1.0  0.87434  0.60546  0.32869  1.0000
  C   C739      1.0  0.89075  0.58325  0.32759  1.0000
  C   C740      1.0  0.88138  0.55866  0.33673  1.0000
  C   C741      1.0  0.85578  0.55638  0.34731  1.0000
  C   C742      1.0  0.83991  0.57886  0.34909  1.0000
  C   C743      1.0  0.84898  0.60318  0.33950  1.0000
  H   H730      1.0  0.91044  0.58488  0.31924  1.0000
  H   H731      1.0  0.89385  0.54137  0.33523  1.0000
  H   H732      1.0  0.82040  0.57754  0.35727  1.0000
  H   H733      1.0  0.83615  0.62019  0.33994  1.0000
  C   C744      1.0  0.98448  0.71665  0.35326  1.0000
  C   C745      1.0  0.96080  0.70703  0.36422  1.0000
  C   C746      1.0  0.95162  0.71718  0.38836  1.0000
  C   C747      1.0  0.96598  0.73710  0.40129  1.0000
  C   C748      1.0  0.51176  0.74847  0.29196  1.0000
  C   C749      1.0  0.76566  0.98435  0.30627  1.0000
  H   H734      1.0  0.94973  0.69169  0.35422  1.0000
  H   H735      1.0  0.93349  0.70965  0.39686  1.0000
  N   N58       1.0  0.55373  0.66738  0.33117  1.0000
  H   H736      1.0  0.52628  0.63625  0.32350  1.0000
  N   N59       1.0  0.82363  0.67160  0.38946  1.0000
  C   C750      1.0  0.80349  0.65418  0.38430  1.0000
  C   C751      1.0  0.81922  0.69308  0.40513  1.0000
  C   C752      1.0  0.77838  0.65764  0.39547  1.0000
  C   C753      1.0  0.79447  0.69697  0.41690  1.0000
  C   C754      1.0  0.77399  0.67901  0.41211  1.0000
  C   C755      1.0  0.84975  0.66754  0.37742  1.0000
  H   H737      1.0  0.80696  0.63694  0.37225  1.0000
  H   H738      1.0  0.83486  0.70725  0.40896  1.0000
  H   H739      1.0  0.76278  0.64315  0.39218  1.0000
  H   H740      1.0  0.79138  0.71366  0.42990  1.0000
  H   H741      1.0  0.75488  0.68140  0.42159  1.0000
  H   H742      1.0  0.84955  0.67398  0.35645  1.0000
  H   H743      1.0  0.86564  0.67837  0.38813  1.0000
  H   H744      1.0  0.85545  0.64637  0.37827  1.0000
  H   H745      1.0  0.67102  0.96884  0.44850  1.0000
  C   C756      1.0  0.82540  0.53971  0.29144  1.0000
  Fe  Fe134     1.0  0.74221  0.52396  0.36207  1.0000
  N   N60       1.0  0.88198  0.81398  0.41187  1.0000
  S   S264      1.0  0.52032  0.67066  0.27222  1.0000
  H   H746      1.0  0.95941  0.60169  0.39837  1.0000
  C   C757      1.0  0.79323  0.94946  0.28947  1.0000
  H   H747      1.0  0.68961  0.93261  0.47535  1.0000
  S   S265      1.0  0.52265  0.89702  0.34691  1.0000
  C   C758      1.0  0.64243  0.89831  0.44326  1.0000
  S   S266      1.0  0.53911  0.79556  0.28134  1.0000
  H   H748      1.0  0.63351  0.95974  0.41756  1.0000
  Fe  Fe135     1.0  0.59415  0.60208  0.26934  1.0000
  C   C759      1.0  0.57924  0.70749  0.32861  1.0000
  C   C760      1.0  0.88956  0.83892  0.41904  1.0000
  C   C761      1.0  0.87419  0.86078  0.41180  1.0000
  H   H749      1.0  0.68703  0.88909  0.49208  1.0000
  H   H750      1.0  0.85322  0.79030  0.39198  1.0000
  N   N61       1.0  0.70316  0.90642  0.31542  1.0000
  C   C762      1.0  0.70947  0.92930  0.30244  1.0000
  C   C763      1.0  0.67962  0.89380  0.31045  1.0000
  C   C764      1.0  0.69176  0.94046  0.28426  1.0000
  C   C765      1.0  0.66129  0.90455  0.29264  1.0000
  H   H751      1.0  0.85352  0.57492  0.46535  1.0000
  H   H752      1.0  0.53796  0.70566  0.33878  1.0000
  H   H753      1.0  0.53597  0.53569  0.28127  1.0000
  C   C766      1.0  0.99637  0.60390  0.37751  1.0000
  S   S267      1.0  0.99773  0.70375  0.32405  1.0000
  S   S268      1.0  0.86104  0.69954  0.48679  1.0000
  N   N62       1.0  0.56783  0.50822  0.28505  1.0000
  H   H754      1.0  0.74101  0.89110  0.32578  1.0000
  C   C767      1.0  0.99574  0.65693  0.39078  1.0000
  C   C768      1.0  0.85121  0.85702  0.39685  1.0000
  C   C769      1.0  0.83959  0.55873  0.47084  1.0000
  H   H755      1.0  0.75454  0.99316  0.32215  1.0000
  N   N63       1.0  0.97573  0.64062  0.39917  1.0000
  C   C770      1.0  0.85957  0.81014  0.39704  1.0000
  H   H756      1.0  0.58018  0.72888  0.32978  1.0000
  C   C771      1.0  0.78766  0.57929  0.28804  1.0000
  H   H757      1.0  0.87946  0.88043  0.41850  1.0000
  C   C772      1.0  0.86010  0.53415  0.43461  1.0000
  S   S269      1.0  0.79623  0.52928  0.41630  1.0000
  N   N64       1.0  0.66294  0.90350  0.46023  1.0000
  H   H758      1.0  0.61721  0.65401  0.31437  1.0000
  C   C773      1.0  0.84386  0.83157  0.38931  1.0000
  C   C774      1.0  0.64157  0.94404  0.42978  1.0000
  H   H759      1.0  0.72818  0.93920  0.30637  1.0000
  H   H760      1.0  0.69684  0.95874  0.27418  1.0000
  C   C775      1.0  0.78042  0.55329  0.29424  1.0000
  C   C776      1.0  0.52856  0.65378  0.33647  1.0000
  H   H761      1.0  0.71391  0.87810  0.34532  1.0000
  H   H762      1.0  0.90874  0.78292  0.40287  1.0000
  H   H763      1.0  0.78635  0.79229  0.42631  1.0000
  H   H764      1.0  0.99563  0.67777  0.39563  1.0000
  C   C777      1.0  0.89777  0.79106  0.41997  1.0000
  S   S270      1.0  0.00006  0.57261  0.31480  1.0000
  H   H765      1.0  0.82553  0.82840  0.37849  1.0000
  N   N65       1.0  0.84660  0.53384  0.45800  1.0000
  Fe  Fe136     1.0  0.97995  0.60973  0.29942  1.0000
  H   H766      1.0  0.57458  0.63166  0.32322  1.0000
  H   H767      1.0  0.94562  0.63724  0.42865  1.0000
  C   C778      1.0  0.67309  0.92850  0.46221  1.0000
  Fe  Fe137     1.0  0.80159  0.52569  0.37284  1.0000
  H   H768      1.0  0.52771  0.64748  0.35743  1.0000
  C   C779      1.0  0.52715  0.70498  0.27699  1.0000
  C   C780      1.0  0.79431  0.96207  0.26450  1.0000
  C   C781      1.0  0.55536  0.69423  0.33363  1.0000
  H   H769      1.0  0.84042  0.52450  0.29349  1.0000
  H   H770      1.0  0.85292  0.84659  0.47369  1.0000
  H   H771      1.0  0.84032  0.55672  0.49265  1.0000
  H   H772      1.0  0.61545  0.91413  0.41402  1.0000
  H   H773      1.0  0.64419  0.55887  0.27240  1.0000
  Fe  Fe138     1.0  0.52702  0.83182  0.30629  1.0000
  S   S271      1.0  0.61709  0.59591  0.30738  1.0000
  H   H774      1.0  0.93674  0.65623  0.39981  1.0000
  H   H775      1.0  0.80348  0.93093  0.29239  1.0000
  H   H776      1.0  0.51415  0.00072  0.27429  1.0000
  C   C782      1.0  0.57572  0.65300  0.32478  1.0000
  H   H777      1.0  0.72546  0.91116  0.35044  1.0000
  H   H778      1.0  0.75964  0.54875  0.29788  1.0000
  H   H779      1.0  0.62021  0.70303  0.31733  1.0000
  H   H780      1.0  0.95880  0.66984  0.42443  1.0000
  C   C783      1.0  0.99856  0.73662  0.36616  1.0000
  H   H781      1.0  0.67434  0.87586  0.32103  1.0000
  C   C784      1.0  0.55479  0.74430  0.27171  1.0000
  S   S272      1.0  0.94428  0.60884  0.27236  1.0000
  S   S273      1.0  0.99912  0.64347  0.27796  1.0000
  C   C785      1.0  0.63130  0.91850  0.42793  1.0000
  H   H782      1.0  0.00047  0.76224  0.39984  1.0000
  H   H783      1.0  0.65944  0.86841  0.48326  1.0000
  H   H784      1.0  0.64213  0.89509  0.28963  1.0000
  C   C786      1.0  0.78110  0.98603  0.26021  1.0000
  C   C787      1.0  0.98931  0.74685  0.38999  1.0000
  H   H785      1.0  0.87558  0.51096  0.40248  1.0000
  C   C788      1.0  0.54172  0.51508  0.28219  1.0000
  H   H786      1.0  0.59457  0.53488  0.26674  1.0000
  Fe  Fe139     1.0  0.89928  0.71406  0.50513  1.0000
  C   C789      1.0  0.81431  0.58534  0.28342  1.0000
  C   C790      1.0  0.83329  0.56541  0.28488  1.0000
  Fe  Fe140     1.0  0.51342  0.85564  0.35986  1.0000
  H   H787      1.0  0.81917  0.56465  0.46488  1.0000
  H   H788      1.0  0.99025  0.73710  0.27359  1.0000
  H   H789      1.0  0.99612  0.58326  0.37176  1.0000
  C   C791      1.0  0.83785  0.51046  0.46854  1.0000
  H   H790      1.0  0.77268  0.59461  0.28704  1.0000
  H   H791      1.0  0.82622  0.51022  0.48650  1.0000
  H   H792      1.0  0.51222  0.95290  0.28537  1.0000
  H   H793      1.0  0.56619  0.70482  0.25993  1.0000
  C   C792      1.0  0.97596  0.56079  0.72093  1.0000
  C   C793      1.0  0.70062  0.99109  0.54776  1.0000
  S   S274      1.0  0.54655  0.89339  0.69720  1.0000
  C   C794      1.0  0.70349  0.99215  0.52001  1.0000
  C   C795      1.0  0.77585  0.00346  0.53764  1.0000
  S   S275      1.0  0.90482  0.71369  0.54966  1.0000
  C   C796      1.0  0.62012  0.94675  0.73716  1.0000
  S   S276      1.0  0.67755  0.98356  0.66847  1.0000
  C   C797      1.0  0.51449  0.83569  0.62063  1.0000
  C   C798      1.0  0.66164  0.97055  0.73540  1.0000
  S   S277      1.0  0.71369  0.97122  0.59796  1.0000
  C   C799      1.0  0.60663  0.97084  0.73668  1.0000
  S   S278      1.0  0.98267  0.66481  0.68132  1.0000
  N   N66       1.0  0.62034  0.99416  0.73497  1.0000
  Fe  Fe141     1.0  0.69355  0.99768  0.62895  1.0000
  C   C800      1.0  0.95710  0.51846  0.73626  1.0000
  C   C801      1.0  0.97048  0.74916  0.62280  1.0000
  C   C802      1.0  0.52107  0.85594  0.63821  1.0000
  C   C803      1.0  0.64750  0.99426  0.73474  1.0000
  H   H794      1.0  0.94204  0.50782  0.74718  1.0000
  H   H795      1.0  0.92328  0.75176  0.59616  1.0000
  H   H796      1.0  0.93978  0.78340  0.59193  1.0000
  H   H797      1.0  0.78385  0.98551  0.57547  1.0000
  H   H798      1.0  0.94469  0.53553  0.67740  1.0000
  H   H799      1.0  0.53625  0.85310  0.65323  1.0000
  C   C804      1.0  0.71388  0.97176  0.56258  1.0000
  S   S279      1.0  0.97382  0.59610  0.71962  1.0000
  H   H800      1.0  0.51265  0.89579  0.65013  1.0000
  H   H801      1.0  0.68320  0.97081  0.73479  1.0000
  C   C805      1.0  0.73188  0.95390  0.52123  1.0000
  C   C806      1.0  0.72916  0.95295  0.54899  1.0000
  H   H802      1.0  0.54760  0.98992  0.68576  1.0000
  H   H803      1.0  0.93786  0.76000  0.56530  1.0000
  N   N67       1.0  0.96543  0.75044  0.59628  1.0000
  H   H804      1.0  0.73946  0.93782  0.56010  1.0000
  C   C807      1.0  0.93150  0.69650  0.56454  1.0000
  C   C808      1.0  0.93247  0.69404  0.59215  1.0000
  C   C809      1.0  0.95458  0.68252  0.60474  1.0000
  C   C810      1.0  0.97580  0.67322  0.58972  1.0000
  C   C811      1.0  0.97453  0.67515  0.56212  1.0000
  C   C812      1.0  0.95253  0.68679  0.54957  1.0000
  H   H805      1.0  0.91618  0.70132  0.60386  1.0000
  H   H806      1.0  0.95535  0.68109  0.62600  1.0000
  Fe  Fe142     1.0  0.00027  0.62770  0.69956  1.0000
  H   H807      1.0  0.95211  0.68864  0.52836  1.0000
  C   C813      1.0  0.56107  0.92412  0.68878  1.0000
  C   C814      1.0  0.58763  0.92508  0.68040  1.0000
  C   C815      1.0  0.59981  0.94936  0.67401  1.0000
  C   C816      1.0  0.58543  0.97285  0.67594  1.0000
  C   C817      1.0  0.55885  0.97183  0.68416  1.0000
  C   C818      1.0  0.54673  0.94761  0.69061  1.0000
  H   H808      1.0  0.59886  0.90697  0.67890  1.0000
  H   H809      1.0  0.62031  0.94992  0.66773  1.0000
  H   H810      1.0  0.91603  0.52454  0.69483  1.0000
  H   H811      1.0  0.52634  0.94719  0.69721  1.0000
  H   H812      1.0  0.94103  0.55694  0.74514  1.0000
  H   H813      1.0  0.52488  0.81702  0.62208  1.0000
  H   H814      1.0  0.58509  0.97069  0.73683  1.0000
  C   C819      1.0  0.95660  0.54640  0.73506  1.0000
  H   H815      1.0  0.91413  0.53008  0.65952  1.0000
  H   H816      1.0  0.99090  0.66801  0.55040  1.0000
  H   H817      1.0  0.74427  0.93964  0.51134  1.0000
  C   C820      1.0  0.92682  0.52265  0.67586  1.0000
  C   C821      1.0  0.99594  0.54671  0.70807  1.0000
  C   C822      1.0  0.94045  0.76210  0.58699  1.0000
  C   C823      1.0  0.99651  0.51880  0.70938  1.0000
  H   H818      1.0  0.97920  0.74116  0.55764  1.0000
  C   C824      1.0  0.77385  0.00135  0.56500  1.0000
  H   H819      1.0  0.95607  0.75648  0.63679  1.0000
  C   C825      1.0  0.95433  0.67296  0.75622  1.0000
  H   H820      1.0  0.93695  0.68035  0.74594  1.0000
  H   H821      1.0  0.78757  0.98934  0.52667  1.0000
  C   C826      1.0  0.98348  0.74092  0.57862  1.0000
  S   S280      1.0  0.00507  0.66088  0.60448  1.0000
  H   H822      1.0  0.65853  0.92811  0.73636  1.0000
  C   C827      1.0  0.64781  0.94665  0.73637  1.0000
  S   S281      1.0  0.60005  0.00404  0.66987  1.0000
  C   C828      1.0  0.71947  0.97385  0.50654  1.0000
  H   H823      1.0  0.94290  0.63204  0.75275  1.0000
  H   H824      1.0  0.68850  0.00550  0.55772  1.0000
  H   H825      1.0  0.60906  0.92831  0.73754  1.0000
  C   C829      1.0  0.00723  0.72961  0.58741  1.0000
  C   C830      1.0  0.99403  0.73792  0.63228  1.0000
  H   H826      1.0  0.99781  0.73645  0.65335  1.0000
  S   S282      1.0  0.00979  0.72684  0.72352  1.0000
  C   C831      1.0  0.79814  0.72524  0.97185  1.0000
  H   H827      1.0  0.95332  0.81365  0.99918  1.0000
  S   S283      1.0  0.62852  0.65751  0.99651  1.0000
  H   H828      1.0  0.64534  0.54808  0.87032  1.0000
  S   S284      1.0  0.66896  0.70602  0.98140  1.0000
  S   S285      1.0  0.68265  0.64178  0.94269  1.0000
  H   H829      1.0  0.71858  0.69205  0.94808  1.0000
  C   C832      1.0  0.79982  0.53866  0.87195  1.0000
  C   C833      1.0  0.55984  0.72315  0.97924  1.0000
  C   C834      1.0  0.54179  0.74438  0.97879  1.0000
  H   H830      1.0  0.51793  0.67590  0.95495  1.0000
  H   H831      1.0  0.66114  0.52990  0.95150  1.0000
  C   C835      1.0  0.64568  0.55398  0.89091  1.0000
  H   H832      1.0  0.98983  0.93326  0.79918  1.0000
  C   C836      1.0  0.52449  0.69514  0.96156  1.0000
  H   H833      1.0  0.96748  0.94426  0.82487  1.0000
  C   C837      1.0  0.51534  0.74106  0.96985  1.0000
  C   C838      1.0  0.73649  0.68558  0.95924  1.0000
  H   H834      1.0  0.65981  0.51634  0.90466  1.0000
  H   H835      1.0  0.63185  0.59352  0.88329  1.0000
  C   C839      1.0  0.72204  0.56031  0.94104  1.0000
  C   C840      1.0  0.71954  0.57379  0.96503  1.0000
  C   C841      1.0  0.70803  0.59907  0.96584  1.0000
  C   C842      1.0  0.69922  0.61112  0.94255  1.0000
  C   C843      1.0  0.70258  0.59801  0.91848  1.0000
  C   C844      1.0  0.71370  0.57261  0.91774  1.0000
  H   H836      1.0  0.72610  0.56446  0.98315  1.0000
  H   H837      1.0  0.70566  0.60901  0.98450  1.0000
  H   H838      1.0  0.69593  0.60727  0.90037  1.0000
  H   H839      1.0  0.71566  0.56259  0.89912  1.0000
  H   H840      1.0  0.64967  0.59788  0.97399  1.0000
  C   C845      1.0  0.65387  0.53609  0.91023  1.0000
  C   C846      1.0  0.78110  0.70440  0.96517  1.0000
  H   H841      1.0  0.99745  0.99942  0.82534  1.0000
  S   S286      1.0  0.73558  0.52817  0.94091  1.0000
  C   C847      1.0  0.65438  0.54387  0.93667  1.0000
  C   C848      1.0  0.55098  0.69848  0.97039  1.0000
  H   H842      1.0  0.97784  0.96615  0.79839  1.0000
  C   C849      1.0  0.63802  0.57937  0.89819  1.0000
  N   N68       1.0  0.75417  0.70795  0.96477  1.0000
  H   H843      1.0  0.80038  0.76567  0.98470  1.0000
  N   N69       1.0  0.64687  0.56883  0.94365  1.0000
  H   H844      1.0  0.56446  0.68190  0.97058  1.0000
  S   S287      1.0  0.72301  0.51783  0.86427  1.0000
  H   H845      1.0  0.81945  0.72218  0.97307  1.0000
  C   C850      1.0  0.63856  0.58646  0.92484  1.0000
  H   H846      1.0  0.97160  0.71137  0.76124  1.0000
  Fe  Fe143     1.0  0.66990  0.66158  0.98055  1.0000
  H   H847      1.0  0.54826  0.76354  0.98568  1.0000
  H   H848      1.0  0.78954  0.68522  0.96097  1.0000
  C   C851      1.0  0.98053  0.63659  0.77251  1.0000
  H   H849      1.0  0.72217  0.73435  0.97238  1.0000
  H   H850      1.0  0.72995  0.67633  0.97803  1.0000
  C   C852      1.0  0.99997  0.65455  0.78076  1.0000
  H   H851      1.0  0.63292  0.60636  0.93031  1.0000
  H   H852      1.0  0.74633  0.67030  0.94707  1.0000
  C   C853      1.0  0.74353  0.73184  0.97135  1.0000
  C   C854      1.0  0.78744  0.74969  0.97842  1.0000
  H   H853      1.0  0.78723  0.55086  0.85950  1.0000
  N   N70       1.0  0.00702  0.95847  0.82808  1.0000
  S   S288      1.0  0.59257  0.72840  0.99225  1.0000
  H   H854      1.0  0.82568  0.52748  0.84018  1.0000
  C   C855      1.0  0.79410  0.53532  0.89873  1.0000
  H   H855      1.0  0.77708  0.54540  0.90696  1.0000
  H   H856      1.0  0.98628  0.81507  0.98698  1.0000
  C   C856      1.0  0.64639  0.57628  0.97156  1.0000
  C   C857      1.0  0.75997  0.75308  0.97812  1.0000
  H   H857      1.0  0.66250  0.56623  0.98276  1.0000
  H   H858      1.0  0.79348  0.53301  0.95053  1.0000
  C   C858      1.0  0.95764  0.64591  0.76009  1.0000
  N   N71       1.0  0.99657  0.68108  0.77692  1.0000
  N   N72       1.0  0.80940  0.51912  0.91418  1.0000
  H   H859      1.0  0.62697  0.57090  0.98037  1.0000
  C   C859      1.0  0.98429  0.95009  0.81201  1.0000
  Fe  Fe144     1.0  0.62867  0.70155  0.00048  1.0000
  H   H860      1.0  0.75134  0.77164  0.98433  1.0000
  C   C860      1.0  0.82139  0.52546  0.86107  1.0000
  H   H861      1.0  0.96484  0.84359  0.98304  1.0000
  C   C861      1.0  0.97058  0.82715  0.99639  1.0000
  H   H862      1.0  0.82008  0.50985  0.95404  1.0000
  H   H863      1.0  0.98363  0.61547  0.77467  1.0000
  C   C862      1.0  0.97407  0.69039  0.76489  1.0000
  C   C863      1.0  0.80240  0.51493  0.94193  1.0000
  C   C864      1.0  0.83662  0.50867  0.87683  1.0000
  H   H864      1.0  0.00911  0.77025  0.76003  1.0000
