data_image0
_chemical_formula_structural       S2FeS2FeS2FeSFeS3FeS2FeS2FeSFeS3NC2FeS2FeS2FeSFeCS2FeSFeS2FeS2CS2C2SH2CSC7H5CHNCH3C6H4C6H4C2FeC3HCH2C3HSH3C8H4C5SHCHC4H4C6H4FeN2C6H8CHNHSCNHCFeCHCHCSFe2CSCHCH2CFeC3NCH2CH5CH2C4H5C2FeHCNC6H8NC6H11CHC3SC2H2NH2C4HCH3SH3SC3H4FeH2CHCHC2HCHCH3C2H2C3HCH4C2H2S2HC2HS2H5S2FeS2FeS2FeSFeS3FeS2FeS2FeSFeS3H3FeS2FeS2FeSFeHS2FeNFeS2FeC2HSC2HSHSCSCNC4H6CH6C6H4C6H4C2NC3H4C3HC2H3C7H4C12HCH3C6H4FeHNC6H8NC2HCHSCH2CFeHCH3CH2CHC3HCH2CH3SCHCFeHSH4SH2NC6H3CHCHC2N2C6H2SH4CH4C4H2CSH3SHSH3CNCSHC2HCHCNS2H2CH2C2HC4HCH2Fe2C2SCSCHCHFeH5C2FeH2FeCSHCHSC2H2CHC4NHCHCHNC2HCHCH2CH2SCHSHFeSHCSHCH4CHFeHCHCH4CH5CH3CHCH2CHC2SH2C3SHFeSC5HN2C3HSC2HCH2CHSH2NC3H2SH2C8H3CSFeCH2C2H4CHCH3FeC3H2CHCS2H2C5HC3HFeSCHNH3CH3CFeS2FeS2FeSFeS3C2SN2CH2CHFeS2H3FeCFeS3FeSHFeS2FeSFeS3FeS2FeCNFeSFeS3H2SFeSHCSC4HCH2C3H2CH4C6H4C6H4SHC7H3C7H8SCHSHC2HCHCH2CHC6H4C6H4FeC3H3C2HNC2H2NC6H7CNC5H6C3H4SHC3NHCH2FeC2H2C2HCHC2H2CH2CH2C2NHNH2CSNCHCH2C2HCH4C2HFeSHSNH3C2H3SNHCH2C2SH2C3H2C2H2C2H2CH4CH2C3HC3H2CHSH3CSH3C2H2CHFeS2FeS2FeSFeS3CHSHCH2CHCFeS2H2CFeSFeS3FeSCFeS2FeSFeS3FeS2FeH2FeSFeS3HFeSHCHC6HCNHC4HCH4C6H4C6H4SC7H4C6H5CSH3NSH2C3HC2HCH2C6H4C7H6S2HNSH2C4HSH2CH2NH2CHC2N2CH4SH3CSHCHC5H5C2H2CNH4NC6H2CH5C2NH3CHCH3C2HC2HSHFeCNCH3CH5CHC3H2C3FeH2C2HC3HSCNH2CHC4H3NH2CHC2H2CFeHC5H2FeCHC4HCH3CHCHSFeHSC3HC2NFeNFeSFeS2FeSFeS3FeHSFeHCFeSNHSHFeS2FeS2FeSFeS3FeSFeS2FeSHCSHFeS2FeS2FeSFeS3FeSC2S2FeS2FeS2FeSFeS3C3H5C6H4C2NHNCH2NSC6H4C6H4C6H4C6H4C6H8SCFeC2HCH2CHC6H4C9HNHC3HCHSC3H4SHCHSH2C6H3CHC5H2CFeC3HFeHNC6HC3SCH3SHSC2H5NC6H8NC6H8C2H3CSH2CHCHCHC2HSC2HFeCHCHCSH3CHSCSC3H3CNHNC6H6CH4CHC2SNH2C2H3CHC2HC3HFe2HC2HC3HSCHC2HFeC2H4C2HC2NSH3C2SCH5CHFeHCSH2C2SH2S3HCHCH2CSCSH2CNHSFeCFeC2NC2FeHC2FeCHSCH2CNCH2CH3C2HCHCSCNHSH2S2C2H3C5HC2H5SHCHC5SHCFeHCFeCH2CHC2SCHC2H4CH2C3H2C3H2CHCH2NHCHCH3C2H2C3H2CNSCHCH3CHCH5S2C2H3CHCHCHS2FeS2FeSFeS3C2SFeHCFeSHCSCFeS2FeS2FeSFeS3FeSFeS2FeSFeS2HFeS2FeS2FeSFeS3FeSHFeS2FeS2FeS2FeSFeS3C4FeH3C6H4CFeCFeHCH4C6H4C6H4C6H4C6H4C6H4NCS2H3C2HCH2CHC6H4C7H3S2H3C3FeC4HCHFeSCH3C2NC6HCHC4H5C2FeCSC4H4NHCHNCHNHC2HC2FeCH2C2HCH2SNHNCH3NC6H9CH2CHCSC2HCH4C2H3C3H2CFeCHNH2SHCH2SH2C3HCHCH3SH2CNC2HSHC2H2CHCSHCHCHC2HC2SCHSHC3HCHSHFeC2FeH2C3NC2HC3SHC2SHC3HC3HFeHSHCHCHCH4CH2CH2C2H2CNC2SFeC3H4CHSCH2CH4C3H2SH3FeC5H2S2HFeNHN2C2H2FeC3H2C3HCHCSCSH5C4NHNC4H2SH4CHNSH2C2HCHCHSH2CH2C3H2C2H2CH2CHSCHCHCHFeHCNH3NH4CHSHFeH5SCH2CS2H5CSHN2HFeS2CH2CNHFeS2FeS2FeSFeS3CS2FeSHFe2S2FeSHFeSFeS3FeS2FeS2FeSFeCS2H2SNC2FeSCFeS2FeS2FeSFeS3FeS2FeSFe2SFeS3C6H4C6HC2HC6H4C6H3C2H3SHSCHCH2C4SCHC6H4CH2C4H2C6H2CHC6H4C6H4CHC2HCH2CNC6H4C6H4C6H3SFeCHC2SH2CHSH2CH2FeCNCNHFeHNC6HCNSCH4C2H2SCHSHCSH2CHCNHC2HCH2CH3NC3HC2H2SH5SHSCHSHFeC2HCH3CS2H2NC6H8CHCH3CHC3HC2H4CHCH7CHC3H2CHCH2CH3NC3FeH3S2H2SCFeC3HCSCHCHCNHC2SHC3NC2H3CHC2SC3NCNC2HCH3C2HSH2SH6CHCHCH4C2FeC2H2CH4CHSH4CH2FeC5H5CSC3H2CHFeS2CSHSC2FeS2FeS2FeSFeS3CS2FeCFeSFeS2FeSHFeSFeS3FeS2FeS2FeSFeCS2HS2H2CFeSCFeS2FeS2FeSFeS3FeS2FeSNFeSFeS3C6H4C3HC2HNH2C6H4C6H5C3HCHCNCH3C3H3C6H4C6H3C6H4C6H4C6H7CHSH2C8H4CHC4H4C6H3CHFeCH2CSNHCH2NC6H8NC2HSC2NC5H8CH3CH6NC6H2CH5SHSCHC2SCHCNC5H2FeH3CHS2NH3CHCHCH2C2H2CNC5H5SHC2HCSCFeC3H2CH4CHC3H2CH3C2H2CS2H2CH4CH2C3H4FeC4FeCH2CFeCFeHSHSCH2CNSNCHC2H2CH2CH2C2HCSC3HNCFeCHSHCH2CHCH2SHCHNC2H2NH4FeH2C4HC4H2CH2CH3SH2C3H2NHC2HCNCH2CNCH3CHC2HFe2SHFeS2FeHFeS3FeS2C2FeSFeS3FeS2FeS2FeSFeS3CSHFeS2FeSFeS3FeS2FeS2FeS2FeSFeS3FeSCFeSH2CFeSCSCHC2HCFeH2CSHC2H3CHC7HCHC3HCHCHNCHC6H7SHCHSCHC6H4CH2C3H2CH5CH2CNHC6H6FeCHCH2C6H4C6H4C6H4C6HCH2CFeH2C3HCHC3SHCH4NC3HC2FeC3H5SH3CHN2CS2C2HSFeHCHSHNC6H2CH5NC6H5C2HNC3H3SH2CNC6H7CHC2SCHCFeNC3HFeH4S2CSCH2SH5CHCH2CFeCNC2SCH2CHC2H2SH2NC6H8SH2SCH3C2SC3SCH2FeCH2CSHCH2CNFe2HCFeSCHCH2CHCFeSC4H4CHN2HC2H5FeC2H3C2S2C3HC3HSCHC3HFeH4NHCHC2H3NH2CFeSCFeS2FeSFeS3FeS2C2FeSFeS3FeS2FeS2FeSFeS3FeH2FeS2FeCFeNS2FeS2FeS2FeS2FeSFeS3FeSHFeS2H2FeS3H3CHSFeH3SCNCHSHCHFeC6HCH2C2NHC2HSH2C6H4C2HCSHNCH2C6H4C4HCH2CH2CFeCNCH2FeC7H7CHCH2C6H4C6H3C7H4C6HSH2CHC2HCH2C2SH2S2HCFeHCH2CSCHCHCSC2SH2CS2CSH2CFeC4H4C3SCH3FeC3SH3CHFeHCNC5H5NC6H8SH3CH4SHCH2CHFeNC6H10CH2SC2H2FeCHCFeH3CSCHS2HSC6HCHC3HC3HSH2CNHNCHCHC3NC3HCHCSNC2H4SC6SC2NHCH2CH4C4H3C2FeHCSC2H3C2H5CH5C2H2NCH3NC2HC3SHCH2SC2FeS2H2CFeSC2SHC2HNHCFeSNH3SHC3H3SC4H4CHCHC2HC2HCFeH2SH3SH3CHC2NH2CHC4FeHFeC3HS2FeS2H2CFeSCFeS2CHN2CH2FeSCHCH2C5HC6H4CSH2FeC2H3C2H4S2C2H2CH2C7H3C2HSH2NCHC3H5NC2FeCHCHCHC3HNCH2CSHC2HC2H3CSC2SHFeSHS2CFeHCFeS2FeSHCS2FeS2FeS2HCFeS3FeSFeS2FeS3H2SFe2SHCHSCFeSHSFeS2FeS2FeSFeS3C6H5C6H3C6H6C2HC6SCH2C6H4CHCSH3SHC3HCH2C6SH3C6H5CFeC4H3C6H4C6H4SC3HCFe2H2NC6H8NC5H5NC6H5CH2CH3NC6H10FeCH2CHCHC2HCHFeCH3S3C4S2C2NHC3HCH4CHCHN2CHCHCHCFeSH2SHN2H3FeH2C2H4CHCH3SH2CHFeSHCSHCHCSCH2CHCHC3HCFeC3HSC3H2CHC3NC2FeCFeSNFeSHFeH2FeCHC2H2SCH3NC3SCHCH3NSHFeHNH5CNH2CS2FeSCS2CFeCHFeS2FeSCS3FeS2Fe2SC2FeS3FeSFeS2FeS3CS2FeS2Fe2CH2FeSHSFeS2FeS2FeSFeS3C6H6C5H3C6H5C2HNSHC4HCHFeC6H5CH2CFeSC2HC2H2CFeC6SH3C6H7C2H2CH2C6H4C6H4CHFeHSHFeSCH2S2H4CH2CH2NC4HNHC8NH4C2NHNC6H8CSHSHFeH2C2H3CHC2SHC2HC2H5FeCHCH2C3HSHCHCHC2HCHC2HCNCH2C3H2CHFeHC3H3CSCHCH3C2NC2HCFeH4C3SHC2H5NHSHSFeCS2CH2C2SCSH3C2H3C3H2FeNCHCHNHCHSFeH2CSH2CH3C4SH2C2HCH3CH3CH3SH2SCHSH4CSC2SC3SHS
_chemical_formula_sum              "S768 Fe384 N192 C2304 H2304"
_cell_length_a       120.73
_cell_length_b       120.224
_cell_length_c       49.5774
_cell_angle_alpha    78.0706
_cell_angle_beta     78.004
_cell_angle_gamma    101.699

_space_group_name_H-M_alt    "P 1"
_space_group_IT_number       1

loop_
  _space_group_symop_operation_xyz
  'x, y, z'

loop_
  _atom_site_type_symbol
  _atom_site_label
  _atom_site_symmetry_multiplicity
  _atom_site_fract_x
  _atom_site_fract_y
  _atom_site_fract_z
  _atom_site_occupancy
  S   S1        1.0  0.15210  0.61348  0.40125  1.0000
  S   S2        1.0  0.12985  0.63177  0.41107  1.0000
  Fe  Fe1       1.0  0.06573  0.51774  0.12331  1.0000
  S   S3        1.0  0.05804  0.50295  0.16417  1.0000
  S   S4        1.0  0.07945  0.51691  0.08439  1.0000
  Fe  Fe2       1.0  0.05457  0.53438  0.15096  1.0000
  S   S5        1.0  0.04594  0.52099  0.19240  1.0000
  S   S6        1.0  0.05214  0.55253  0.14842  1.0000
  Fe  Fe3       1.0  0.06331  0.51660  0.18803  1.0000
  S   S7        1.0  0.07112  0.51368  0.22721  1.0000
  Fe  Fe4       1.0  0.04115  0.50864  0.16543  1.0000
  S   S8        1.0  0.02152  0.49870  0.18111  1.0000
  S   S9        1.0  0.07214  0.53060  0.14720  1.0000
  S   S10       1.0  0.04868  0.52274  0.12384  1.0000
  Fe  Fe5       1.0  0.07529  0.61590  0.19170  1.0000
  S   S11       1.0  0.08512  0.61186  0.15290  1.0000
  S   S12       1.0  0.05534  0.61356  0.20005  1.0000
  Fe  Fe6       1.0  0.09738  0.62071  0.21653  1.0000
  S   S13       1.0  0.10822  0.61613  0.17928  1.0000
  S   S14       1.0  0.10670  0.62326  0.25283  1.0000
  Fe  Fe7       1.0  0.09993  0.62695  0.15056  1.0000
  S   S15       1.0  0.11104  0.64009  0.10834  1.0000
  Fe  Fe8       1.0  0.09252  0.60146  0.18432  1.0000
  S   S16       1.0  0.09285  0.58273  0.18593  1.0000
  S   S17       1.0  0.08959  0.63230  0.18741  1.0000
  S   S18       1.0  0.08223  0.60486  0.22342  1.0000
  N   N1        1.0  0.23011  0.65062  0.19916  1.0000
  C   C1        1.0  0.01222  0.51805  0.10429  1.0000
  C   C2        1.0  0.07184  0.62741  0.09713  1.0000
  Fe  Fe9       1.0  0.10998  0.56493  0.37047  1.0000
  S   S19       1.0  0.09398  0.55064  0.37502  1.0000
  S   S20       1.0  0.11026  0.58399  0.36645  1.0000
  Fe  Fe10      1.0  0.12664  0.54958  0.36519  1.0000
  S   S21       1.0  0.11201  0.53360  0.36898  1.0000
  S   S22       1.0  0.14634  0.55071  0.35800  1.0000
  Fe  Fe11      1.0  0.10489  0.54553  0.33892  1.0000
  S   S23       1.0  0.09821  0.54439  0.29830  1.0000
  Fe  Fe12      1.0  0.10170  0.53952  0.40479  1.0000
  C   C3        1.0  0.10365  0.64241  0.41723  1.0000
  S   S24       1.0  0.12040  0.56090  0.33257  1.0000
  S   S25       1.0  0.11678  0.55426  0.40295  1.0000
  Fe  Fe13      1.0  0.23336  0.59532  0.36619  1.0000
  S   S26       1.0  0.23875  0.61494  0.35508  1.0000
  Fe  Fe14      1.0  0.20694  0.59451  0.37368  1.0000
  S   S27       1.0  0.21118  0.61436  0.36306  1.0000
  S   S28       1.0  0.18684  0.58695  0.38575  1.0000
  Fe  Fe15      1.0  0.22606  0.61402  0.32797  1.0000
  S   S29       1.0  0.23212  0.62635  0.28361  1.0000
  S   S30       1.0  0.09031  0.52657  0.44686  1.0000
  C   C4        1.0  0.18809  0.64227  0.41907  1.0000
  S   S31       1.0  0.22138  0.59438  0.33651  1.0000
  S   S32       1.0  0.12558  0.65052  0.34159  1.0000
  C   C5        1.0  0.24349  0.59761  0.22310  1.0000
  C   C6        1.0  0.12920  0.53595  0.46223  1.0000
  S   S33       1.0  0.22614  0.62544  0.09882  1.0000
  H   H1        1.0  0.06856  0.53742  0.00007  1.0000
  H   H2        1.0  0.23966  0.62602  0.18346  1.0000
  C   C7        1.0  0.10164  0.62120  0.43425  1.0000
  S   S34       1.0  0.22843  0.60469  0.04448  1.0000
  C   C8        1.0  0.22928  0.62047  0.25542  1.0000
  C   C9        1.0  0.22869  0.62028  0.45318  1.0000
  C   C10       1.0  0.23409  0.62176  0.20455  1.0000
  C   C11       1.0  0.22428  0.61249  0.20865  1.0000
  C   C12       1.0  0.21715  0.60703  0.23639  1.0000
  C   C13       1.0  0.21966  0.61097  0.25978  1.0000
  C   C14       1.0  0.21286  0.63562  0.20326  1.0000
  H   H3        1.0  0.20957  0.59981  0.23973  1.0000
  H   H4        1.0  0.21401  0.60686  0.28105  1.0000
  H   H5        1.0  0.23561  0.62838  0.00592  1.0000
  H   H6        1.0  0.24108  0.65866  0.15716  1.0000
  H   H7        1.0  0.08628  0.63531  0.05952  1.0000
  C   C15       1.0  0.22735  0.61030  0.00959  1.0000
  H   H8        1.0  0.06806  0.63729  0.15682  1.0000
  N   N2        1.0  0.10230  0.63062  0.41248  1.0000
  C   C16       1.0  0.19554  0.61341  0.43965  1.0000
  H   H9        1.0  0.21884  0.59319  0.00665  1.0000
  H   H10       1.0  0.13287  0.52865  0.39884  1.0000
  H   H11       1.0  0.13348  0.54217  0.47225  1.0000
  C   C17       1.0  0.15745  0.56069  0.36651  1.0000
  C   C18       1.0  0.16927  0.56061  0.35700  1.0000
  C   C19       1.0  0.17837  0.56847  0.36276  1.0000
  C   C20       1.0  0.17577  0.57648  0.37845  1.0000
  C   C21       1.0  0.16394  0.57648  0.38819  1.0000
  C   C22       1.0  0.15485  0.56869  0.38221  1.0000
  H   H12       1.0  0.17142  0.55443  0.34496  1.0000
  H   H13       1.0  0.18739  0.56829  0.35517  1.0000
  H   H14       1.0  0.10744  0.64311  0.43565  1.0000
  H   H15       1.0  0.14584  0.56891  0.38976  1.0000
  C   C23       1.0  0.09039  0.53564  0.27928  1.0000
  C   C24       1.0  0.08598  0.52340  0.28926  1.0000
  C   C25       1.0  0.08004  0.51691  0.27328  1.0000
  C   C26       1.0  0.07817  0.52249  0.24724  1.0000
  C   C27       1.0  0.08242  0.53475  0.23744  1.0000
  C   C28       1.0  0.08856  0.54122  0.25312  1.0000
  H   H16       1.0  0.08726  0.51889  0.30918  1.0000
  H   H17       1.0  0.07688  0.50745  0.28123  1.0000
  H   H18       1.0  0.08120  0.53918  0.21742  1.0000
  H   H19       1.0  0.09205  0.55062  0.24469  1.0000
  C   C29       1.0  0.08157  0.52367  0.04730  1.0000
  C   C30       1.0  0.09175  0.52363  0.02735  1.0000
  Fe  Fe16      1.0  0.24368  0.63855  0.08778  1.0000
  C   C31       1.0  0.04977  0.56868  0.22183  1.0000
  C   C32       1.0  0.07512  0.53363  0.00756  1.0000
  C   C33       1.0  0.07330  0.52881  0.03716  1.0000
  H   H20       1.0  0.09821  0.51966  0.03481  1.0000
  C   C34       1.0  0.02346  0.53140  0.12489  1.0000
  H   H21       1.0  0.24161  0.64873  0.41172  1.0000
  H   H22       1.0  0.06541  0.52890  0.05207  1.0000
  C   C35       1.0  0.01098  0.48913  0.16988  1.0000
  C   C36       1.0  0.01407  0.48400  0.14745  1.0000
  C   C37       1.0  0.00537  0.47626  0.14007  1.0000
  H   H23       1.0  0.22791  0.60278  0.44836  1.0000
  S   S35       1.0  0.13948  0.65957  0.40568  1.0000
  H   H24       1.0  0.10200  0.63655  0.36907  1.0000
  H   H25       1.0  0.02319  0.48578  0.13618  1.0000
  H   H26       1.0  0.00795  0.47213  0.12319  1.0000
  C   C38       1.0  0.08705  0.52908  0.48158  1.0000
  C   C39       1.0  0.24692  0.66266  0.43158  1.0000
  C   C40       1.0  0.06357  0.56106  0.15822  1.0000
  C   C41       1.0  0.07109  0.55576  0.17129  1.0000
  C   C42       1.0  0.08030  0.56258  0.17863  1.0000
  C   C43       1.0  0.08172  0.57468  0.17436  1.0000
  C   C44       1.0  0.07392  0.57995  0.16230  1.0000
  C   C45       1.0  0.06498  0.57319  0.15388  1.0000
  H   H27       1.0  0.06958  0.54637  0.17685  1.0000
  H   H28       1.0  0.08617  0.55845  0.18839  1.0000
  H   H29       1.0  0.07473  0.58918  0.15938  1.0000
  H   H30       1.0  0.05913  0.57736  0.14413  1.0000
  C   C46       1.0  0.11823  0.63635  0.01540  1.0000
  C   C47       1.0  0.10780  0.62831  0.06630  1.0000
  C   C48       1.0  0.11407  0.63804  0.07306  1.0000
  C   C49       1.0  0.12253  0.64681  0.05082  1.0000
  C   C50       1.0  0.12470  0.64593  0.02227  1.0000
  S   S36       1.0  0.15211  0.64026  0.43661  1.0000
  H   H31       1.0  0.20181  0.60991  0.44941  1.0000
  C   C51       1.0  0.12062  0.64281  0.31677  1.0000
  H   H32       1.0  0.04847  0.57742  0.21547  1.0000
  C   C52       1.0  0.10890  0.64134  0.28155  1.0000
  C   C53       1.0  0.11193  0.63104  0.27731  1.0000
  C   C54       1.0  0.11936  0.62672  0.29314  1.0000
  C   C55       1.0  0.12365  0.63251  0.31258  1.0000
  H   H33       1.0  0.03013  0.60565  0.22083  1.0000
  H   H34       1.0  0.01072  0.53358  0.18515  1.0000
  H   H35       1.0  0.12204  0.61894  0.28999  1.0000
  H   H36       1.0  0.12947  0.62911  0.32400  1.0000
  C   C56       1.0  0.14078  0.60530  0.39071  1.0000
  C   C57       1.0  0.13449  0.61097  0.37407  1.0000
  C   C58       1.0  0.12527  0.60436  0.36628  1.0000
  C   C59       1.0  0.12232  0.59207  0.37499  1.0000
  C   C60       1.0  0.12888  0.58643  0.39077  1.0000
  C   C61       1.0  0.13810  0.59302  0.39861  1.0000
  H   H37       1.0  0.13681  0.62047  0.36692  1.0000
  H   H38       1.0  0.12041  0.60878  0.35351  1.0000
  H   H39       1.0  0.12672  0.57702  0.39770  1.0000
  H   H40       1.0  0.14296  0.58859  0.41137  1.0000
  Fe  Fe17      1.0  0.14839  0.63082  0.40368  1.0000
  N   N3        1.0  0.04251  0.55920  0.21772  1.0000
  N   N4        1.0  0.15882  0.58929  0.32124  1.0000
  C   C62       1.0  0.16953  0.58710  0.31296  1.0000
  C   C63       1.0  0.15783  0.59867  0.33232  1.0000
  C   C64       1.0  0.17954  0.59415  0.31678  1.0000
  C   C65       1.0  0.16761  0.60578  0.33680  1.0000
  C   C66       1.0  0.17852  0.60342  0.32921  1.0000
  C   C67       1.0  0.14827  0.58171  0.31806  1.0000
  H   H41       1.0  0.17033  0.57963  0.30434  1.0000
  H   H42       1.0  0.14937  0.60054  0.33824  1.0000
  H   H43       1.0  0.18794  0.59207  0.31146  1.0000
  H   H44       1.0  0.16667  0.61293  0.34665  1.0000
  H   H45       1.0  0.18612  0.60857  0.33357  1.0000
  H   H46       1.0  0.14978  0.57326  0.31429  1.0000
  H   H47       1.0  0.14109  0.57938  0.33800  1.0000
  H   H48       1.0  0.14537  0.58627  0.29999  1.0000
  C   C68       1.0  0.04773  0.59732  0.17018  1.0000
  H   H49       1.0  0.10128  0.62146  0.08306  1.0000
  N   N5        1.0  0.01597  0.52599  0.15129  1.0000
  H   H50       1.0  0.06520  0.57493  0.23553  1.0000
  S   S37       1.0  0.22058  0.60766  0.17969  1.0000
  C   C69       1.0  0.02695  0.58788  0.17585  1.0000
  N   N6        1.0  0.11881  0.52793  0.47696  1.0000
  H   H51       1.0  0.02865  0.56731  0.21276  1.0000
  C   C70       1.0  0.03268  0.60117  0.20464  1.0000
  Fe  Fe18      1.0  0.23582  0.61573  0.07173  1.0000
  C   C71       1.0  0.05921  0.56731  0.23334  1.0000
  H   H52       1.0  0.18710  0.59681  0.43376  1.0000
  C   C72       1.0  0.22931  0.60866  0.46183  1.0000
  H   H53       1.0  0.04147  0.58565  0.14565  1.0000
  C   C73       1.0  0.23754  0.65778  0.21250  1.0000
  S   S38       1.0  0.21848  0.59353  0.40454  1.0000
  Fe  Fe19      1.0  0.13381  0.64267  0.44140  1.0000
  Fe  Fe20      1.0  0.13649  0.64808  0.37509  1.0000
  C   C74       1.0  0.03894  0.58989  0.16234  1.0000
  S   S39       1.0  0.01632  0.57834  0.16472  1.0000
  C   C75       1.0  0.11838  0.52024  0.43602  1.0000
  H   H54       1.0  0.20229  0.63097  0.44221  1.0000
  C   C76       1.0  0.13444  0.53629  0.43399  1.0000
  H   H55       1.0  0.23767  0.59851  0.27611  1.0000
  H   H56       1.0  0.13117  0.65281  0.00550  1.0000
  C   C77       1.0  0.07199  0.63707  0.13520  1.0000
  Fe  Fe21      1.0  0.22347  0.61331  0.39142  1.0000
  C   C78       1.0  0.22635  0.64529  0.15715  1.0000
  C   C79       1.0  0.00653  0.51688  0.15456  1.0000
  C   C80       1.0  0.00764  0.58362  0.10083  1.0000
  N   N7        1.0  0.18804  0.62983  0.42262  1.0000
  C   C81       1.0  0.08703  0.64479  0.09190  1.0000
  H   H57       1.0  0.03097  0.53864  0.12227  1.0000
  H   H58       1.0  0.01823  0.52220  0.19310  1.0000
  C   C82       1.0  0.24655  0.59914  0.19349  1.0000
  H   H59       1.0  0.09643  0.65364  0.13202  1.0000
  H   H60       1.0  0.22991  0.63674  0.46471  1.0000
  H   H61       1.0  0.17360  0.62618  0.40454  1.0000
  H   H62       1.0  0.23755  0.65260  0.23390  1.0000
  H   H63       1.0  0.10230  0.62242  0.45503  1.0000
  C   C83       1.0  0.17985  0.62265  0.41423  1.0000
  H   H64       1.0  0.21102  0.63115  0.16414  1.0000
  H   H65       1.0  0.10075  0.60265  0.44650  1.0000
  C   C84       1.0  0.01797  0.52985  0.17644  1.0000
  C   C85       1.0  0.04451  0.54827  0.22436  1.0000
  C   C86       1.0  0.05382  0.54656  0.23610  1.0000
  C   C87       1.0  0.06121  0.55616  0.24055  1.0000
  H   H66       1.0  0.03911  0.54087  0.21986  1.0000
  H   H67       1.0  0.05556  0.53794  0.24070  1.0000
  H   H68       1.0  0.06874  0.55503  0.24845  1.0000
  H   H69       1.0  0.02617  0.55264  0.20873  1.0000
  H   H70       1.0  0.03660  0.56442  0.18091  1.0000
  C   C88       1.0  0.04466  0.60318  0.19117  1.0000
  C   C89       1.0  0.02390  0.59348  0.19735  1.0000
  Fe  Fe22      1.0  0.15789  0.65667  0.39986  1.0000
  H   H71       1.0  0.01476  0.59209  0.20802  1.0000
  C   C90       1.0  0.12897  0.52837  0.42086  1.0000
  N   N8        1.0  0.09959  0.58573  0.29013  1.0000
  C   C91       1.0  0.09857  0.58393  0.26428  1.0000
  C   C92       1.0  0.09309  0.57765  0.31497  1.0000
  C   C93       1.0  0.09116  0.57360  0.26294  1.0000
  C   C94       1.0  0.08554  0.56728  0.31437  1.0000
  C   C95       1.0  0.08464  0.56524  0.28816  1.0000
  C   C96       1.0  0.10751  0.59643  0.29159  1.0000
  H   H72       1.0  0.10358  0.59040  0.24450  1.0000
  H   H73       1.0  0.09382  0.57913  0.33543  1.0000
  H   H74       1.0  0.09071  0.57197  0.24246  1.0000
  H   H75       1.0  0.08069  0.56069  0.33403  1.0000
  H   H76       1.0  0.07921  0.55698  0.28751  1.0000
  H   H77       1.0  0.10235  0.60224  0.29990  1.0000
  H   H78       1.0  0.11315  0.59422  0.30591  1.0000
  H   H79       1.0  0.11338  0.60149  0.27027  1.0000
  N   N9        1.0  0.09546  0.51777  0.16129  1.0000
  C   C97       1.0  0.09776  0.52685  0.17372  1.0000
  C   C98       1.0  0.09673  0.51998  0.13247  1.0000
  C   C99       1.0  0.10149  0.53852  0.15715  1.0000
  C   C100      1.0  0.10049  0.53154  0.11522  1.0000
  C   C101      1.0  0.10286  0.54085  0.12770  1.0000
  C   C102      1.0  0.09099  0.50561  0.17895  1.0000
  H   H80       1.0  0.09653  0.52511  0.19665  1.0000
  H   H81       1.0  0.09453  0.51282  0.12270  1.0000
  H   H82       1.0  0.10309  0.54569  0.16719  1.0000
  H   H83       1.0  0.10112  0.53321  0.09248  1.0000
  H   H84       1.0  0.10550  0.54986  0.11468  1.0000
  H   H85       1.0  0.08143  0.50260  0.18122  1.0000
  H   H86       1.0  0.09552  0.49968  0.16917  1.0000
  H   H87       1.0  0.09224  0.50479  0.20083  1.0000
  H   H88       1.0  0.22900  0.64638  0.13425  1.0000
  H   H89       1.0  0.24077  0.59426  0.18343  1.0000
  H   H90       1.0  0.16179  0.58265  0.40023  1.0000
  C   C103      1.0  0.11317  0.64711  0.30105  1.0000
  H   H91       1.0  0.09991  0.59984  0.39858  1.0000
  C   C104      1.0  0.03302  0.56095  0.20443  1.0000
  C   C105      1.0  0.10078  0.61000  0.42957  1.0000
  C   C106      1.0  0.23656  0.62575  0.22784  1.0000
  S   S40       1.0  0.24049  0.60521  0.10887  1.0000
  C   C107      1.0  0.00449  0.51277  0.13118  1.0000
  C   C108      1.0  0.17940  0.61068  0.41801  1.0000
  H   H92       1.0  0.10058  0.61699  0.35965  1.0000
  H   H93       1.0  0.21751  0.64137  0.23861  1.0000
  N   N10       1.0  0.08202  0.64530  0.11888  1.0000
  H   H94       1.0  0.11073  0.65506  0.30379  1.0000
  H   H95       1.0  0.00073  0.51248  0.17557  1.0000
  C   C109      1.0  0.19578  0.62534  0.43542  1.0000
  C   C110      1.0  0.10977  0.62756  0.03766  1.0000
  C   C111      1.0  0.22223  0.60243  0.99562  1.0000
  C   C112      1.0  0.23058  0.62780  0.47099  1.0000
  H   H96       1.0  0.10468  0.62011  0.03273  1.0000
  C   C113      1.0  0.21994  0.64266  0.21562  1.0000
  H   H97       1.0  0.20510  0.62892  0.21647  1.0000
  H   H98       1.0  0.01566  0.58173  0.10487  1.0000
  H   H99       1.0  0.05686  0.59871  0.15948  1.0000
  S   S41       1.0  0.22532  0.62558  0.42058  1.0000
  H   H100      1.0  0.05881  0.62154  0.13762  1.0000
  H   H101      1.0  0.01088  0.51475  0.08613  1.0000
  H   H102      1.0  0.18131  0.64323  0.43678  1.0000
  S   S42       1.0  0.15517  0.64667  0.36653  1.0000
  C   C114      1.0  0.21618  0.63687  0.17387  1.0000
  C   C115      1.0  0.06671  0.62808  0.12449  1.0000
  C   C116      1.0  0.23165  0.62224  0.99531  1.0000
  H   H103      1.0  0.10328  0.64490  0.26971  1.0000
  H   H104      1.0  0.12743  0.65440  0.05567  1.0000
  H   H105      1.0  0.09504  0.64454  0.42129  1.0000
  H   H106      1.0  0.06799  0.62029  0.08888  1.0000
  Fe  Fe23      1.0  0.23222  0.61600  0.13484  1.0000
  H   H107      1.0  0.19676  0.64773  0.41872  1.0000
  H   H108      1.0  0.09516  0.65112  0.07926  1.0000
  C   C117      1.0  0.10070  0.61804  0.38083  1.0000
  H   H109      1.0  0.12415  0.61226  0.98487  1.0000
  C   C118      1.0  0.08206  0.63583  0.08065  1.0000
  H   H110      1.0  0.17296  0.60501  0.41109  1.0000
  C   C119      1.0  0.18731  0.60606  0.43082  1.0000
  C   C120      1.0  0.10034  0.60844  0.40266  1.0000
  H   H111      1.0  0.10982  0.64912  0.39826  1.0000
  C   C121      1.0  0.10158  0.62911  0.38624  1.0000
  H   H112      1.0  0.23531  0.59139  0.23577  1.0000
  C   C122      1.0  0.23320  0.65218  0.17022  1.0000
  H   H113      1.0  0.18613  0.64594  0.39859  1.0000
  H   H114      1.0  0.02791  0.53155  0.08028  1.0000
  H   H115      1.0  0.11387  0.51426  0.42580  1.0000
  C   C123      1.0  0.02176  0.52746  0.10103  1.0000
  C   C124      1.0  0.09366  0.52862  0.99775  1.0000
  H   H116      1.0  0.00625  0.57262  0.07202  1.0000
  H   H117      1.0  0.02642  0.53660  0.17136  1.0000
  C   C125      1.0  0.24559  0.65804  0.40838  1.0000
  C   C126      1.0  0.00241  0.59090  0.11487  1.0000
  C   C127      1.0  0.08764  0.65466  0.13019  1.0000
  H   H118      1.0  0.08874  0.66341  0.11566  1.0000
  C   C128      1.0  0.08530  0.53361  0.98760  1.0000
  H   H119      1.0  0.14262  0.54273  0.42215  1.0000
  H   H120      1.0  0.24407  0.63304  0.22440  1.0000
  H   H121      1.0  0.09848  0.54652  0.46984  1.0000
  H   H122      1.0  0.24386  0.65681  0.45296  1.0000
  C   C129      1.0  0.00227  0.57849  0.08236  1.0000
  C   C130      1.0  0.24936  0.66552  0.38083  1.0000
  H   H123      1.0  0.08247  0.65444  0.15173  1.0000
  H   H124      1.0  0.00635  0.59468  0.12983  1.0000
  S   S43       1.0  0.17706  0.66790  0.39086  1.0000
  S   S44       1.0  0.24539  0.65813  0.07761  1.0000
  H   H125      1.0  0.24833  0.66205  0.36269  1.0000
  C   C131      1.0  0.11345  0.52006  0.46430  1.0000
  C   C132      1.0  0.24724  0.60240  0.26680  1.0000
  H   H126      1.0  0.10512  0.51381  0.47573  1.0000
  S   S45       1.0  0.24882  0.58699  0.36146  1.0000
  S   S46       1.0  0.24889  0.62977  0.12594  1.0000
  H   H127      1.0  0.24682  0.66080  0.19947  1.0000
  H   H128      1.0  0.23434  0.66565  0.21481  1.0000
  H   H129      1.0  0.24929  0.61094  0.27247  1.0000
  H   H130      1.0  0.10152  0.52846  0.98282  1.0000
  H   H131      1.0  0.13162  0.60095  0.98230  1.0000
  S   S47       1.0  0.15236  0.61398  0.89559  1.0000
  S   S48       1.0  0.13011  0.63308  0.90538  1.0000
  Fe  Fe24      1.0  0.06727  0.52502  0.61741  1.0000
  S   S49       1.0  0.06247  0.50775  0.65179  1.0000
  S   S50       1.0  0.08066  0.53366  0.57366  1.0000
  Fe  Fe25      1.0  0.05429  0.53633  0.65952  1.0000
  S   S51       1.0  0.04831  0.52014  0.69550  1.0000
  S   S52       1.0  0.05031  0.55298  0.66709  1.0000
  Fe  Fe26      1.0  0.06678  0.51861  0.68279  1.0000
  S   S53       1.0  0.07865  0.51658  0.71380  1.0000
  Fe  Fe27      1.0  0.04414  0.51079  0.66212  1.0000
  S   S54       1.0  0.02512  0.49896  0.67740  1.0000
  S   S55       1.0  0.07277  0.53522  0.64780  1.0000
  S   S56       1.0  0.04894  0.52756  0.62691  1.0000
  Fe  Fe28      1.0  0.07426  0.61385  0.69479  1.0000
  S   S57       1.0  0.08518  0.60914  0.65842  1.0000
  S   S58       1.0  0.05420  0.61089  0.70365  1.0000
  Fe  Fe29      1.0  0.09557  0.62021  0.72218  1.0000
  S   S59       1.0  0.10749  0.61539  0.68733  1.0000
  S   S60       1.0  0.10135  0.62201  0.76371  1.0000
  Fe  Fe30      1.0  0.09922  0.62502  0.65597  1.0000
  S   S61       1.0  0.11073  0.63781  0.61361  1.0000
  Fe  Fe31      1.0  0.09243  0.60004  0.69253  1.0000
  S   S62       1.0  0.09330  0.58121  0.69880  1.0000
  S   S63       1.0  0.08786  0.63074  0.69060  1.0000
  S   S64       1.0  0.08096  0.60399  0.72881  1.0000
  H   H132      1.0  0.07983  0.65444  0.65458  1.0000
  H   H133      1.0  0.04182  0.54418  0.73671  1.0000
  H   H134      1.0  0.09791  0.60809  0.92752  1.0000
  Fe  Fe32      1.0  0.11223  0.56746  0.86006  1.0000
  S   S65       1.0  0.09488  0.55440  0.87210  1.0000
  S   S66       1.0  0.11462  0.58691  0.84549  1.0000
  Fe  Fe33      1.0  0.12545  0.54921  0.86749  1.0000
  S   S67       1.0  0.10888  0.53408  0.87969  1.0000
  S   S68       1.0  0.14484  0.54912  0.86014  1.0000
  Fe  Fe34      1.0  0.10345  0.54464  0.84319  1.0000
  S   S69       1.0  0.09175  0.54030  0.81286  1.0000
  Fe  Fe35      1.0  0.10103  0.54472  0.90784  1.0000
  H   H135      1.0  0.18361  0.61093  0.85837  1.0000
  S   S70       1.0  0.12056  0.55862  0.82914  1.0000
  S   S71       1.0  0.11777  0.55887  0.89776  1.0000
  Fe  Fe36      1.0  0.23159  0.59294  0.86593  1.0000
  N   N11       1.0  0.18767  0.62988  0.92445  1.0000
  Fe  Fe37      1.0  0.20480  0.59074  0.87849  1.0000
  S   S72       1.0  0.20817  0.61045  0.86603  1.0000
  S   S73       1.0  0.18487  0.58293  0.89512  1.0000
  Fe  Fe38      1.0  0.22211  0.61001  0.82889  1.0000
  C   C133      1.0  0.23161  0.60452  0.48823  1.0000
  C   C134      1.0  0.24246  0.59010  0.94988  1.0000
  H   H136      1.0  0.12444  0.65907  0.77682  1.0000
  S   S74       1.0  0.21832  0.59035  0.83979  1.0000
  C   C135      1.0  0.02267  0.59056  0.70214  1.0000
  C   C136      1.0  0.12467  0.64458  0.52729  1.0000
  H   H137      1.0  0.02828  0.53352  0.67368  1.0000
  S   S75       1.0  0.23269  0.62278  0.60251  1.0000
  H   H138      1.0  0.24422  0.64790  0.63890  1.0000
  S   S76       1.0  0.23833  0.60407  0.67393  1.0000
  C   C137      1.0  0.09245  0.53951  0.48717  1.0000
  S   S77       1.0  0.23634  0.60624  0.53903  1.0000
  C   C138      1.0  0.22750  0.61661  0.75434  1.0000
  N   N12       1.0  0.06670  0.63991  0.65302  1.0000
  C   C139      1.0  0.23390  0.62089  0.70233  1.0000
  C   C140      1.0  0.23368  0.60907  0.70432  1.0000
  C   C141      1.0  0.23019  0.60102  0.73132  1.0000
  C   C142      1.0  0.22725  0.60479  0.75626  1.0000
  H   H139      1.0  0.09871  0.55478  0.64436  1.0000
  H   H140      1.0  0.22999  0.59186  0.73293  1.0000
  H   H141      1.0  0.22477  0.59853  0.77690  1.0000
  H   H142      1.0  0.18385  0.59625  0.93903  1.0000
  H   H143      1.0  0.17081  0.61222  0.84555  1.0000
  H   H144      1.0  0.18911  0.64632  0.89610  1.0000
  C   C143      1.0  0.23356  0.61201  0.50600  1.0000
  H   H145      1.0  0.13979  0.62245  0.80445  1.0000
  H   H146      1.0  0.11654  0.58157  0.91926  1.0000
  H   H147      1.0  0.02917  0.60188  0.72719  1.0000
  H   H148      1.0  0.13394  0.60621  0.76898  1.0000
  H   H149      1.0  0.99992  0.49192  0.69699  1.0000
  H   H150      1.0  0.09415  0.65370  0.61158  1.0000
  C   C144      1.0  0.15590  0.55873  0.86965  1.0000
  C   C145      1.0  0.15314  0.56555  0.88857  1.0000
  C   C146      1.0  0.16212  0.57272  0.89630  1.0000
  C   C147      1.0  0.17402  0.57346  0.88475  1.0000
  C   C148      1.0  0.17681  0.56681  0.86545  1.0000
  C   C149      1.0  0.16780  0.55941  0.85823  1.0000
  H   H151      1.0  0.14407  0.56507  0.89782  1.0000
  H   H152      1.0  0.15981  0.57771  0.91146  1.0000
  H   H153      1.0  0.18589  0.56719  0.85647  1.0000
  H   H154      1.0  0.17007  0.55412  0.84376  1.0000
  C   C150      1.0  0.08856  0.53399  0.78445  1.0000
  C   C151      1.0  0.09510  0.52695  0.77273  1.0000
  C   C152      1.0  0.09196  0.52181  0.75119  1.0000
  C   C153      1.0  0.08240  0.52379  0.74038  1.0000
  C   C154      1.0  0.07602  0.53107  0.75164  1.0000
  C   C155      1.0  0.07901  0.53603  0.77360  1.0000
  H   H155      1.0  0.10254  0.52534  0.78036  1.0000
  H   H156      1.0  0.09702  0.51625  0.74274  1.0000
  H   H157      1.0  0.06863  0.53271  0.74380  1.0000
  H   H158      1.0  0.07385  0.54145  0.78229  1.0000
  C   C156      1.0  0.08242  0.53177  0.53834  1.0000
  C   C157      1.0  0.09020  0.54079  0.51535  1.0000
  N   N13       1.0  0.12059  0.60291  0.95401  1.0000
  C   C158      1.0  0.07872  0.56172  0.59067  1.0000
  C   C159      1.0  0.07924  0.52008  0.50452  1.0000
  C   C160      1.0  0.07688  0.52142  0.53267  1.0000
  H   H159      1.0  0.09457  0.54883  0.51939  1.0000
  H   H160      1.0  0.10251  0.62087  0.53440  1.0000
  H   H161      1.0  0.19728  0.64733  0.92225  1.0000
  H   H162      1.0  0.07093  0.51436  0.55003  1.0000
  C   C161      1.0  0.01415  0.49215  0.66218  1.0000
  C   C162      1.0  0.01690  0.48885  0.63662  1.0000
  C   C163      1.0  0.00794  0.48256  0.62691  1.0000
  H   H163      1.0  0.14024  0.64925  0.71393  1.0000
  C   C164      1.0  0.18902  0.64261  0.91867  1.0000
  C   C165      1.0  0.11513  0.58897  0.92760  1.0000
  H   H164      1.0  0.02597  0.49076  0.62481  1.0000
  H   H165      1.0  0.01028  0.47973  0.60761  1.0000
  H   H166      1.0  0.17045  0.59944  0.87268  1.0000
  C   C166      1.0  0.18487  0.60568  0.93515  1.0000
  C   C167      1.0  0.06116  0.56015  0.68085  1.0000
  C   C168      1.0  0.06221  0.57193  0.68085  1.0000
  C   C169      1.0  0.07154  0.57811  0.68898  1.0000
  C   C170      1.0  0.08019  0.57272  0.69578  1.0000
  C   C171      1.0  0.07875  0.56072  0.69762  1.0000
  C   C172      1.0  0.06910  0.55439  0.69069  1.0000
  H   H167      1.0  0.05605  0.57641  0.67362  1.0000
  H   H168      1.0  0.07219  0.58716  0.68906  1.0000
  H   H169      1.0  0.08522  0.55636  0.70371  1.0000
  H   H170      1.0  0.06795  0.54511  0.69260  1.0000
  C   C173      1.0  0.11737  0.63602  0.51903  1.0000
  C   C174      1.0  0.10643  0.62759  0.56954  1.0000
  C   C175      1.0  0.11349  0.63640  0.57766  1.0000
  C   C176      1.0  0.12264  0.64485  0.55630  1.0000
  C   C177      1.0  0.03340  0.56282  0.72068  1.0000
  C   C178      1.0  0.03735  0.58858  0.66349  1.0000
  C   C179      1.0  0.23315  0.62372  0.49719  1.0000
  C   C180      1.0  0.12156  0.64455  0.81346  1.0000
  C   C181      1.0  0.11592  0.63261  0.82551  1.0000
  C   C182      1.0  0.10955  0.62600  0.81041  1.0000
  C   C183      1.0  0.10865  0.63116  0.78289  1.0000
  C   C184      1.0  0.11398  0.64321  0.77122  1.0000
  H   H171      1.0  0.16921  0.60527  0.92078  1.0000
  C   C185      1.0  0.04624  0.59598  0.67113  1.0000
  H   H172      1.0  0.10536  0.61677  0.82013  1.0000
  H   H173      1.0  0.11334  0.64745  0.75033  1.0000
  H   H174      1.0  0.04135  0.56414  0.72880  1.0000
  C   C186      1.0  0.14305  0.60686  0.87804  1.0000
  C   C187      1.0  0.14256  0.59517  0.87754  1.0000
  C   C188      1.0  0.13428  0.58912  0.86598  1.0000
  C   C189      1.0  0.12626  0.59466  0.85581  1.0000
  C   C190      1.0  0.12714  0.60646  0.85514  1.0000
  C   C191      1.0  0.13567  0.61263  0.86567  1.0000
  H   H175      1.0  0.14831  0.59068  0.88683  1.0000
  H   H176      1.0  0.13396  0.58013  0.86555  1.0000
  H   H177      1.0  0.12101  0.61073  0.84712  1.0000
  H   H178      1.0  0.13640  0.62180  0.86448  1.0000
  Fe  Fe39      1.0  0.14841  0.63120  0.89930  1.0000
  H   H179      1.0  0.23453  0.62952  0.51088  1.0000
  N   N14       1.0  0.09672  0.57342  0.77332  1.0000
  C   C192      1.0  0.10190  0.58094  0.78704  1.0000
  C   C193      1.0  0.08559  0.57308  0.77079  1.0000
  C   C194      1.0  0.09598  0.58853  0.79821  1.0000
  C   C195      1.0  0.07938  0.58045  0.78199  1.0000
  C   C196      1.0  0.08469  0.58832  0.79549  1.0000
  C   C197      1.0  0.10348  0.56637  0.75942  1.0000
  H   H180      1.0  0.11069  0.58116  0.78927  1.0000
  H   H181      1.0  0.08158  0.56729  0.75939  1.0000
  H   H182      1.0  0.10015  0.59463  0.80870  1.0000
  H   H183      1.0  0.07066  0.58032  0.77939  1.0000
  H   H184      1.0  0.08015  0.59438  0.80346  1.0000
  H   H185      1.0  0.10933  0.57189  0.73854  1.0000
  H   H186      1.0  0.10872  0.56263  0.77319  1.0000
  H   H187      1.0  0.09765  0.55881  0.75539  1.0000
  N   N15       1.0  0.13413  0.62411  0.76616  1.0000
  C   C198      1.0  0.14000  0.62824  0.78438  1.0000
  C   C199      1.0  0.13440  0.63146  0.74082  1.0000
  H   H188      1.0  0.06164  0.63677  0.69802  1.0000
  C   C200      1.0  0.14039  0.64337  0.73356  1.0000
  H   H189      1.0  0.23186  0.59543  0.49493  1.0000
  S   S78       1.0  0.23609  0.61257  0.85221  1.0000
  C   C201      1.0  0.11186  0.60804  0.94865  1.0000
  H   H190      1.0  0.12959  0.62825  0.72655  1.0000
  H   H191      1.0  0.11385  0.53653  0.50927  1.0000
  C   C202      1.0  0.00756  0.53743  0.62484  1.0000
  Fe  Fe40      1.0  0.15894  0.65680  0.89821  1.0000
  H   H192      1.0  0.23412  0.63549  0.95626  1.0000
  C   C203      1.0  0.08552  0.64757  0.61896  1.0000
  H   H193      1.0  0.12308  0.60863  0.79673  1.0000
  H   H194      1.0  0.18159  0.64456  0.93273  1.0000
  H   H195      1.0  0.08096  0.51360  0.83528  1.0000
  C   C204      1.0  0.07886  0.51996  0.88315  1.0000
  H   H196      1.0  0.13165  0.65125  0.51122  1.0000
  H   H197      1.0  0.17184  0.62688  0.91133  1.0000
  C   C205      1.0  0.07175  0.63078  0.61499  1.0000
  H   H198      1.0  0.23092  0.63378  0.72567  1.0000
  C   C206      1.0  0.00224  0.48942  0.67721  1.0000
  C   C207      1.0  0.05855  0.64024  0.67912  1.0000
  C   C208      1.0  0.12238  0.59360  0.94340  1.0000
  H   H199      1.0  0.12094  0.61023  0.76184  1.0000
  C   C209      1.0  0.22580  0.61832  0.95315  1.0000
  H   H200      1.0  0.07501  0.51196  0.50054  1.0000
  H   H201      1.0  0.01364  0.58855  0.71429  1.0000
  C   C210      1.0  0.14612  0.64771  0.75243  1.0000
  H   H202      1.0  0.13625  0.61452  0.95430  1.0000
  H   H203      1.0  0.00176  0.53860  0.61106  1.0000
  H   H204      1.0  0.07551  0.55600  0.57810  1.0000
  S   S79       1.0  0.01477  0.57592  0.66873  1.0000
  C   C211      1.0  0.17669  0.61076  0.92474  1.0000
  H   H205      1.0  0.03606  0.56670  0.69726  1.0000
  C   C212      1.0  0.08696  0.57583  0.62368  1.0000
  Fe  Fe41      1.0  0.13792  0.64973  0.87068  1.0000
  H   H206      1.0  0.07637  0.52577  0.86694  1.0000
  S   S80       1.0  0.15633  0.64747  0.86373  1.0000
  H   H207      1.0  0.20297  0.60164  0.77752  1.0000
  H   H208      1.0  0.00350  0.51149  0.62452  1.0000
  H   H209      1.0  0.07350  0.58465  0.61694  1.0000
  H   H210      1.0  0.11645  0.62850  0.84659  1.0000
  S   S81       1.0  0.21769  0.59119  0.90602  1.0000
  H   H211      1.0  0.08739  0.50177  0.84555  1.0000
  H   H212      1.0  0.05527  0.59801  0.65895  1.0000
  N   N16       1.0  0.17956  0.60018  0.83050  1.0000
  C   C213      1.0  0.17160  0.59109  0.82696  1.0000
  C   C214      1.0  0.19066  0.60407  0.81276  1.0000
  C   C215      1.0  0.17481  0.58531  0.80598  1.0000
  C   C216      1.0  0.19414  0.59856  0.79140  1.0000
  C   C217      1.0  0.18619  0.58905  0.78819  1.0000
  C   C218      1.0  0.17595  0.60604  0.85274  1.0000
  H   H213      1.0  0.16277  0.58804  0.84092  1.0000
  H   H214      1.0  0.19695  0.61144  0.81506  1.0000
  H   H215      1.0  0.16857  0.57782  0.80401  1.0000
  C   C219      1.0  0.06384  0.63136  0.63936  1.0000
  H   H216      1.0  0.18884  0.58458  0.77197  1.0000
  C   C220      1.0  0.08263  0.63898  0.60472  1.0000
  H   H217      1.0  0.23657  0.62716  0.68161  1.0000
  C   C221      1.0  0.02239  0.53472  0.66014  1.0000
  C   C222      1.0  0.10105  0.56425  0.63277  1.0000
  N   N17       1.0  0.09181  0.56679  0.61927  1.0000
  N   N18       1.0  0.02741  0.55036  0.72665  1.0000
  C   C223      1.0  0.03290  0.54181  0.73484  1.0000
  C   C224      1.0  0.01644  0.54741  0.72265  1.0000
  C   C225      1.0  0.02718  0.52991  0.74021  1.0000
  C   C226      1.0  0.01046  0.53560  0.72797  1.0000
  C   C227      1.0  0.01587  0.52680  0.73680  1.0000
  C   C228      1.0  0.23072  0.62462  0.72730  1.0000
  H   H218      1.0  0.12816  0.65173  0.56216  1.0000
  H   H219      1.0  0.01235  0.55426  0.71510  1.0000
  S   S82       1.0  0.13059  0.65319  0.83054  1.0000
  H   H220      1.0  0.24264  0.58305  0.80274  1.0000
  H   H221      1.0  0.01136  0.51761  0.74061  1.0000
  H   H222      1.0  0.10090  0.59092  0.90865  1.0000
  H   H223      1.0  0.03971  0.58493  0.64557  1.0000
  C   C229      1.0  0.10464  0.60383  0.93227  1.0000
  H   H224      1.0  0.09198  0.55292  0.59840  1.0000
  H   H225      1.0  0.10220  0.56935  0.64882  1.0000
  H   H226      1.0  0.05548  0.62482  0.64750  1.0000
  H   H227      1.0  0.15001  0.64348  0.79329  1.0000
  C   C230      1.0  0.08816  0.50482  0.89639  1.0000
  C   C231      1.0  0.07640  0.52112  0.91112  1.0000
  C   C232      1.0  0.08583  0.50575  0.92458  1.0000
  C   C233      1.0  0.07985  0.51392  0.93195  1.0000
  H   H228      1.0  0.09300  0.49860  0.89068  1.0000
  H   H229      1.0  0.20082  0.60894  0.94852  1.0000
  C   C234      1.0  0.08742  0.51091  0.84662  1.0000
  S   S83       1.0  0.11973  0.63522  0.97944  1.0000
  H   H230      1.0  0.08879  0.50033  0.94054  1.0000
  H   H231      1.0  0.07814  0.51488  0.95365  1.0000
  H   H232      1.0  0.21741  0.60025  0.95719  1.0000
  S   S84       1.0  0.22477  0.62358  0.91799  1.0000
  H   H233      1.0  0.09622  0.51683  0.83502  1.0000
  S   S85       1.0  0.24564  0.65794  0.57969  1.0000
  H   H234      1.0  0.03156  0.52315  0.74665  1.0000
  H   H235      1.0  0.06952  0.62392  0.60440  1.0000
  H   H236      1.0  0.06591  0.57174  0.58799  1.0000
  C   C235      1.0  0.17823  0.62296  0.91947  1.0000
  N   N19       1.0  0.00689  0.52647  0.64087  1.0000
  C   C236      1.0  0.19570  0.62495  0.93491  1.0000
  S   S86       1.0  0.15212  0.63987  0.93340  1.0000
  H   H237      1.0  0.15037  0.65701  0.74773  1.0000
  C   C237      1.0  0.23081  0.62624  0.96720  1.0000
  C   C238      1.0  0.07762  0.57779  0.61239  1.0000
  H   H238      1.0  0.00171  0.53329  0.72505  1.0000
  C   C239      1.0  0.12776  0.61167  0.77367  1.0000
  H   H239      1.0  0.10435  0.52239  0.51436  1.0000
  C   C240      1.0  0.04342  0.60084  0.69420  1.0000
  N   N20       1.0  0.08452  0.51175  0.87622  1.0000
  S   S87       1.0  0.22394  0.62165  0.78524  1.0000
  S   S88       1.0  0.14089  0.66053  0.90286  1.0000
  H   H240      1.0  0.07212  0.52779  0.91655  1.0000
  H   H241      1.0  0.09011  0.58140  0.63659  1.0000
  C   C241      1.0  0.03155  0.59812  0.70946  1.0000
  H   H242      1.0  0.02749  0.56767  0.73068  1.0000
  H   H243      1.0  0.02920  0.55357  0.64585  1.0000
  C   C242      1.0  0.19440  0.61279  0.94044  1.0000
  C   C243      1.0  0.08806  0.56001  0.60227  1.0000
  H   H244      1.0  0.09938  0.62100  0.58556  1.0000
  C   C244      1.0  0.10825  0.62753  0.54043  1.0000
  C   C245      1.0  0.12031  0.64981  0.78638  1.0000
  C   C246      1.0  0.14596  0.64011  0.77797  1.0000
  C   C247      1.0  0.02300  0.54595  0.64428  1.0000
  H   H245      1.0  0.10951  0.56643  0.61634  1.0000
  C   C248      1.0  0.01418  0.52504  0.65834  1.0000
  H   H246      1.0  0.20324  0.63038  0.93885  1.0000
  H   H247      1.0  0.11863  0.52339  0.52078  1.0000
  Fe  Fe42      1.0  0.13423  0.64315  0.93729  1.0000
  Fe  Fe43      1.0  0.22173  0.61083  0.89082  1.0000
  C   C249      1.0  0.07741  0.64790  0.64324  1.0000
  C   C250      1.0  0.07338  0.57056  0.59614  1.0000
  S   S89       1.0  0.24733  0.58498  0.86246  1.0000
  C   C251      1.0  0.02549  0.58574  0.67897  1.0000
  S   S90       1.0  0.08674  0.53939  0.95037  1.0000
  C   C252      1.0  0.10630  0.59421  0.92174  1.0000
  H   H248      1.0  0.08892  0.63861  0.58602  1.0000
  C   C253      1.0  0.22148  0.60640  0.96752  1.0000
  H   H249      1.0  0.11061  0.61561  0.95652  1.0000
  Fe  Fe44      1.0  0.24328  0.61718  0.56704  1.0000
  H   H250      1.0  0.04960  0.63466  0.68212  1.0000
  H   H251      1.0  0.05787  0.64936  0.67847  1.0000
  H   H252      1.0  0.01357  0.51637  0.67113  1.0000
  H   H253      1.0  0.01589  0.55607  0.61429  1.0000
  H   H254      1.0  0.23441  0.59152  0.94519  1.0000
  C   C254      1.0  0.01557  0.54734  0.62645  1.0000
  C   C255      1.0  0.11369  0.52752  0.50681  1.0000
  Fe  Fe45      1.0  0.24421  0.61610  0.62902  1.0000
  H   H255      1.0  0.24171  0.57474  0.93363  1.0000
  H   H256      1.0  0.24597  0.60547  0.96555  1.0000
  Fe  Fe46      1.0  0.24734  0.63937  0.58722  1.0000
  C   C256      1.0  0.24652  0.58063  0.94358  1.0000
  S   S91       1.0  0.17820  0.66657  0.89455  1.0000
  H   H257      1.0  0.12956  0.58979  0.94674  1.0000
  C   C257      1.0  0.12855  0.60789  0.96964  1.0000
  H   H258      1.0  0.22446  0.66411  0.60835  1.0000
  S   S92       1.0  0.11851  0.63611  0.48233  1.0000
  C   C258      1.0  0.24905  0.59796  0.96139  1.0000
  C   C259      1.0  0.24819  0.65724  0.63361  1.0000
  H   H259      1.0  0.22524  0.66737  0.65563  1.0000
  H   H260      1.0  0.22715  0.72112  0.33722  1.0000
  C   C260      1.0  0.21865  0.70730  0.32106  1.0000
  H   H261      1.0  0.24363  0.72805  0.27854  1.0000
  C   C261      1.0  0.20131  0.69793  0.41400  1.0000
  C   C262      1.0  0.19773  0.71032  0.35043  1.0000
  C   C263      1.0  0.22228  0.70326  0.01193  1.0000
  C   C264      1.0  0.22828  0.69590  0.02522  1.0000
  N   N21       1.0  0.23056  0.68660  0.01510  1.0000
  H   H262      1.0  0.23159  0.66971  0.03658  1.0000
  C   C265      1.0  0.18606  0.67913  0.40168  1.0000
  H   H263      1.0  0.23937  0.68167  0.04740  1.0000
  C   C266      1.0  0.20785  0.70037  0.32090  1.0000
  H   H264      1.0  0.21532  0.69188  0.39216  1.0000
  N   N22       1.0  0.19758  0.70182  0.33583  1.0000
  C   C267      1.0  0.18637  0.69457  0.33505  1.0000
  C   C268      1.0  0.18901  0.69586  0.42267  1.0000
  H   H265      1.0  0.18528  0.70160  0.43393  1.0000
  C   C269      1.0  0.20836  0.71743  0.35096  1.0000
  H   H266      1.0  0.20774  0.69375  0.30898  1.0000
  C   C270      1.0  0.18146  0.68652  0.41679  1.0000
  H   H267      1.0  0.22678  0.70603  0.30950  1.0000
  H   H268      1.0  0.17936  0.69353  0.35464  1.0000
  C   C271      1.0  0.19836  0.68117  0.39303  1.0000
  H   H269      1.0  0.20211  0.67563  0.38115  1.0000
  H   H270      1.0  0.17206  0.68519  0.42352  1.0000
  S   S93       1.0  0.24395  0.72996  0.37913  1.0000
  C   C272      1.0  0.21887  0.71582  0.33638  1.0000
  H   H271      1.0  0.18962  0.71142  0.36251  1.0000
  S   S94       1.0  0.23772  0.72474  0.44803  1.0000
  H   H272      1.0  0.23135  0.69786  0.04321  1.0000
  Fe  Fe47      1.0  0.23025  0.71652  0.41615  1.0000
  S   S95       1.0  0.21040  0.71059  0.41980  1.0000
  H   H273      1.0  0.24457  0.68113  0.46115  1.0000
  C   C273      1.0  0.20592  0.69041  0.39931  1.0000
  S   S96       1.0  0.24048  0.70293  0.41874  1.0000
  H   H274      1.0  0.20846  0.72384  0.36350  1.0000
  C   C274      1.0  0.23696  0.67897  0.02885  1.0000
  H   H275      1.0  0.18368  0.69862  0.31604  1.0000
  H   H276      1.0  0.18699  0.68551  0.33445  1.0000
  H   H277      1.0  0.24527  0.67938  0.01345  1.0000
  H   H278      1.0  0.24876  0.72418  0.32491  1.0000
  C   C275      1.0  0.22706  0.68444  0.99174  1.0000
  H   H279      1.0  0.22073  0.71078  0.01961  1.0000
  Fe  Fe48      1.0  0.24876  0.71185  0.44796  1.0000
  H   H280      1.0  0.24583  0.68005  0.09283  1.0000
  C   C276      1.0  0.21854  0.70102  0.98832  1.0000
  H   H281      1.0  0.24871  0.73305  0.03389  1.0000
  C   C277      1.0  0.24940  0.72241  0.28225  1.0000
  H   H282      1.0  0.22909  0.67722  0.98340  1.0000
  H   H283      1.0  0.23156  0.70586  0.86802  1.0000
  H   H284      1.0  0.18881  0.70472  0.91979  1.0000
  H   H285      1.0  0.17484  0.68808  0.91221  1.0000
  C   C278      1.0  0.20772  0.68836  0.90271  1.0000
  H   H286      1.0  0.22370  0.67196  0.55983  1.0000
  H   H287      1.0  0.23887  0.68008  0.54936  1.0000
  H   H288      1.0  0.23070  0.68777  0.66072  1.0000
  H   H289      1.0  0.21502  0.71360  0.80021  1.0000
  H   H290      1.0  0.21647  0.71383  0.84953  1.0000
  C   C279      1.0  0.22978  0.68041  0.55882  1.0000
  H   H291      1.0  0.24481  0.69732  0.83805  1.0000
  H   H292      1.0  0.24085  0.68592  0.78871  1.0000
  H   H293      1.0  0.24359  0.73072  0.54036  1.0000
  C   C280      1.0  0.20393  0.69784  0.91036  1.0000
  H   H294      1.0  0.20291  0.67185  0.89172  1.0000
  C   C281      1.0  0.23229  0.69577  0.61648  1.0000
  H   H295      1.0  0.21678  0.68821  0.90041  1.0000
  H   H296      1.0  0.23487  0.70474  0.61827  1.0000
  C   C282      1.0  0.18779  0.67870  0.90130  1.0000
  H   H297      1.0  0.22863  0.70532  0.77037  1.0000
  C   C283      1.0  0.22991  0.68627  0.64028  1.0000
  C   C284      1.0  0.22915  0.70520  0.79202  1.0000
  S   S97       1.0  0.24538  0.70551  0.91182  1.0000
  H   H298      1.0  0.21823  0.68993  0.95940  1.0000
  H   H299      1.0  0.24701  0.69986  0.76204  1.0000
  C   C285      1.0  0.23078  0.70559  0.84677  1.0000
  C   C286      1.0  0.18396  0.68806  0.90949  1.0000
  C   C287      1.0  0.22633  0.67304  0.61064  1.0000
  S   S98       1.0  0.24000  0.72553  0.94586  1.0000
  H   H300      1.0  0.23369  0.70105  0.57162  1.0000
  Fe  Fe49      1.0  0.23334  0.71746  0.91280  1.0000
  S   S99       1.0  0.21366  0.71031  0.91551  1.0000
  C   C288      1.0  0.22150  0.70999  0.80868  1.0000
  C   C289      1.0  0.19976  0.67898  0.89797  1.0000
  C   C290      1.0  0.22234  0.71016  0.83625  1.0000
  C   C291      1.0  0.19196  0.69753  0.91379  1.0000
  C   C292      1.0  0.23169  0.69365  0.59006  1.0000
  H   H301      1.0  0.22767  0.68759  0.54428  1.0000
  N   N23       1.0  0.23740  0.70071  0.80259  1.0000
  N   N24       1.0  0.22891  0.68240  0.58731  1.0000
  C   C293      1.0  0.22679  0.67482  0.63746  1.0000
  C   C294      1.0  0.23820  0.70074  0.82972  1.0000
  C   C295      1.0  0.24508  0.69539  0.78516  1.0000
  H   H302      1.0  0.21396  0.70671  0.97760  1.0000
  S   S100      1.0  0.24594  0.73244  0.87713  1.0000
  C   C296      1.0  0.24783  0.72365  0.53926  1.0000
  C   C297      1.0  0.22095  0.69157  0.97806  1.0000
  H   H303      1.0  0.24280  0.72078  0.50160  1.0000
  C   C298      1.0  0.24741  0.71804  0.51717  1.0000
  H   H304      1.0  0.24410  0.73209  0.77717  1.0000
  H   H305      1.0  0.46380  0.08418  0.09626  1.0000
  C   C299      1.0  0.48228  0.08153  0.05861  1.0000
  H   H306      1.0  0.45240  0.00808  0.21483  1.0000
  S   S101      1.0  0.49925  0.08612  0.22615  1.0000
  H   H307      1.0  0.47669  0.08926  0.10789  1.0000
  H   H308      1.0  0.46644  0.07540  0.12715  1.0000
  N   N25       1.0  0.47740  0.07570  0.08675  1.0000
  C   C300      1.0  0.47073  0.08137  0.10550  1.0000
  C   C301      1.0  0.48536  0.05945  0.07949  1.0000
  C   C302      1.0  0.45975  0.00485  0.21949  1.0000
  H   H309      1.0  0.46952  0.00497  0.13853  1.0000
  H   H310      1.0  0.49863  0.08418  0.28566  1.0000
  S   S102      1.0  0.48805  0.04407  0.14750  1.0000
  H   H311      1.0  0.48785  0.01442  0.22241  1.0000
  H   H312      1.0  0.47098  0.02211  0.21301  1.0000
  C   C303      1.0  0.48880  0.07644  0.04018  1.0000
  C   C304      1.0  0.45635  0.01336  0.15405  1.0000
  C   C305      1.0  0.46791  0.01277  0.14439  1.0000
  C   C306      1.0  0.47742  0.02225  0.14236  1.0000
  C   C307      1.0  0.47558  0.03259  0.14959  1.0000
  C   C308      1.0  0.46402  0.03333  0.15860  1.0000
  C   C309      1.0  0.45451  0.02379  0.16079  1.0000
  C   C310      1.0  0.49036  0.06533  0.05076  1.0000
  H   H313      1.0  0.48628  0.02151  0.13523  1.0000
  H   H314      1.0  0.46237  0.04116  0.16434  1.0000
  H   H315      1.0  0.44563  0.02443  0.16819  1.0000
  C   C311      1.0  0.49906  0.12810  0.47375  1.0000
  S   S103      1.0  0.48829  0.07839  0.15513  1.0000
  Fe  Fe50      1.0  0.49590  0.06307  0.14921  1.0000
  C   C312      1.0  0.49344  0.12640  0.45249  1.0000
  H   H316      1.0  0.47520  0.06020  0.11972  1.0000
  H   H317      1.0  0.49236  0.13370  0.40990  1.0000
  C   C313      1.0  0.47890  0.06480  0.09733  1.0000
  C   C314      1.0  0.47014  0.01270  0.21860  1.0000
  H   H318      1.0  0.48656  0.05083  0.08807  1.0000
  H   H319      1.0  0.48146  0.09035  0.05047  1.0000
  H   H320      1.0  0.49553  0.06136  0.03677  1.0000
  H   H321      1.0  0.49287  0.08124  0.01802  1.0000
  C   C315      1.0  0.47957  0.00840  0.22404  1.0000
  H   H322      1.0  0.48696  0.11820  0.45565  1.0000
  C   C316      1.0  0.49654  0.13505  0.42677  1.0000
  H   H323      1.0  0.48951  0.09374  0.78051  1.0000
  H   H324      1.0  0.48243  0.01785  0.66683  1.0000
  H   H325      1.0  0.44722  0.02625  0.63962  1.0000
  Fe  Fe51      1.0  0.49339  0.06229  0.65557  1.0000
  C   C317      1.0  0.49866  0.09829  0.77133  1.0000
  C   C318      1.0  0.46406  0.02951  0.72530  1.0000
  C   C319      1.0  0.49474  0.01138  0.60384  1.0000
  H   H326      1.0  0.49628  0.04388  0.60216  1.0000
  H   H327      1.0  0.49728  0.08661  0.54599  1.0000
  C   C320      1.0  0.45496  0.02438  0.64533  1.0000
  H   H328      1.0  0.47987  0.01162  0.58623  1.0000
  C   C321      1.0  0.48757  0.02857  0.59159  1.0000
  S   S104      1.0  0.48472  0.04253  0.66151  1.0000
  S   S105      1.0  0.48785  0.07943  0.65321  1.0000
  H   H329      1.0  0.48123  0.03273  0.58395  1.0000
  H   H330      1.0  0.46262  0.04252  0.64409  1.0000
  C   C322      1.0  0.45605  0.01271  0.65035  1.0000
  C   C323      1.0  0.46615  0.01054  0.65759  1.0000
  C   C324      1.0  0.47477  0.01975  0.66076  1.0000
  C   C325      1.0  0.47362  0.03139  0.65606  1.0000
  C   C326      1.0  0.46370  0.03366  0.64787  1.0000
  H   H331      1.0  0.46767  0.03870  0.72402  1.0000
  C   C327      1.0  0.47053  0.02133  0.73108  1.0000
  C   C328      1.0  0.48680  0.01672  0.59294  1.0000
  C   C329      1.0  0.45320  0.02591  0.71982  1.0000
  H   H332      1.0  0.44827  0.03228  0.71450  1.0000
  Fe  Fe52      1.0  0.49947  0.08353  0.68286  1.0000
  S   S106      1.0  0.49564  0.09019  0.72388  1.0000
  C   C330      1.0  0.46603  0.00963  0.73126  1.0000
  H   H333      1.0  0.44074  0.01152  0.71465  1.0000
  N   N26       1.0  0.45548  0.00623  0.72523  1.0000
  H   H334      1.0  0.49948  0.12754  0.79381  1.0000
  H   H335      1.0  0.49452  0.13371  0.83850  1.0000
  H   H336      1.0  0.47120  0.00338  0.73538  1.0000
  C   C331      1.0  0.49614  0.03485  0.60187  1.0000
  H   H337      1.0  0.47915  0.02414  0.73443  1.0000
  H   H338      1.0  0.49767  0.08872  0.49479  1.0000
  H   H339      1.0  0.49687  0.12128  0.49358  1.0000
  C   C332      1.0  0.44901  0.01416  0.71989  1.0000
  Fe  Fe53      1.0  0.45311  0.52506  0.11029  1.0000
  S   S107      1.0  0.43721  0.53246  0.11292  1.0000
  S   S108      1.0  0.45104  0.50544  0.11685  1.0000
  Fe  Fe54      1.0  0.46937  0.54877  0.09830  1.0000
  S   S109      1.0  0.45514  0.55815  0.09984  1.0000
  S   S110      1.0  0.48822  0.55828  0.08991  1.0000
  Fe  Fe55      1.0  0.44532  0.54354  0.13908  1.0000
  S   S111      1.0  0.43359  0.54719  0.17740  1.0000
  Fe  Fe56      1.0  0.44818  0.54654  0.07345  1.0000
  S   S112      1.0  0.44328  0.55684  0.03509  1.0000
  S   S113      1.0  0.46018  0.53490  0.13934  1.0000
  S   S114      1.0  0.46342  0.53831  0.06909  1.0000
  C   C333      1.0  0.31403  0.63174  0.29226  1.0000
  C   C334      1.0  0.40265  0.55446  0.46943  1.0000
  S   S115      1.0  0.48529  0.47167  0.12717  1.0000
  N   N27       1.0  0.46286  0.56575  0.44102  1.0000
  N   N28       1.0  0.31117  0.61364  0.04167  1.0000
  C   C335      1.0  0.38863  0.56061  0.44674  1.0000
  H   H340      1.0  0.43219  0.50609  0.16344  1.0000
  H   H341      1.0  0.40912  0.51036  0.20083  1.0000
  C   C336      1.0  0.31108  0.60662  0.02320  1.0000
  H   H342      1.0  0.46769  0.49063  0.05411  1.0000
  Fe  Fe57      1.0  0.43095  0.56068  0.33469  1.0000
  S   S116      1.0  0.42488  0.57733  0.32989  1.0000
  S   S117      1.0  0.44064  0.55418  0.29826  1.0000
  H   H343      1.0  0.40167  0.53906  0.43904  1.0000
  H   H344      1.0  0.48796  0.63809  0.04425  1.0000
  H   H345      1.0  0.45047  0.58805  0.30692  1.0000
  Fe  Fe58      1.0  0.41025  0.56758  0.36951  1.0000
  C   C337      1.0  0.43030  0.51975  0.21631  1.0000
  Fe  Fe59      1.0  0.43508  0.58146  0.36145  1.0000
  S   S118      1.0  0.44913  0.59813  0.35393  1.0000
  S   S119      1.0  0.41578  0.55054  0.37264  1.0000
  S   S120      1.0  0.44216  0.56561  0.36370  1.0000
  Fe  Fe60      1.0  0.35340  0.65399  0.12949  1.0000
  S   S121      1.0  0.35740  0.63633  0.13397  1.0000
  H   H346      1.0  0.44340  0.59207  0.45747  1.0000
  Fe  Fe61      1.0  0.32745  0.64377  0.13732  1.0000
  S   S122      1.0  0.32935  0.62531  0.14313  1.0000
  S   S123      1.0  0.31018  0.64854  0.13943  1.0000
  Fe  Fe62      1.0  0.34118  0.63021  0.17058  1.0000
  S   S124      1.0  0.33891  0.61680  0.21207  1.0000
  Fe  Fe63      1.0  0.34522  0.63305  0.10583  1.0000
  S   S125      1.0  0.34890  0.62297  0.07210  1.0000
  S   S126      1.0  0.33796  0.64808  0.16798  1.0000
  S   S127      1.0  0.34257  0.65127  0.09826  1.0000
  Fe  Fe64      1.0  0.33427  0.61916  0.36841  1.0000
  S   S128      1.0  0.32467  0.60061  0.37279  1.0000
  S   S129      1.0  0.34124  0.63260  0.32550  1.0000
  Fe  Fe65      1.0  0.32981  0.61559  0.43377  1.0000
  C   C338      1.0  0.41685  0.51710  0.18599  1.0000
  N   N29       1.0  0.30802  0.62122  0.31141  1.0000
  Fe  Fe66      1.0  0.33470  0.59625  0.40561  1.0000
  S   S130      1.0  0.34266  0.58062  0.40471  1.0000
  Fe  Fe67      1.0  0.31110  0.60309  0.40801  1.0000
  S   S131      1.0  0.29142  0.60155  0.41604  1.0000
  S   S132      1.0  0.34501  0.61483  0.39943  1.0000
  S   S133      1.0  0.32029  0.62194  0.40173  1.0000
  H   H347      1.0  0.34790  0.61524  0.48025  1.0000
  H   H348      1.0  0.48981  0.60268  0.07558  1.0000
  S   S134      1.0  0.27402  0.61547  0.09598  1.0000
  Fe  Fe68      1.0  0.47915  0.62257  0.45170  1.0000
  S   S135      1.0  0.41999  0.57319  0.40056  1.0000
  H   H349      1.0  0.25200  0.59647  0.27706  1.0000
  C   C339      1.0  0.28022  0.59817  0.39842  1.0000
  S   S136      1.0  0.42804  0.54482  0.44143  1.0000
  C   C340      1.0  0.27136  0.58822  0.36700  1.0000
  C   C341      1.0  0.26100  0.59179  0.37503  1.0000
  C   C342      1.0  0.26044  0.59880  0.39430  1.0000
  C   C343      1.0  0.26994  0.60188  0.40605  1.0000
  H   H350      1.0  0.30542  0.61115  0.35415  1.0000
  C   C344      1.0  0.32170  0.59508  0.04859  1.0000
  H   H351      1.0  0.46448  0.61453  0.29152  1.0000
  H   H352      1.0  0.30904  0.63019  0.04837  1.0000
  C   C345      1.0  0.34464  0.62545  0.03966  1.0000
  C   C346      1.0  0.33880  0.63410  0.03248  1.0000
  C   C347      1.0  0.33455  0.63507  0.00791  1.0000
  H   H353      1.0  0.39153  0.54403  0.42091  1.0000
  H   H354      1.0  0.30748  0.62789  0.01475  1.0000
  C   C348      1.0  0.34651  0.61804  0.02151  1.0000
  H   H355      1.0  0.33737  0.63991  0.04612  1.0000
  H   H356      1.0  0.28872  0.58837  0.37273  1.0000
  H   H357      1.0  0.37788  0.66291  0.21105  1.0000
  H   H358      1.0  0.35108  0.61137  0.02683  1.0000
  C   C349      1.0  0.33944  0.62151  0.24317  1.0000
  C   C350      1.0  0.33527  0.61313  0.26962  1.0000
  C   C351      1.0  0.33571  0.61647  0.29493  1.0000
  C   C352      1.0  0.34041  0.62821  0.29402  1.0000
  C   C353      1.0  0.34468  0.63659  0.26749  1.0000
  C   C354      1.0  0.34417  0.63327  0.24209  1.0000
  H   H359      1.0  0.33166  0.60401  0.27055  1.0000
  H   H360      1.0  0.33254  0.60991  0.31500  1.0000
  H   H361      1.0  0.34841  0.64570  0.26657  1.0000
  H   H362      1.0  0.34753  0.63978  0.22171  1.0000
  C   C355      1.0  0.30006  0.63919  0.12790  1.0000
  C   C356      1.0  0.30273  0.62953  0.11902  1.0000
  C   C357      1.0  0.29452  0.62214  0.10998  1.0000
  C   C358      1.0  0.28383  0.62466  0.10859  1.0000
  C   C359      1.0  0.28118  0.63440  0.11716  1.0000
  C   C360      1.0  0.28919  0.64152  0.12736  1.0000
  H   H363      1.0  0.31109  0.62772  0.11911  1.0000
  H   H364      1.0  0.29645  0.61446  0.10398  1.0000
  H   H365      1.0  0.27303  0.63650  0.11585  1.0000
  H   H366      1.0  0.28702  0.64891  0.13449  1.0000
  S   S137      1.0  0.39062  0.56532  0.37476  1.0000
  H   H367      1.0  0.36705  0.65762  0.17602  1.0000
  C   C361      1.0  0.37796  0.57079  0.38230  1.0000
  C   C362      1.0  0.37809  0.58210  0.38622  1.0000
  C   C363      1.0  0.36743  0.58552  0.39276  1.0000
  C   C364      1.0  0.35664  0.57758  0.39579  1.0000
  C   C365      1.0  0.35668  0.56637  0.39200  1.0000
  C   C366      1.0  0.36718  0.56306  0.38517  1.0000
  C   C367      1.0  0.43441  0.50953  0.18077  1.0000
  H   H368      1.0  0.36755  0.59418  0.39591  1.0000
  H   H369      1.0  0.34848  0.56014  0.39434  1.0000
  H   H370      1.0  0.36690  0.55433  0.38230  1.0000
  C   C368      1.0  0.46027  0.60361  0.43378  1.0000
  C   C369      1.0  0.44934  0.59614  0.43652  1.0000
  C   C370      1.0  0.44594  0.59424  0.41209  1.0000
  C   C371      1.0  0.45351  0.59969  0.38492  1.0000
  C   C372      1.0  0.46466  0.60667  0.38238  1.0000
  C   C373      1.0  0.46800  0.60870  0.40672  1.0000
  C   C374      1.0  0.34214  0.61892  0.99709  1.0000
  H   H371      1.0  0.43734  0.58886  0.41433  1.0000
  H   H372      1.0  0.47081  0.61040  0.36167  1.0000
  H   H373      1.0  0.47664  0.61408  0.40459  1.0000
  H   H374      1.0  0.25255  0.60160  0.40075  1.0000
  H   H375      1.0  0.27184  0.58271  0.35231  1.0000
  H   H376      1.0  0.30731  0.60853  0.00524  1.0000
  H   H377      1.0  0.29847  0.66301  0.08593  1.0000
  H   H378      1.0  0.31670  0.59204  0.01088  1.0000
  S   S138      1.0  0.46446  0.60614  0.46421  1.0000
  C   C375      1.0  0.43201  0.54861  0.47163  1.0000
  H   H379      1.0  0.45008  0.50330  0.17757  1.0000
  S   S139      1.0  0.32816  0.62473  0.46990  1.0000
  H   H380      1.0  0.41532  0.57772  0.00424  1.0000
  C   C376      1.0  0.43797  0.55310  0.00627  1.0000
  C   C377      1.0  0.25326  0.66513  0.09820  1.0000
  H   H381      1.0  0.47819  0.47558  0.06885  1.0000
  C   C378      1.0  0.26412  0.61374  0.18991  1.0000
  H   H382      1.0  0.36388  0.62096  0.23755  1.0000
  C   C379      1.0  0.43372  0.54147  0.00553  1.0000
  H   H383      1.0  0.40003  0.66383  0.15808  1.0000
  H   H384      1.0  0.38230  0.55903  0.43443  1.0000
  C   C380      1.0  0.46804  0.57443  0.99134  1.0000
  H   H385      1.0  0.43367  0.53431  0.02288  1.0000
  C   C381      1.0  0.43609  0.54972  0.21017  1.0000
  C   C382      1.0  0.42765  0.55333  0.22817  1.0000
  C   C383      1.0  0.42890  0.55484  0.25502  1.0000
  C   C384      1.0  0.43852  0.55250  0.26456  1.0000
  C   C385      1.0  0.44690  0.54877  0.24667  1.0000
  C   C386      1.0  0.44582  0.54758  0.21949  1.0000
  H   H386      1.0  0.42005  0.55498  0.22131  1.0000
  H   H387      1.0  0.42234  0.55767  0.26845  1.0000
  H   H388      1.0  0.45435  0.54685  0.25384  1.0000
  H   H389      1.0  0.45241  0.54482  0.20597  1.0000
  C   C387      1.0  0.46113  0.49679  0.12176  1.0000
  C   C388      1.0  0.45724  0.48479  0.12387  1.0000
  C   C389      1.0  0.46476  0.47739  0.12616  1.0000
  C   C390      1.0  0.47640  0.48179  0.12620  1.0000
  C   C391      1.0  0.48041  0.49381  0.12461  1.0000
  C   C392      1.0  0.47273  0.50131  0.12257  1.0000
  H   H390      1.0  0.44833  0.48116  0.12343  1.0000
  H   H391      1.0  0.46153  0.46815  0.12755  1.0000
  H   H392      1.0  0.48937  0.49731  0.12481  1.0000
  H   H393      1.0  0.47584  0.51056  0.12111  1.0000
  Fe  Fe69      1.0  0.48557  0.64913  0.44377  1.0000
  C   C393      1.0  0.46654  0.57534  0.22981  1.0000
  C   C394      1.0  0.48071  0.56285  0.16932  1.0000
  C   C395      1.0  0.47968  0.56057  0.14331  1.0000
  H   H394      1.0  0.26280  0.65206  0.10608  1.0000
  H   H395      1.0  0.47290  0.56180  0.18592  1.0000
  H   H396      1.0  0.47109  0.55802  0.13993  1.0000
  C   C396      1.0  0.26080  0.65983  0.11114  1.0000
  C   C397      1.0  0.46274  0.64469  0.03530  1.0000
  H   H397      1.0  0.42485  0.52454  0.22698  1.0000
  N   N30       1.0  0.48681  0.65450  0.02005  1.0000
  C   C398      1.0  0.44757  0.51238  0.21075  1.0000
  C   C399      1.0  0.47959  0.66092  0.01048  1.0000
  H   H398      1.0  0.41566  0.52600  0.18654  1.0000
  H   H399      1.0  0.26925  0.60708  0.42139  1.0000
  N   N31       1.0  0.36137  0.60907  0.27831  1.0000
  C   C400      1.0  0.36363  0.61800  0.29121  1.0000
  C   C401      1.0  0.35735  0.59763  0.29428  1.0000
  C   C402      1.0  0.36160  0.61559  0.32091  1.0000
  C   C403      1.0  0.35530  0.59490  0.32404  1.0000
  C   C404      1.0  0.35744  0.60397  0.33733  1.0000
  C   C405      1.0  0.36368  0.61167  0.24711  1.0000
  H   H400      1.0  0.36667  0.62710  0.27870  1.0000
  H   H401      1.0  0.35564  0.59054  0.28407  1.0000
  H   H402      1.0  0.36300  0.62273  0.33115  1.0000
  H   H403      1.0  0.35202  0.58584  0.33686  1.0000
  H   H404      1.0  0.35581  0.60196  0.36037  1.0000
  H   H405      1.0  0.39159  0.66545  0.11647  1.0000
  H   H406      1.0  0.32991  0.64169  0.00275  1.0000
  C   C406      1.0  0.49165  0.63325  0.27251  1.0000
  N   N32       1.0  0.46721  0.57988  0.25480  1.0000
  C   C407      1.0  0.45754  0.58202  0.27064  1.0000
  C   C408      1.0  0.47758  0.58185  0.26231  1.0000
  C   C409      1.0  0.45817  0.58641  0.29442  1.0000
  C   C410      1.0  0.47847  0.58611  0.28618  1.0000
  C   C411      1.0  0.46870  0.58845  0.30225  1.0000
  H   H407      1.0  0.46186  0.66116  0.00947  1.0000
  H   H408      1.0  0.45382  0.57187  0.41090  1.0000
  H   H409      1.0  0.48523  0.58007  0.24992  1.0000
  H   H410      1.0  0.35660  0.60613  0.24079  1.0000
  H   H411      1.0  0.48670  0.58755  0.29214  1.0000
  H   H412      1.0  0.32112  0.64112  0.24769  1.0000
  C   C412      1.0  0.49178  0.56671  0.17353  1.0000
  C   C413      1.0  0.47076  0.62672  0.31470  1.0000
  C   C414      1.0  0.47087  0.57707  0.47035  1.0000
  H   H413      1.0  0.31373  0.62383  0.23035  1.0000
  H   H414      1.0  0.27156  0.59332  0.47160  1.0000
  H   H415      1.0  0.30331  0.62701  0.47135  1.0000
  H   H416      1.0  0.49781  0.64481  0.29702  1.0000
  S   S140      1.0  0.48220  0.63369  0.48192  1.0000
  H   H417      1.0  0.44267  0.52193  0.24179  1.0000
  C   C415      1.0  0.46759  0.57640  0.44517  1.0000
  C   C416      1.0  0.32161  0.60219  0.06757  1.0000
  C   C417      1.0  0.44454  0.50788  0.18876  1.0000
  N   N33       1.0  0.46689  0.58567  0.98425  1.0000
  H   H418      1.0  0.45774  0.57431  0.22563  1.0000
  C   C418      1.0  0.45909  0.56540  0.41488  1.0000
  H   H419      1.0  0.38636  0.58817  0.38413  1.0000
  H   H420      1.0  0.38527  0.57726  0.45047  1.0000
  Fe  Fe70      1.0  0.25675  0.61989  0.09679  1.0000
  C   C419      1.0  0.43408  0.56015  0.47441  1.0000
  C   C420      1.0  0.46748  0.65611  0.01783  1.0000
  H   H421      1.0  0.30234  0.60491  0.26542  1.0000
  H   H422      1.0  0.47313  0.58132  0.21047  1.0000
  C   C421      1.0  0.31601  0.63288  0.26286  1.0000
  C   C422      1.0  0.49531  0.50231  0.05512  1.0000
  H   H423      1.0  0.29597  0.62009  0.04708  1.0000
  C   C423      1.0  0.30595  0.62021  0.34211  1.0000
  H   H424      1.0  0.41729  0.51641  0.16380  1.0000
  C   C424      1.0  0.31640  0.59728  0.02626  1.0000
  C   C425      1.0  0.30357  0.61174  0.30209  1.0000
  H   H425      1.0  0.46662  0.62927  0.05839  1.0000
  H   H426      1.0  0.46252  0.62409  0.33108  1.0000
  C   C426      1.0  0.48970  0.56173  0.12180  1.0000
  H   H427      1.0  0.41205  0.55621  0.00930  1.0000
  H   H428      1.0  0.27223  0.62006  0.17707  1.0000
  C   C427      1.0  0.31625  0.61147  0.06379  1.0000
  H   H429      1.0  0.47590  0.64811  0.33606  1.0000
  H   H430      1.0  0.45339  0.55662  0.41655  1.0000
  C   C428      1.0  0.47904  0.64005  0.34098  1.0000
  C   C429      1.0  0.46181  0.55555  0.46083  1.0000
  N   N34       1.0  0.48565  0.49411  0.05493  1.0000
  H   H431      1.0  0.31668  0.61723  0.07794  1.0000
  N   N35       1.0  0.39509  0.55274  0.45271  1.0000
  H   H432      1.0  0.45337  0.64078  0.04076  1.0000
  H   H433      1.0  0.49359  0.47984  0.06388  1.0000
  C   C430      1.0  0.47457  0.50864  0.05340  1.0000
  S   S141      1.0  0.31998  0.59672  0.44186  1.0000
  N   N36       1.0  0.25048  0.60415  0.23572  1.0000
  C   C431      1.0  0.47540  0.49717  0.05382  1.0000
  H   H434      1.0  0.32618  0.58811  0.05073  1.0000
  C   C432      1.0  0.27315  0.60078  0.48072  1.0000
  H   H435      1.0  0.39960  0.58094  0.47940  1.0000
  H   H436      1.0  0.46919  0.57075  0.01219  1.0000
  C   C433      1.0  0.30560  0.62342  0.03783  1.0000
  C   C434      1.0  0.47015  0.63824  0.04522  1.0000
  H   H437      1.0  0.37220  0.61003  0.23781  1.0000
  C   C435      1.0  0.28097  0.59147  0.37844  1.0000
  H   H438      1.0  0.48350  0.62014  0.25406  1.0000
  H   H439      1.0  0.46628  0.51091  0.05369  1.0000
  H   H440      1.0  0.43328  0.56713  0.45782  1.0000
  H   H441      1.0  0.45553  0.51137  0.21675  1.0000
  C   C436      1.0  0.30552  0.61253  0.27282  1.0000
  C   C437      1.0  0.44038  0.51829  0.22478  1.0000
  H   H442      1.0  0.26632  0.61719  0.22956  1.0000
  Fe  Fe71      1.0  0.42657  0.55702  0.40106  1.0000
  S   S142      1.0  0.49285  0.56983  0.20593  1.0000
  H   H443      1.0  0.47713  0.59619  0.00425  1.0000
  S   S143      1.0  0.25287  0.62966  0.05763  1.0000
  N   N37       1.0  0.42754  0.51557  0.19423  1.0000
  H   H444      1.0  0.29863  0.60346  0.31732  1.0000
  H   H445      1.0  0.46869  0.58445  0.42913  1.0000
  H   H446      1.0  0.48777  0.48098  0.03291  1.0000
  C   C438      1.0  0.37215  0.66655  0.17240  1.0000
  C   C439      1.0  0.49038  0.63835  0.29555  1.0000
  H   H447      1.0  0.27164  0.66046  0.14058  1.0000
  H   H448      1.0  0.44920  0.58009  0.26532  1.0000
  H   H449      1.0  0.47285  0.63374  0.36052  1.0000
  S   S144      1.0  0.48083  0.63777  0.41491  1.0000
  N   N38       1.0  0.48012  0.63483  0.31664  1.0000
  H   H450      1.0  0.44096  0.57129  0.98402  1.0000
  C   C440      1.0  0.40442  0.56462  0.47923  1.0000
  H   H451      1.0  0.47428  0.58558  0.47380  1.0000
  H   H452      1.0  0.29759  0.62238  0.35039  1.0000
  C   C441      1.0  0.26599  0.66474  0.13024  1.0000
  C   C442      1.0  0.47180  0.62130  0.29223  1.0000
  S   S145      1.0  0.47598  0.66288  0.45465  1.0000
  H   H453      1.0  0.31325  0.62619  0.34668  1.0000
  H   H454      1.0  0.49350  0.42490  0.24173  1.0000
  C   C443      1.0  0.48635  0.48207  0.05495  1.0000
  C   C444      1.0  0.40879  0.56153  0.99379  1.0000
  C   C445      1.0  0.31182  0.62317  0.25313  1.0000
  H   H455      1.0  0.46274  0.58774  0.02648  1.0000
  H   H456      1.0  0.31767  0.63923  0.29964  1.0000
  C   C446      1.0  0.25695  0.60724  0.17686  1.0000
  C   C447      1.0  0.39823  0.57295  0.47221  1.0000
  H   H457      1.0  0.46926  0.59175  0.32085  1.0000
  H   H458      1.0  0.46841  0.56656  0.23331  1.0000
  C   C448      1.0  0.39021  0.57091  0.45602  1.0000
  C   C449      1.0  0.26074  0.61206  0.21956  1.0000
  H   H459      1.0  0.46683  0.56750  0.39635  1.0000
  H   H460      1.0  0.40745  0.54800  0.47505  1.0000
  C   C450      1.0  0.39352  0.54216  0.44211  1.0000
  H   H461      1.0  0.48761  0.64239  0.34619  1.0000
  H   H462      1.0  0.32613  0.60091  0.08430  1.0000
  H   H463      1.0  0.29162  0.60231  0.47340  1.0000
  H   H464      1.0  0.48368  0.52585  0.05463  1.0000
  C   C451      1.0  0.46779  0.59294  0.00450  1.0000
  H   H465      1.0  0.46418  0.60068  0.99912  1.0000
  H   H466      1.0  0.45803  0.54709  0.45762  1.0000
  C   C452      1.0  0.48224  0.64329  0.03722  1.0000
  C   C453      1.0  0.49476  0.51385  0.05491  1.0000
  C   C454      1.0  0.28449  0.60591  0.48180  1.0000
  H   H467      1.0  0.38624  0.53504  0.45741  1.0000
  C   C455      1.0  0.48431  0.51701  0.05411  1.0000
  C   C456      1.0  0.33597  0.62733  0.99046  1.0000
  C   C457      1.0  0.41065  0.57361  0.99088  1.0000
  H   H468      1.0  0.49371  0.61780  0.36194  1.0000
  H   H469      1.0  0.49198  0.60572  0.32719  1.0000
  C   C458      1.0  0.49632  0.61077  0.07274  1.0000
  H   H470      1.0  0.25940  0.60851  0.15388  1.0000
  S   S146      1.0  0.49467  0.61574  0.01723  1.0000
  H   H471      1.0  0.26107  0.60993  0.98869  1.0000
  H   H472      1.0  0.28724  0.66423  0.04939  1.0000
  H   H473      1.0  0.27067  0.60053  0.99296  1.0000
  C   C459      1.0  0.48238  0.62451  0.27117  1.0000
  S   S147      1.0  0.49776  0.62155  0.43918  1.0000
  H   H474      1.0  0.49866  0.45259  0.20512  1.0000
  H   H475      1.0  0.49893  0.47004  0.22421  1.0000
  H   H476      1.0  0.49846  0.60583  0.11557  1.0000
  C   C460      1.0  0.43784  0.56226  0.98356  1.0000
  C   C461      1.0  0.42922  0.53908  0.98258  1.0000
  H   H477      1.0  0.34334  0.61295  0.98379  1.0000
  H   H478      1.0  0.42571  0.53006  0.98256  1.0000
  C   C462      1.0  0.49919  0.61348  0.32175  1.0000
  H   H479      1.0  0.49927  0.58484  0.08040  1.0000
  Fe  Fe72      1.0  0.45956  0.52521  0.60186  1.0000
  S   S148      1.0  0.44173  0.52850  0.61590  1.0000
  S   S149      1.0  0.46360  0.50906  0.58952  1.0000
  Fe  Fe73      1.0  0.47207  0.54954  0.60212  1.0000
  S   S150      1.0  0.45566  0.55498  0.61622  1.0000
  S   S151      1.0  0.48998  0.56138  0.59218  1.0000
  Fe  Fe74      1.0  0.44934  0.53707  0.64715  1.0000
  S   S152      1.0  0.44238  0.53230  0.69589  1.0000
  Fe  Fe75      1.0  0.44950  0.54625  0.58367  1.0000
  S   S153      1.0  0.44299  0.55752  0.55020  1.0000
  S   S154      1.0  0.46648  0.53229  0.63487  1.0000
  S   S155      1.0  0.46661  0.54222  0.56775  1.0000
  C   C463      1.0  0.27768  0.62024  0.50235  1.0000
  H   H480      1.0  0.32641  0.63579  0.51580  1.0000
  S   S156      1.0  0.49261  0.47713  0.64655  1.0000
  H   H481      1.0  0.44252  0.47238  0.65432  1.0000
  C   C464      1.0  0.46949  0.56674  0.49110  1.0000
  H   H482      1.0  0.47162  0.56711  0.51117  1.0000
  H   H483      1.0  0.40798  0.58977  0.96798  1.0000
  C   C465      1.0  0.25268  0.60672  0.78716  1.0000
  H   H484      1.0  0.38050  0.66626  0.71167  1.0000
  C   C466      1.0  0.40658  0.58036  0.97053  1.0000
  Fe  Fe76      1.0  0.42429  0.56448  0.82711  1.0000
  S   S157      1.0  0.42502  0.58343  0.82678  1.0000
  S   S158      1.0  0.42562  0.56272  0.78122  1.0000
  H   H485      1.0  0.37832  0.56839  0.87823  1.0000
  H   H486      1.0  0.49403  0.61406  0.86696  1.0000
  C   C467      1.0  0.30785  0.60883  0.57056  1.0000
  Fe  Fe77      1.0  0.41091  0.57664  0.86805  1.0000
  S   S159      1.0  0.39783  0.58736  0.87982  1.0000
  Fe  Fe78      1.0  0.43776  0.58190  0.85320  1.0000
  S   S160      1.0  0.45499  0.59534  0.84327  1.0000
  S   S161      1.0  0.40918  0.55766  0.86734  1.0000
  S   S162      1.0  0.43807  0.56350  0.85139  1.0000
  Fe  Fe79      1.0  0.35891  0.65526  0.62726  1.0000
  S   S163      1.0  0.36433  0.63840  0.62832  1.0000
  C   C468      1.0  0.36497  0.62237  0.82073  1.0000
  Fe  Fe80      1.0  0.33318  0.64309  0.63908  1.0000
  S   S164      1.0  0.33652  0.62536  0.64120  1.0000
  S   S165      1.0  0.31445  0.64399  0.65032  1.0000
  Fe  Fe81      1.0  0.34895  0.63074  0.66688  1.0000
  S   S166      1.0  0.34820  0.61744  0.70722  1.0000
  Fe  Fe82      1.0  0.35138  0.63463  0.60235  1.0000
  S   S167      1.0  0.35564  0.62585  0.56634  1.0000
  S   S168      1.0  0.34447  0.64786  0.66766  1.0000
  S   S169      1.0  0.34710  0.65213  0.59826  1.0000
  Fe  Fe83      1.0  0.33335  0.62040  0.86412  1.0000
  S   S170      1.0  0.32367  0.60183  0.86894  1.0000
  S   S171      1.0  0.34083  0.63393  0.82157  1.0000
  Fe  Fe84      1.0  0.32903  0.61723  0.92916  1.0000
  H   H487      1.0  0.27310  0.66583  0.61568  1.0000
  H   H488      1.0  0.25747  0.63084  0.73225  1.0000
  Fe  Fe85      1.0  0.33377  0.59760  0.90175  1.0000
  S   S172      1.0  0.34282  0.58275  0.89905  1.0000
  Fe  Fe86      1.0  0.31014  0.60438  0.90433  1.0000
  S   S173      1.0  0.29029  0.60235  0.91272  1.0000
  S   S174      1.0  0.34409  0.61620  0.89498  1.0000
  S   S175      1.0  0.31936  0.62332  0.89716  1.0000
  H   H489      1.0  0.39716  0.55056  0.93126  1.0000
  Fe  Fe87      1.0  0.26649  0.62663  0.58040  1.0000
  S   S176      1.0  0.28597  0.62890  0.56463  1.0000
  H   H490      1.0  0.37180  0.63761  0.78477  1.0000
  C   C469      1.0  0.45008  0.48023  0.64503  1.0000
  H   H491      1.0  0.46713  0.61799  0.78793  1.0000
  C   C470      1.0  0.27986  0.59898  0.89298  1.0000
  C   C471      1.0  0.27926  0.58954  0.88041  1.0000
  C   C472      1.0  0.26944  0.58559  0.87029  1.0000
  C   C473      1.0  0.26015  0.59107  0.87240  1.0000
  C   C474      1.0  0.26104  0.60087  0.88366  1.0000
  C   C475      1.0  0.27076  0.60472  0.89409  1.0000
  H   H492      1.0  0.28604  0.58486  0.87993  1.0000
  C   C476      1.0  0.46522  0.57180  0.94602  1.0000
  N   N39       1.0  0.25355  0.59848  0.77204  1.0000
  H   H493      1.0  0.27103  0.61195  0.90400  1.0000
  C   C477      1.0  0.34838  0.62620  0.53872  1.0000
  C   C478      1.0  0.33931  0.63177  0.53792  1.0000
  C   C479      1.0  0.33340  0.63143  0.51628  1.0000
  C   C480      1.0  0.43371  0.55987  0.96021  1.0000
  H   H494      1.0  0.32623  0.65812  0.76127  1.0000
  C   C481      1.0  0.35147  0.62029  0.51772  1.0000
  H   H495      1.0  0.33684  0.63634  0.55395  1.0000
  H   H496      1.0  0.46378  0.54781  0.50242  1.0000
  H   H497      1.0  0.48048  0.60643  0.49943  1.0000
  H   H498      1.0  0.35850  0.61598  0.51816  1.0000
  C   C482      1.0  0.34627  0.62211  0.73883  1.0000
  C   C483      1.0  0.34182  0.61370  0.76525  1.0000
  C   C484      1.0  0.34016  0.61721  0.79079  1.0000
  C   C485      1.0  0.34298  0.62917  0.79005  1.0000
  C   C486      1.0  0.34759  0.63756  0.76365  1.0000
  C   C487      1.0  0.34923  0.63405  0.73810  1.0000
  H   H499      1.0  0.33963  0.60444  0.76592  1.0000
  H   H500      1.0  0.33681  0.61066  0.81097  1.0000
  H   H501      1.0  0.34993  0.64682  0.76292  1.0000
  H   H502      1.0  0.35294  0.64059  0.71789  1.0000
  C   C488      1.0  0.30673  0.63909  0.62693  1.0000
  C   C489      1.0  0.31260  0.63930  0.59926  1.0000
  C   C490      1.0  0.30618  0.63618  0.58013  1.0000
  C   C491      1.0  0.29391  0.63256  0.58889  1.0000
  C   C492      1.0  0.28812  0.63201  0.61683  1.0000
  C   C493      1.0  0.29449  0.63544  0.63565  1.0000
  H   H503      1.0  0.32206  0.64215  0.59236  1.0000
  H   H504      1.0  0.31074  0.63660  0.55856  1.0000
  H   H505      1.0  0.27873  0.62882  0.62413  1.0000
  H   H506      1.0  0.28993  0.63523  0.65707  1.0000
  S   S177      1.0  0.48807  0.64365  0.90395  1.0000
  C   C494      1.0  0.25613  0.60169  0.74282  1.0000
  C   C495      1.0  0.38249  0.58570  0.88499  1.0000
  C   C496      1.0  0.37782  0.59493  0.89149  1.0000
  C   C497      1.0  0.36573  0.59412  0.89609  1.0000
  C   C498      1.0  0.35811  0.58403  0.89425  1.0000
  C   C499      1.0  0.36275  0.57474  0.88792  1.0000
  C   C500      1.0  0.37488  0.57557  0.88321  1.0000
  H   H507      1.0  0.38361  0.60278  0.89309  1.0000
  H   H508      1.0  0.36232  0.60127  0.90135  1.0000
  H   H509      1.0  0.46597  0.62567  0.82930  1.0000
  H   H510      1.0  0.45698  0.56977  0.71457  1.0000
  C   C501      1.0  0.45689  0.61417  0.91368  1.0000
  C   C502      1.0  0.46714  0.61342  0.89568  1.0000
  C   C503      1.0  0.46645  0.60752  0.87428  1.0000
  C   C504      1.0  0.45556  0.60256  0.87043  1.0000
  C   C505      1.0  0.44533  0.60353  0.88802  1.0000
  C   C506      1.0  0.44598  0.60923  0.90984  1.0000
  H   H511      1.0  0.47559  0.61727  0.89842  1.0000
  H   H512      1.0  0.47434  0.60678  0.86071  1.0000
  H   H513      1.0  0.43692  0.60012  0.88448  1.0000
  H   H514      1.0  0.43804  0.60989  0.92359  1.0000
  H   H515      1.0  0.25656  0.59516  0.73071  1.0000
  C   C507      1.0  0.47522  0.63014  0.82114  1.0000
  S   S178      1.0  0.25799  0.63320  0.61646  1.0000
  H   H516      1.0  0.35762  0.58663  0.80192  1.0000
  H   H517      1.0  0.33162  0.59927  0.54613  1.0000
  H   H518      1.0  0.30318  0.61210  0.61206  1.0000
  N   N40       1.0  0.48740  0.59353  0.55886  1.0000
  S   S179      1.0  0.48937  0.61785  0.94190  1.0000
  H   H519      1.0  0.41061  0.56604  0.49202  1.0000
  H   H520      1.0  0.33402  0.58965  0.60805  1.0000
  C   C508      1.0  0.43854  0.55378  0.52045  1.0000
  C   C509      1.0  0.43726  0.56270  0.49876  1.0000
  C   C510      1.0  0.48907  0.55736  0.67570  1.0000
  H   H521      1.0  0.28526  0.65318  0.55991  1.0000
  C   C511      1.0  0.43317  0.53970  0.49342  1.0000
  C   C512      1.0  0.43649  0.54226  0.51758  1.0000
  H   H522      1.0  0.25513  0.60167  0.49001  1.0000
  C   C513      1.0  0.31587  0.60515  0.55206  1.0000
  H   H523      1.0  0.43155  0.53073  0.49156  1.0000
  H   H524      1.0  0.43739  0.53530  0.53407  1.0000
  C   C514      1.0  0.43852  0.54131  0.71896  1.0000
  C   C515      1.0  0.43581  0.55194  0.70910  1.0000
  C   C516      1.0  0.43193  0.55833  0.72850  1.0000
  C   C517      1.0  0.43095  0.55436  0.75792  1.0000
  C   C518      1.0  0.43406  0.54394  0.76764  1.0000
  C   C519      1.0  0.43768  0.53741  0.74833  1.0000
  H   H525      1.0  0.43629  0.55505  0.68669  1.0000
  H   H526      1.0  0.42951  0.56635  0.72068  1.0000
  H   H527      1.0  0.43333  0.54073  0.79016  1.0000
  H   H528      1.0  0.43970  0.52918  0.75630  1.0000
  C   C520      1.0  0.47330  0.50170  0.60342  1.0000
  C   C521      1.0  0.47764  0.49377  0.58966  1.0000
  C   C522      1.0  0.48435  0.48681  0.60167  1.0000
  C   C523      1.0  0.48651  0.48750  0.62798  1.0000
  C   C524      1.0  0.48240  0.49563  0.64146  1.0000
  C   C525      1.0  0.47602  0.50288  0.62895  1.0000
  C   C526      1.0  0.28235  0.66032  0.56817  1.0000
  H   H529      1.0  0.25400  0.60521  0.88549  1.0000
  H   H530      1.0  0.48392  0.49612  0.66198  1.0000
  H   H531      1.0  0.47271  0.50892  0.63981  1.0000
  H   H532      1.0  0.48918  0.65840  0.53836  1.0000
  H   H533      1.0  0.27267  0.65722  0.57690  1.0000
  H   H534      1.0  0.49014  0.60368  0.82994  1.0000
  S   S180      1.0  0.31919  0.59826  0.93821  1.0000
  S   S181      1.0  0.45767  0.62077  0.94178  1.0000
  H   H535      1.0  0.47174  0.56853  0.70569  1.0000
  N   N41       1.0  0.25934  0.59632  0.96684  1.0000
  S   S182      1.0  0.42397  0.57669  0.89458  1.0000
  H   H536      1.0  0.36598  0.58763  0.82807  1.0000
  H   H537      1.0  0.47617  0.57908  0.59251  1.0000
  C   C527      1.0  0.47125  0.58365  0.78758  1.0000
  C   C528      1.0  0.39309  0.55748  0.93755  1.0000
  C   C529      1.0  0.46424  0.58334  0.93880  1.0000
  C   C530      1.0  0.45423  0.49464  0.70363  1.0000
  H   H538      1.0  0.26887  0.57798  0.86170  1.0000
  S   S183      1.0  0.42261  0.54484  0.93235  1.0000
  H   H539      1.0  0.47699  0.55212  0.65156  1.0000
  H   H540      1.0  0.45963  0.57732  0.56963  1.0000
  C   C531      1.0  0.47714  0.58508  0.57202  1.0000
  H   H541      1.0  0.43890  0.57166  0.50065  1.0000
  H   H542      1.0  0.34431  0.60050  0.57745  1.0000
  N   N42       1.0  0.44971  0.48842  0.66320  1.0000
  H   H543      1.0  0.34004  0.60450  0.60983  1.0000
  H   H544      1.0  0.36771  0.60407  0.76543  1.0000
  C   C532      1.0  0.46510  0.55589  0.48617  1.0000
  H   H545      1.0  0.49279  0.62830  0.54457  1.0000
  C   C533      1.0  0.46717  0.56731  0.97242  1.0000
  C   C534      1.0  0.26627  0.61538  0.50140  1.0000
  N   N43       1.0  0.28820  0.66304  0.59003  1.0000
  N   N44       1.0  0.48186  0.62796  0.79784  1.0000
  C   C535      1.0  0.49530  0.66220  0.51747  1.0000
  H   H546      1.0  0.45837  0.47738  0.64275  1.0000
  H   H547      1.0  0.48285  0.55301  0.69616  1.0000
  H   H548      1.0  0.47552  0.49276  0.56998  1.0000
  H   H549      1.0  0.49682  0.60773  0.52231  1.0000
  S   S184      1.0  0.32891  0.62788  0.96236  1.0000
  H   H550      1.0  0.44983  0.48448  0.62305  1.0000
  H   H551      1.0  0.27936  0.62787  0.51080  1.0000
  H   H552      1.0  0.25292  0.62489  0.78526  1.0000
  C   C536      1.0  0.33674  0.59906  0.59612  1.0000
  S   S185      1.0  0.25360  0.60904  0.59483  1.0000
  H   H553      1.0  0.43370  0.56705  0.94300  1.0000
  C   C537      1.0  0.32534  0.60196  0.56081  1.0000
  H   H554      1.0  0.38374  0.55346  0.94916  1.0000
  C   C538      1.0  0.25781  0.61341  0.72805  1.0000
  C   C539      1.0  0.47739  0.57447  0.75010  1.0000
  C   C540      1.0  0.31898  0.60608  0.60547  1.0000
  C   C541      1.0  0.25709  0.57910  0.94892  1.0000
  C   C542      1.0  0.49230  0.64329  0.82573  1.0000
  H   H555      1.0  0.47785  0.61026  0.79587  1.0000
  H   H556      1.0  0.46435  0.59913  0.95255  1.0000
  H   H557      1.0  0.35785  0.60570  0.85184  1.0000
  H   H558      1.0  0.47311  0.58788  0.80406  1.0000
  H   H559      1.0  0.44011  0.49823  0.64037  1.0000
  C   C543      1.0  0.26398  0.60554  0.49069  1.0000
  C   C544      1.0  0.35905  0.59076  0.81941  1.0000
  H   H560      1.0  0.39349  0.56393  0.91750  1.0000
  H   H561      1.0  0.47496  0.66553  0.92051  1.0000
  C   C545      1.0  0.25152  0.58617  0.78765  1.0000
  N   N45       1.0  0.28660  0.61543  0.49279  1.0000
  H   H562      1.0  0.44805  0.50954  0.71232  1.0000
  H   H563      1.0  0.25214  0.58027  0.77319  1.0000
  H   H564      1.0  0.46172  0.59118  0.52307  1.0000
  H   H565      1.0  0.37365  0.62578  0.74912  1.0000
  N   N46       1.0  0.31601  0.62870  0.78947  1.0000
  C   C546      1.0  0.31928  0.64041  0.78836  1.0000
  C   C547      1.0  0.31659  0.62513  0.76482  1.0000
  C   C548      1.0  0.32337  0.64888  0.76207  1.0000
  C   C549      1.0  0.32060  0.63337  0.73817  1.0000
  C   C550      1.0  0.32399  0.64531  0.73686  1.0000
  C   C551      1.0  0.31144  0.61997  0.81723  1.0000
  H   H566      1.0  0.31907  0.64322  0.80786  1.0000
  H   H567      1.0  0.31416  0.61585  0.76562  1.0000
  C   C552      1.0  0.49355  0.63347  0.78780  1.0000
  H   H568      1.0  0.32130  0.63052  0.71860  1.0000
  H   H569      1.0  0.32722  0.65178  0.71631  1.0000
  H   H570      1.0  0.31523  0.62309  0.83379  1.0000
  H   H571      1.0  0.30175  0.61823  0.82430  1.0000
  H   H572      1.0  0.31383  0.61159  0.81614  1.0000
  C   C553      1.0  0.48868  0.60106  0.53295  1.0000
  C   C554      1.0  0.47947  0.60034  0.51976  1.0000
  N   N47       1.0  0.46648  0.57281  0.74535  1.0000
  H   H573      1.0  0.45833  0.49366  0.72120  1.0000
  H   H574      1.0  0.25068  0.60414  0.81029  1.0000
  H   H575      1.0  0.48871  0.58156  0.77441  1.0000
  C   C555      1.0  0.42916  0.54825  0.95978  1.0000
  H   H576      1.0  0.26057  0.57204  0.94308  1.0000
  C   C556      1.0  0.47667  0.61886  0.78519  1.0000
  H   H577      1.0  0.43872  0.51159  0.67226  1.0000
  H   H578      1.0  0.49295  0.52353  0.55335  1.0000
  H   H579      1.0  0.25805  0.58535  0.80035  1.0000
  C   C557      1.0  0.44849  0.50354  0.69868  1.0000
  C   C558      1.0  0.46778  0.58404  0.55926  1.0000
  H   H580      1.0  0.49425  0.59709  0.59325  1.0000
  C   C559      1.0  0.44327  0.50473  0.67603  1.0000
  C   C560      1.0  0.28768  0.66873  0.63392  1.0000
  H   H581      1.0  0.31497  0.60505  0.53077  1.0000
  S   S186      1.0  0.25703  0.63430  0.54984  1.0000
  H   H582      1.0  0.32015  0.60651  0.62637  1.0000
  Fe  Fe88      1.0  0.42328  0.55833  0.89158  1.0000
  C   C561      1.0  0.36149  0.61008  0.82933  1.0000
  N   N48       1.0  0.32689  0.60263  0.58706  1.0000
  C   C562      1.0  0.48579  0.55678  0.65041  1.0000
  H   H583      1.0  0.48727  0.48042  0.59137  1.0000
  H   H584      1.0  0.37029  0.66048  0.67604  1.0000
  H   H585      1.0  0.46064  0.55711  0.73350  1.0000
  C   C563      1.0  0.46010  0.58176  0.78286  1.0000
  H   H586      1.0  0.25942  0.61584  0.70495  1.0000
  H   H587      1.0  0.49029  0.62319  0.59711  1.0000
  H   H588      1.0  0.35072  0.58767  0.83663  1.0000
  H   H589      1.0  0.36385  0.62747  0.83633  1.0000
  H   H590      1.0  0.30055  0.61151  0.56395  1.0000
  C   C564      1.0  0.49381  0.56238  0.62392  1.0000
  H   H591      1.0  0.49031  0.53907  0.57843  1.0000
  C   C565      1.0  0.45785  0.57627  0.76157  1.0000
  C   C566      1.0  0.46896  0.59178  0.53304  1.0000
  C   C567      1.0  0.49695  0.59455  0.57301  1.0000
  H   H592      1.0  0.48094  0.62086  0.76199  1.0000
  H   H593      1.0  0.35694  0.56687  0.88651  1.0000
  C   C568      1.0  0.49893  0.64125  0.80151  1.0000
  C   C569      1.0  0.25670  0.62182  0.74336  1.0000
  C   C570      1.0  0.47998  0.58003  0.77107  1.0000
  Fe  Fe89      1.0  0.47634  0.62866  0.93996  1.0000
  H   H594      1.0  0.49650  0.64892  0.83722  1.0000
  H   H595      1.0  0.45321  0.58447  0.79569  1.0000
  C   C571      1.0  0.48034  0.63779  0.83553  1.0000
  C   C572      1.0  0.25167  0.66236  0.65450  1.0000
  H   H596      1.0  0.48420  0.57158  0.73752  1.0000
  C   C573      1.0  0.36699  0.60914  0.78116  1.0000
  C   C574      1.0  0.30935  0.60921  0.59754  1.0000
  C   C575      1.0  0.44400  0.49708  0.65830  1.0000
  H   H597      1.0  0.45920  0.48017  0.68959  1.0000
  S   S187      1.0  0.48034  0.63684  0.97451  1.0000
  C   C576      1.0  0.45467  0.48704  0.68573  1.0000
  N   N49       1.0  0.36247  0.60364  0.80963  1.0000
  H   H598      1.0  0.46255  0.58687  0.91850  1.0000
  H   H599      1.0  0.44916  0.57483  0.75810  1.0000
  C   C577      1.0  0.36947  0.62807  0.79175  1.0000
  H   H600      1.0  0.46417  0.56627  0.93150  1.0000
  C   C578      1.0  0.46385  0.56675  0.72372  1.0000
  C   C579      1.0  0.37048  0.62143  0.77177  1.0000
  C   C580      1.0  0.46518  0.59021  0.95822  1.0000
  C   C581      1.0  0.26343  0.58709  0.96059  1.0000
  H   H601      1.0  0.39752  0.58021  0.93762  1.0000
  H   H602      1.0  0.31473  0.66608  0.60432  1.0000
  H   H603      1.0  0.25921  0.61920  0.50888  1.0000
  N   N50       1.0  0.39928  0.56312  0.95564  1.0000
  H   H604      1.0  0.29883  0.62592  0.50914  1.0000
  H   H605      1.0  0.27345  0.61124  0.95923  1.0000
  C   C582      1.0  0.29981  0.66334  0.58643  1.0000
  H   H606      1.0  0.30461  0.66113  0.56807  1.0000
  C   C583      1.0  0.49504  0.53276  0.58563  1.0000
  C   C584      1.0  0.29862  0.62092  0.49266  1.0000
  H   H607      1.0  0.47511  0.63916  0.85462  1.0000
  H   H608      1.0  0.25065  0.65689  0.67562  1.0000
  C   C585      1.0  0.40073  0.57491  0.95325  1.0000
  Fe  Fe90      1.0  0.49331  0.65109  0.93880  1.0000
  H   H609      1.0  0.27187  0.58612  0.96360  1.0000
  C   C586      1.0  0.28219  0.66585  0.61316  1.0000
  C   C587      1.0  0.40313  0.55642  0.97574  1.0000
  C   C588      1.0  0.25413  0.61848  0.77311  1.0000
  C   C589      1.0  0.30561  0.66620  0.60673  1.0000
  C   C590      1.0  0.24972  0.66425  0.60615  1.0000
  H   H610      1.0  0.30351  0.61417  0.49716  1.0000
  H   H611      1.0  0.40209  0.54709  0.97746  1.0000
  Fe  Fe91      1.0  0.49447  0.62727  0.97426  1.0000
  C   C591      1.0  0.34549  0.61986  0.49621  1.0000
  H   H612      1.0  0.39475  0.66596  0.60642  1.0000
  C   C592      1.0  0.26648  0.60496  0.97744  1.0000
  C   C593      1.0  0.33642  0.62544  0.49543  1.0000
  C   C594      1.0  0.49664  0.52412  0.57135  1.0000
  C   C595      1.0  0.29945  0.66880  0.63074  1.0000
  H   H613      1.0  0.49889  0.63148  0.76982  1.0000
  C   C596      1.0  0.49842  0.61004  0.82599  1.0000
  H   H614      1.0  0.46754  0.55822  0.97873  1.0000
  H   H615      1.0  0.49828  0.53994  0.62042  1.0000
  H   H616      1.0  0.28437  0.66829  0.55022  1.0000
  C   C597      1.0  0.49857  0.62355  0.58296  1.0000
  H   H617      1.0  0.49932  0.58605  0.57791  1.0000
  C   C598      1.0  0.49950  0.53322  0.60927  1.0000
  H   H618      1.0  0.47499  0.66854  0.50942  1.0000
  S   S188      1.0  0.44442  0.95034  0.15219  1.0000
  Fe  Fe92      1.0  0.25949  0.71622  0.18839  1.0000
  H   H619      1.0  0.46009  0.69956  0.35141  1.0000
  S   S189      1.0  0.29966  0.79706  0.42982  1.0000
  C   C599      1.0  0.27543  0.73266  0.47993  1.0000
  C   C600      1.0  0.47138  0.80071  0.44258  1.0000
  C   C601      1.0  0.39386  0.93740  0.30099  1.0000
  H   H620      1.0  0.48147  0.82509  0.38970  1.0000
  C   C602      1.0  0.47710  0.80442  0.32513  1.0000
  C   C603      1.0  0.34815  0.83752  0.01941  1.0000
  N   N51       1.0  0.29521  0.67843  0.09738  1.0000
  Fe  Fe93      1.0  0.25273  0.73659  0.41136  1.0000
  N   N52       1.0  0.40193  0.68296  0.09572  1.0000
  Fe  Fe94      1.0  0.43484  0.95615  0.18899  1.0000
  S   S190      1.0  0.40688  0.92607  0.01444  1.0000
  Fe  Fe95      1.0  0.41321  0.92332  0.40444  1.0000
  S   S191      1.0  0.41709  0.90581  0.40458  1.0000
  S   S192      1.0  0.41390  0.93751  0.36461  1.0000
  Fe  Fe96      1.0  0.40169  0.89821  0.44358  1.0000
  S   S193      1.0  0.39104  0.87911  0.44823  1.0000
  Fe  Fe97      1.0  0.42766  0.90996  0.43520  1.0000
  S   S194      1.0  0.44567  0.90713  0.43281  1.0000
  S   S195      1.0  0.39728  0.91577  0.44250  1.0000
  S   S196      1.0  0.42510  0.92805  0.43213  1.0000
  Fe  Fe98      1.0  0.47036  0.85522  0.44980  1.0000
  H   H621      1.0  0.44586  0.93865  0.09961  1.0000
  S   S197      1.0  0.47693  0.87534  0.44082  1.0000
  Fe  Fe99      1.0  0.46847  0.82864  0.45401  1.0000
  H   H622      1.0  0.45310  0.88240  0.43801  1.0000
  C   C604      1.0  0.25404  0.71924  0.05907  1.0000
  Fe  Fe100     1.0  0.45135  0.83991  0.43004  1.0000
  S   S198      1.0  0.44130  0.84167  0.39627  1.0000
  N   N53       1.0  0.42443  0.83111  0.11719  1.0000
  H   H623      1.0  0.29027  0.69372  0.10548  1.0000
  S   S199      1.0  0.47097  0.84441  0.41727  1.0000
  H   H624      1.0  0.47938  0.78681  0.33488  1.0000
  Fe  Fe101     1.0  0.44817  0.81600  0.20022  1.0000
  S   S200      1.0  0.43055  0.80424  0.20591  1.0000
  S   S201      1.0  0.46066  0.82379  0.15611  1.0000
  Fe  Fe102     1.0  0.44433  0.81351  0.26516  1.0000
  S   S202      1.0  0.42616  0.80183  0.27524  1.0000
  S   S203      1.0  0.45298  0.81439  0.30155  1.0000
  Fe  Fe103     1.0  0.43405  0.79299  0.24347  1.0000
  S   S204      1.0  0.43135  0.77345  0.25596  1.0000
  Fe  Fe104     1.0  0.42428  0.81422  0.23690  1.0000
  S   S205      1.0  0.40798  0.82027  0.23414  1.0000
  S   S206      1.0  0.45235  0.80381  0.23533  1.0000
  S   S207      1.0  0.44184  0.82691  0.22911  1.0000
  Fe  Fe105     1.0  0.31853  0.80357  0.43380  1.0000
  S   S208      1.0  0.32962  0.79083  0.43798  1.0000
  Fe  Fe106     1.0  0.33971  0.82482  0.43086  1.0000
  S   S209      1.0  0.35173  0.81286  0.43345  1.0000
  S   S210      1.0  0.34635  0.84466  0.42839  1.0000
  Fe  Fe107     1.0  0.34335  0.80478  0.40309  1.0000
  S   S211      1.0  0.35258  0.79880  0.36616  1.0000
  H   H625      1.0  0.29168  0.73720  0.25953  1.0000
  C   C605      1.0  0.32011  0.77973  0.36813  1.0000
  S   S212      1.0  0.33220  0.81747  0.39780  1.0000
  H   H626      1.0  0.28309  0.74191  0.08279  1.0000
  Fe  Fe108     1.0  0.35867  0.78948  0.18375  1.0000
  S   S213      1.0  0.35179  0.80557  0.18000  1.0000
  S   S214      1.0  0.37750  0.78872  0.17513  1.0000
  Fe  Fe109     1.0  0.33452  0.77283  0.20203  1.0000
  S   S215      1.0  0.32553  0.78741  0.20015  1.0000
  S   S216      1.0  0.32437  0.75384  0.21595  1.0000
  Fe  Fe110     1.0  0.33929  0.79626  0.15888  1.0000
  S   S217      1.0  0.33406  0.80596  0.12118  1.0000
  Fe  Fe111     1.0  0.33868  0.79528  0.22152  1.0000
  S   S218      1.0  0.33294  0.80402  0.25642  1.0000
  S   S219      1.0  0.34734  0.78101  0.15924  1.0000
  S   S220      1.0  0.34657  0.77989  0.22685  1.0000
  Fe  Fe112     1.0  0.44282  0.73191  0.39370  1.0000
  S   S221      1.0  0.43025  0.73095  0.36533  1.0000
  C   C606      1.0  0.48272  0.82692  0.36616  1.0000
  C   C607      1.0  0.41008  0.69239  0.09728  1.0000
  S   S222      1.0  0.43953  0.74203  0.42651  1.0000
  S   S223      1.0  0.44489  0.71663  0.42532  1.0000
  Fe  Fe113     1.0  0.41249  0.72816  0.18783  1.0000
  S   S224      1.0  0.43190  0.73066  0.17918  1.0000
  S   S225      1.0  0.40601  0.74453  0.18400  1.0000
  Fe  Fe114     1.0  0.40745  0.70177  0.19917  1.0000
  S   S226      1.0  0.42655  0.70216  0.19248  1.0000
  S   S227      1.0  0.39416  0.68412  0.21035  1.0000
  Fe  Fe115     1.0  0.42755  0.71563  0.21815  1.0000
  S   S228      1.0  0.43988  0.71708  0.24720  1.0000
  Fe  Fe116     1.0  0.42927  0.71720  0.15437  1.0000
  S   S229      1.0  0.44221  0.71844  0.11299  1.0000
  S   S230      1.0  0.40813  0.71385  0.22846  1.0000
  S   S231      1.0  0.41017  0.71604  0.15941  1.0000
  C   C608      1.0  0.48531  0.79668  0.36307  1.0000
  C   C609      1.0  0.38578  0.68955  0.16273  1.0000
  C   C610      1.0  0.37962  0.68656  0.14305  1.0000
  H   H627      1.0  0.47649  0.77372  0.44163  1.0000
  H   H628      1.0  0.47557  0.83093  0.36138  1.0000
  H   H629      1.0  0.39099  0.69841  0.15877  1.0000
  H   H630      1.0  0.38021  0.69318  0.12399  1.0000
  H   H631      1.0  0.41925  0.95723  0.31562  1.0000
  C   C611      1.0  0.43342  0.72817  0.33120  1.0000
  C   C612      1.0  0.44450  0.72723  0.31819  1.0000
  C   C613      1.0  0.44648  0.72437  0.29173  1.0000
  C   C614      1.0  0.43739  0.72232  0.27820  1.0000
  C   C615      1.0  0.42641  0.72365  0.29078  1.0000
  C   C616      1.0  0.42446  0.72660  0.31714  1.0000
  H   H632      1.0  0.45149  0.72848  0.32870  1.0000
  H   H633      1.0  0.45501  0.72340  0.28209  1.0000
  H   H634      1.0  0.41935  0.72214  0.28056  1.0000
  H   H635      1.0  0.41588  0.72742  0.32693  1.0000
  C   C617      1.0  0.43756  0.72010  0.08135  1.0000
  C   C618      1.0  0.49289  0.90618  0.45452  1.0000
  N   N54       1.0  0.43937  0.87537  0.42038  1.0000
  H   H636      1.0  0.34561  0.84170  0.00085  1.0000
  N   N55       1.0  0.46342  0.93919  0.07893  1.0000
  C   C619      1.0  0.43289  0.94928  0.03310  1.0000
  H   H637      1.0  0.42177  0.72479  0.09847  1.0000
  H   H638      1.0  0.42129  0.69923  0.12209  1.0000
  N   N56       1.0  0.25201  0.67436  0.42739  1.0000
  S   S232      1.0  0.42594  0.94151  0.23063  1.0000
  C   C620      1.0  0.31794  0.74964  0.18974  1.0000
  C   C621      1.0  0.31045  0.73838  0.19582  1.0000
  C   C622      1.0  0.30460  0.73521  0.17578  1.0000
  C   C623      1.0  0.30643  0.74321  0.14942  1.0000
  C   C624      1.0  0.31415  0.75435  0.14309  1.0000
  C   C625      1.0  0.31979  0.75761  0.16334  1.0000
  H   H639      1.0  0.30903  0.73218  0.21619  1.0000
  H   H640      1.0  0.29880  0.72654  0.18062  1.0000
  H   H641      1.0  0.31559  0.76057  0.12271  1.0000
  H   H642      1.0  0.32541  0.76636  0.15858  1.0000
  C   C626      1.0  0.34660  0.79993  0.33649  1.0000
  C   C627      1.0  0.34161  0.80918  0.32824  1.0000
  C   C628      1.0  0.33740  0.81028  0.30373  1.0000
  C   C629      1.0  0.33814  0.80214  0.28729  1.0000
  C   C630      1.0  0.34289  0.79272  0.29585  1.0000
  C   C631      1.0  0.34725  0.79171  0.32021  1.0000
  H   H643      1.0  0.34127  0.81569  0.34030  1.0000
  H   H644      1.0  0.33370  0.81756  0.29725  1.0000
  H   H645      1.0  0.34333  0.78630  0.28355  1.0000
  H   H646      1.0  0.35111  0.78453  0.32649  1.0000
  C   C632      1.0  0.33719  0.79435  0.03791  1.0000
  C   C633      1.0  0.34099  0.78837  0.06025  1.0000
  C   C634      1.0  0.33985  0.79166  0.08614  1.0000
  C   C635      1.0  0.33478  0.80089  0.08998  1.0000
  C   C636      1.0  0.33073  0.80668  0.06787  1.0000
  C   C637      1.0  0.33199  0.80348  0.04188  1.0000
  H   H647      1.0  0.34498  0.78126  0.05740  1.0000
  H   H648      1.0  0.34300  0.78711  0.10293  1.0000
  H   H649      1.0  0.32676  0.81381  0.07070  1.0000
  H   H650      1.0  0.32895  0.80812  0.02498  1.0000
  C   C638      1.0  0.42289  0.76545  0.23825  1.0000
  C   C639      1.0  0.42154  0.75331  0.24390  1.0000
  C   C640      1.0  0.41612  0.74686  0.22760  1.0000
  C   C641      1.0  0.41175  0.75247  0.20607  1.0000
  C   C642      1.0  0.41264  0.76455  0.20119  1.0000
  C   C643      1.0  0.41826  0.77106  0.21723  1.0000
  H   H651      1.0  0.42500  0.74890  0.26033  1.0000
  H   H652      1.0  0.41545  0.73755  0.23160  1.0000
  H   H653      1.0  0.40942  0.76897  0.18433  1.0000
  H   H654      1.0  0.41918  0.78041  0.21291  1.0000
  C   C644      1.0  0.39947  0.81157  0.21769  1.0000
  C   C645      1.0  0.39158  0.81600  0.20419  1.0000
  C   C646      1.0  0.38483  0.80907  0.19081  1.0000
  C   C647      1.0  0.38610  0.79776  0.19065  1.0000
  C   C648      1.0  0.39411  0.79343  0.20377  1.0000
  C   C649      1.0  0.40063  0.80024  0.21767  1.0000
  H   H655      1.0  0.39063  0.82476  0.20422  1.0000
  H   H656      1.0  0.37865  0.81246  0.18063  1.0000
  H   H657      1.0  0.39504  0.78464  0.20400  1.0000
  H   H658      1.0  0.40631  0.79655  0.22905  1.0000
  H   H659      1.0  0.37610  0.81514  0.33123  1.0000
  H   H660      1.0  0.42288  0.85662  0.39305  1.0000
  H   H661      1.0  0.39455  0.90485  0.32083  1.0000
  H   H662      1.0  0.41605  0.69150  0.39480  1.0000
  S   S233      1.0  0.45073  0.85152  0.46003  1.0000
  C   C650      1.0  0.31851  0.77508  0.34524  1.0000
  Fe  Fe117     1.0  0.45893  0.96606  0.14713  1.0000
  C   C651      1.0  0.44511  0.81511  0.12694  1.0000
  C   C652      1.0  0.45611  0.82219  0.12507  1.0000
  H   H663      1.0  0.39835  0.91548  0.26996  1.0000
  C   C653      1.0  0.47593  0.79085  0.44850  1.0000
  H   H664      1.0  0.47769  0.74383  0.02418  1.0000
  H   H665      1.0  0.43933  0.81029  0.14746  1.0000
  C   C654      1.0  0.25159  0.72507  0.03433  1.0000
  H   H666      1.0  0.44330  0.95007  0.43889  1.0000
  C   C655      1.0  0.44375  0.83353  0.37075  1.0000
  C   C656      1.0  0.44911  0.82431  0.37553  1.0000
  C   C657      1.0  0.45127  0.81809  0.35475  1.0000
  C   C658      1.0  0.44841  0.82126  0.32866  1.0000
  C   C659      1.0  0.44272  0.83025  0.32418  1.0000
  C   C660      1.0  0.44034  0.83633  0.34528  1.0000
  H   H667      1.0  0.45151  0.82194  0.39537  1.0000
  H   H668      1.0  0.45517  0.81080  0.35899  1.0000
  H   H669      1.0  0.44043  0.83273  0.30421  1.0000
  H   H670      1.0  0.43609  0.84340  0.34154  1.0000
  C   C661      1.0  0.37861  0.86978  0.44200  1.0000
  C   C662      1.0  0.36962  0.87404  0.43306  1.0000
  C   C663      1.0  0.35993  0.86626  0.42899  1.0000
  C   C664      1.0  0.35905  0.85409  0.43336  1.0000
  C   C665      1.0  0.36813  0.84987  0.44192  1.0000
  C   C666      1.0  0.37771  0.85761  0.44645  1.0000
  C   C667      1.0  0.26156  0.71026  0.26545  1.0000
  C   C668      1.0  0.25442  0.67746  0.37679  1.0000
  C   C669      1.0  0.26402  0.67523  0.13563  1.0000
  H   H671      1.0  0.31256  0.81056  0.36741  1.0000
  N   N57       1.0  0.48226  0.81609  0.35675  1.0000
  H   H672      1.0  0.36869  0.82411  0.31238  1.0000
  C   C670      1.0  0.39621  0.91985  0.28668  1.0000
  C   C671      1.0  0.48648  0.88577  0.45199  1.0000
  C   C672      1.0  0.43476  0.83899  0.10139  1.0000
  H   H673      1.0  0.47332  0.80339  0.30745  1.0000
  C   C673      1.0  0.42160  0.82850  0.14639  1.0000
  H   H674      1.0  0.27931  0.69549  0.06847  1.0000
  S   S234      1.0  0.25205  0.72497  0.08920  1.0000
  C   C674      1.0  0.47285  0.92944  0.44563  1.0000
  C   C675      1.0  0.46620  0.92062  0.43657  1.0000
  C   C676      1.0  0.45395  0.91777  0.44528  1.0000
  H   H675      1.0  0.48601  0.99304  0.23340  1.0000
  H   H676      1.0  0.41268  0.70056  0.08067  1.0000
  H   H677      1.0  0.29237  0.77101  0.15577  1.0000
  H   H678      1.0  0.44981  0.92236  0.03020  1.0000
  S   S235      1.0  0.25130  0.70380  0.16539  1.0000
  H   H679      1.0  0.28085  0.73860  0.05017  1.0000
  C   C677      1.0  0.43565  0.78244  0.37040  1.0000
  H   H680      1.0  0.25488  0.67273  0.46902  1.0000
  S   S236      1.0  0.47784  0.96602  0.13507  1.0000
  H   H681      1.0  0.43056  0.94272  0.99636  1.0000
  H   H682      1.0  0.46432  0.95272  0.10071  1.0000
  C   C678      1.0  0.42498  0.94127  0.26725  1.0000
  C   C679      1.0  0.42398  0.93056  0.28683  1.0000
  C   C680      1.0  0.42137  0.92944  0.31659  1.0000
  C   C681      1.0  0.41944  0.93898  0.32730  1.0000
  C   C682      1.0  0.42078  0.94979  0.30768  1.0000
  C   C683      1.0  0.42363  0.95097  0.27789  1.0000
  H   H683      1.0  0.42493  0.92296  0.27894  1.0000
  H   H684      1.0  0.42038  0.92106  0.33124  1.0000
  H   H685      1.0  0.30321  0.77357  0.19241  1.0000
  C   C684      1.0  0.42808  0.94898  0.06188  1.0000
  H   H686      1.0  0.41478  0.68088  0.16130  1.0000
  C   C685      1.0  0.42672  0.94225  0.01844  1.0000
  C   C686      1.0  0.41548  0.93484  0.03212  1.0000
  C   C687      1.0  0.41073  0.93450  0.06092  1.0000
  C   C688      1.0  0.41696  0.94140  0.07571  1.0000
  C   C689      1.0  0.39846  0.67273  0.11701  1.0000
  H   H687      1.0  0.40207  0.92888  0.07193  1.0000
  H   H688      1.0  0.41304  0.94097  0.09772  1.0000
  C   C690      1.0  0.39411  0.91393  0.31543  1.0000
  Fe  Fe118     1.0  0.26883  0.69965  0.15725  1.0000
  C   C691      1.0  0.30683  0.77667  0.01201  1.0000
  C   C692      1.0  0.46792  0.69448  0.43798  1.0000
  C   C693      1.0  0.48609  0.97774  0.14432  1.0000
  H   H689      1.0  0.29410  0.77929  0.98816  1.0000
  Fe  Fe119     1.0  0.33656  0.80037  0.46801  1.0000
  H   H690      1.0  0.26536  0.76507  0.47818  1.0000
  N   N58       1.0  0.29003  0.75629  0.04510  1.0000
  C   C694      1.0  0.30069  0.75910  0.05097  1.0000
  C   C695      1.0  0.28768  0.76334  0.02266  1.0000
  C   C696      1.0  0.28998  0.68748  0.09251  1.0000
  C   C697      1.0  0.28308  0.76473  0.41978  1.0000
  C   C698      1.0  0.45152  0.93621  0.08299  1.0000
  C   C699      1.0  0.28119  0.74546  0.06215  1.0000
  H   H691      1.0  0.46125  0.69828  0.44769  1.0000
  C   C700      1.0  0.39625  0.68418  0.07224  1.0000
  C   C701      1.0  0.42397  0.72514  0.05397  1.0000
  C   C702      1.0  0.44142  0.72031  0.03098  1.0000
  S   S237      1.0  0.27644  0.71094  0.18335  1.0000
  C   C703      1.0  0.41144  0.68134  0.14249  1.0000
  H   H692      1.0  0.36178  0.81682  0.04057  1.0000
  H   H693      1.0  0.47162  0.97429  0.21477  1.0000
  H   H694      1.0  0.44692  0.71905  0.01228  1.0000
  S   S238      1.0  0.46270  0.77053  0.40036  1.0000
  H   H695      1.0  0.47804  0.94941  0.08907  1.0000
  S   S239      1.0  0.26387  0.72377  0.41252  1.0000
  C   C704      1.0  0.43864  0.76406  0.36202  1.0000
  C   C705      1.0  0.25973  0.71297  0.31358  1.0000
  H   H696      1.0  0.49839  0.97297  0.08484  1.0000
  H   H697      1.0  0.44147  0.95502  0.02195  1.0000
  H   H698      1.0  0.45412  0.88998  0.40185  1.0000
  H   H699      1.0  0.29980  0.77213  0.42765  1.0000
  H   H700      1.0  0.45410  0.79107  0.40147  1.0000
  N   N59       1.0  0.37466  0.75547  0.17686  1.0000
  C   C706      1.0  0.37315  0.74441  0.19363  1.0000
  C   C707      1.0  0.36521  0.75923  0.17124  1.0000
  C   C708      1.0  0.36194  0.73674  0.20498  1.0000
  C   C709      1.0  0.35389  0.75179  0.18215  1.0000
  C   C710      1.0  0.35225  0.74050  0.19920  1.0000
  C   C711      1.0  0.38642  0.76346  0.16612  1.0000
  H   H701      1.0  0.38065  0.74149  0.19835  1.0000
  H   H702      1.0  0.36639  0.76807  0.15836  1.0000
  H   H703      1.0  0.36078  0.72798  0.21822  1.0000
  H   H704      1.0  0.34641  0.75476  0.17758  1.0000
  H   H705      1.0  0.34347  0.73473  0.20798  1.0000
  H   H706      1.0  0.38685  0.77106  0.14844  1.0000
  H   H707      1.0  0.38893  0.76695  0.18366  1.0000
  H   H708      1.0  0.39291  0.75881  0.15782  1.0000
  N   N60       1.0  0.44779  0.76686  0.19310  1.0000
  C   C712      1.0  0.44161  0.76405  0.17416  1.0000
  C   C713      1.0  0.45253  0.77839  0.19165  1.0000
  C   C714      1.0  0.44003  0.77285  0.15313  1.0000
  C   C715      1.0  0.45118  0.78745  0.17074  1.0000
  C   C716      1.0  0.44492  0.78461  0.15132  1.0000
  C   C717      1.0  0.44974  0.75752  0.21444  1.0000
  H   H709      1.0  0.43765  0.75496  0.17555  1.0000
  H   H710      1.0  0.45727  0.78064  0.20692  1.0000
  H   H711      1.0  0.43493  0.77053  0.13855  1.0000
  H   H712      1.0  0.45494  0.79661  0.16960  1.0000
  H   H713      1.0  0.44385  0.79150  0.13489  1.0000
  H   H714      1.0  0.44808  0.75944  0.23571  1.0000
  H   H715      1.0  0.44369  0.74881  0.21704  1.0000
  H   H716      1.0  0.45887  0.75677  0.20802  1.0000
  C   C718      1.0  0.43537  0.78613  0.34203  1.0000
  C   C719      1.0  0.35459  0.82705  0.06700  1.0000
  H   H717      1.0  0.35303  0.86971  0.42241  1.0000
  H   H718      1.0  0.38889  0.68830  0.07741  1.0000
  H   H719      1.0  0.42208  0.94940  0.45354  1.0000
  C   C720      1.0  0.34519  0.84093  0.04474  1.0000
  S   S240      1.0  0.46280  0.73660  0.44565  1.0000
  H   H720      1.0  0.28477  0.75625  0.41963  1.0000
  H   H721      1.0  0.37003  0.88331  0.42965  1.0000
  C   C721      1.0  0.48079  0.98602  0.15391  1.0000
  H   H722      1.0  0.46555  0.96532  0.01718  1.0000
  C   C722      1.0  0.47239  0.96854  0.02694  1.0000
  H   H723      1.0  0.43404  0.79473  0.33398  1.0000
  C   C723      1.0  0.25697  0.68089  0.12157  1.0000
  H   H724      1.0  0.40256  0.68967  0.05188  1.0000
  C   C724      1.0  0.39058  0.91343  0.36616  1.0000
  C   C725      1.0  0.29438  0.67022  0.08193  1.0000
  H   H725      1.0  0.35682  0.82262  0.08576  1.0000
  S   S241      1.0  0.27063  0.68127  0.15947  1.0000
  C   C726      1.0  0.28222  0.75349  0.17933  1.0000
  C   C727      1.0  0.45165  0.88119  0.41726  1.0000
  H   H726      1.0  0.27750  0.75227  0.16338  1.0000
  Fe  Fe120     1.0  0.40982  0.91926  0.47045  1.0000
  C   C728      1.0  0.47689  0.70138  0.41414  1.0000
  H   H727      1.0  0.25957  0.69106  0.39706  1.0000
  C   C729      1.0  0.30092  0.67700  0.12078  1.0000
  H   H728      1.0  0.45702  0.95993  0.46296  1.0000
  C   C730      1.0  0.38537  0.68101  0.18707  1.0000
  S   S242      1.0  0.44884  0.82376  0.46512  1.0000
  H   H729      1.0  0.27380  0.73622  0.20703  1.0000
  H   H730      1.0  0.42147  0.69706  0.33062  1.0000
  H   H731      1.0  0.25102  0.72531  0.99114  1.0000
  C   C731      1.0  0.43067  0.87783  0.43890  1.0000
  H   H732      1.0  0.42722  0.83123  0.18366  1.0000
  S   S243      1.0  0.47526  0.94705  0.47371  1.0000
  C   C732      1.0  0.27237  0.76674  0.41543  1.0000
  S   S244      1.0  0.45289  0.97816  0.11628  1.0000
  C   C733      1.0  0.26442  0.70805  0.29187  1.0000
  C   C734      1.0  0.47052  0.93601  0.05813  1.0000
  C   C735      1.0  0.28438  0.73610  0.24904  1.0000
  H   H733      1.0  0.26512  0.70634  0.24897  1.0000
  H   H734      1.0  0.26006  0.68733  0.44610  1.0000
  H   H735      1.0  0.45261  0.71586  0.05801  1.0000
  C   C736      1.0  0.45507  0.93223  0.47293  1.0000
  N   N61       1.0  0.48995  0.97667  0.05201  1.0000
  H   H736      1.0  0.41073  0.81693  0.11618  1.0000
  N   N62       1.0  0.37427  0.81152  0.29181  1.0000
  C   C737      1.0  0.36872  0.81379  0.27064  1.0000
  C   C738      1.0  0.37860  0.80180  0.29594  1.0000
  C   C739      1.0  0.36694  0.80595  0.25374  1.0000
  C   C740      1.0  0.37697  0.79378  0.27943  1.0000
  C   C741      1.0  0.37096  0.79580  0.25848  1.0000
  C   C742      1.0  0.37602  0.81980  0.30941  1.0000
  H   H737      1.0  0.36537  0.82153  0.26717  1.0000
  H   H738      1.0  0.38325  0.80018  0.31224  1.0000
  H   H739      1.0  0.36228  0.80762  0.23744  1.0000
  H   H740      1.0  0.38039  0.78608  0.28275  1.0000
  H   H741      1.0  0.36957  0.78962  0.24562  1.0000
  H   H742      1.0  0.38445  0.82657  0.29923  1.0000
  C   C743      1.0  0.39184  0.93123  0.32952  1.0000
  H   H743      1.0  0.31765  0.77160  0.03945  1.0000
  H   H744      1.0  0.43278  0.88386  0.45161  1.0000
  H   H745      1.0  0.42418  0.95923  0.26328  1.0000
  H   H746      1.0  0.44333  0.70121  0.38705  1.0000
  C   C744      1.0  0.35732  0.82378  0.04143  1.0000
  H   H747      1.0  0.45127  0.84980  0.10228  1.0000
  C   C745      1.0  0.46043  0.74551  0.04215  1.0000
  C   C746      1.0  0.45902  0.99280  0.22524  1.0000
  S   S245      1.0  0.32458  0.81240  0.46653  1.0000
  N   N63       1.0  0.35396  0.82890  0.01822  1.0000
  H   H748      1.0  0.25416  0.75388  0.47316  1.0000
  H   H749      1.0  0.48950  0.80822  0.38933  1.0000
  C   C747      1.0  0.43939  0.75507  0.00219  1.0000
  C   C748      1.0  0.29661  0.76548  0.19571  1.0000
  H   H750      1.0  0.39825  0.93650  0.25717  1.0000
  H   H751      1.0  0.30928  0.81220  0.33344  1.0000
  H   H752      1.0  0.43286  0.80899  0.10388  1.0000
  C   C749      1.0  0.48524  0.68439  0.41341  1.0000
  H   H753      1.0  0.41046  0.83147  0.09756  1.0000
  C   C750      1.0  0.25401  0.71744  0.26061  1.0000
  C   C751      1.0  0.41498  0.69170  0.12061  1.0000
  H   H754      1.0  0.25552  0.68907  0.12536  1.0000
  C   C752      1.0  0.29053  0.76403  0.17512  1.0000
  C   C753      1.0  0.44145  0.81439  0.10211  1.0000
  C   C754      1.0  0.46349  0.82841  0.09797  1.0000
  H   H755      1.0  0.47204  0.83390  0.09625  1.0000
  Fe  Fe121     1.0  0.44355  0.72773  0.45663  1.0000
  Fe  Fe122     1.0  0.25432  0.71642  0.38296  1.0000
  H   H756      1.0  0.26152  0.69631  0.03583  1.0000
  C   C755      1.0  0.49901  0.98028  0.06635  1.0000
  C   C756      1.0  0.48509  0.89729  0.44805  1.0000
  H   H757      1.0  0.44052  0.76468  0.99921  1.0000
  C   C757      1.0  0.39611  0.93167  0.27948  1.0000
  C   C758      1.0  0.25225  0.72019  0.30859  1.0000
  C   C759      1.0  0.44282  0.84405  0.11484  1.0000
  H   H758      1.0  0.30792  0.67233  0.11667  1.0000
  S   S246      1.0  0.47738  0.81367  0.45224  1.0000
  C   C760      1.0  0.40319  0.67175  0.14063  1.0000
  H   H759      1.0  0.47053  0.91627  0.42217  1.0000
  C   C761      1.0  0.42153  0.70036  0.38213  1.0000
  C   C762      1.0  0.41602  0.86508  0.42486  1.0000
  H   H760      1.0  0.39931  0.91290  0.36944  1.0000
  Fe  Fe123     1.0  0.46397  0.72618  0.41225  1.0000
  C   C763      1.0  0.42720  0.72339  0.07986  1.0000
  C   C764      1.0  0.42495  0.86266  0.40590  1.0000
  H   H761      1.0  0.44457  0.75344  0.32262  1.0000
  H   H762      1.0  0.43462  0.78820  0.38445  1.0000
  H   H763      1.0  0.27930  0.76101  0.01767  1.0000
  H   H764      1.0  0.39421  0.94670  0.29552  1.0000
  C   C765      1.0  0.45363  0.92698  0.04407  1.0000
  C   C766      1.0  0.25634  0.71024  0.01053  1.0000
  H   H765      1.0  0.39072  0.93592  0.34598  1.0000
  C   C767      1.0  0.45011  0.69703  0.32069  1.0000
  C   C768      1.0  0.26859  0.74060  0.47521  1.0000
  N   N64       1.0  0.39194  0.91963  0.33641  1.0000
  S   S247      1.0  0.26065  0.75592  0.41083  1.0000
  H   H766      1.0  0.38672  0.91811  0.38137  1.0000
  H   H767      1.0  0.31790  0.79349  0.38851  1.0000
  H   H768      1.0  0.43141  0.75022  0.01971  1.0000
  C   C769      1.0  0.43665  0.86801  0.40372  1.0000
  C   C770      1.0  0.47250  0.78099  0.43795  1.0000
  S   S248      1.0  0.26610  0.73118  0.14880  1.0000
  C   C771      1.0  0.46309  0.80046  0.42661  1.0000
  H   H769      1.0  0.45957  0.80800  0.42169  1.0000
  H   H770      1.0  0.30620  0.79522  0.31283  1.0000
  H   H771      1.0  0.44508  0.76517  0.29315  1.0000
  H   H772      1.0  0.47535  0.82202  0.32161  1.0000
  H   H773      1.0  0.43672  0.78166  0.30201  1.0000
  C   C772      1.0  0.31342  0.78066  0.32533  1.0000
  H   H774      1.0  0.44352  0.86616  0.38876  1.0000
  Fe  Fe124     1.0  0.45882  0.75041  0.41314  1.0000
  H   H775      1.0  0.43114  0.75535  0.31411  1.0000
  C   C773      1.0  0.43992  0.76008  0.31507  1.0000
  S   S249      1.0  0.46192  0.74093  0.37846  1.0000
  H   H776      1.0  0.38477  0.90440  0.37164  1.0000
  H   H777      1.0  0.31339  0.78464  0.99926  1.0000
  C   C774      1.0  0.45992  0.79078  0.41534  1.0000
  C   C775      1.0  0.46466  0.78101  0.42072  1.0000
  S   S250      1.0  0.44401  0.00118  0.15946  1.0000
  H   H778      1.0  0.41204  0.87467  0.45625  1.0000
  H   H779      1.0  0.45762  0.87589  0.40972  1.0000
  S   S251      1.0  0.33922  0.79026  0.00533  1.0000
  S   S252      1.0  0.42700  0.96768  0.15988  1.0000
  S   S253      1.0  0.42717  0.72673  0.99699  1.0000
  H   H780      1.0  0.27757  0.68056  0.04052  1.0000
  C   C776      1.0  0.45160  0.69883  0.34678  1.0000
  H   H781      1.0  0.34866  0.82664  0.47628  1.0000
  C   C777      1.0  0.44864  0.82093  0.07511  1.0000
  H   H782      1.0  0.27025  0.70248  0.29550  1.0000
  H   H783      1.0  0.31240  0.77732  0.30702  1.0000
  C   C778      1.0  0.41624  0.82569  0.10268  1.0000
  S   S254      1.0  0.26342  0.71000  0.34657  1.0000
  C   C779      1.0  0.41890  0.87268  0.44154  1.0000
  S   S255      1.0  0.45021  0.97081  0.18606  1.0000
  H   H784      1.0  0.42457  0.70541  0.39684  1.0000
  H   H785      1.0  0.41598  0.72778  0.05287  1.0000
  C   C780      1.0  0.45975  0.82784  0.07305  1.0000
  N   N65       1.0  0.43863  0.76786  0.33406  1.0000
  H   H786      1.0  0.39253  0.67548  0.06886  1.0000
  S   S256      1.0  0.43647  0.95806  0.07938  1.0000
  Fe  Fe125     1.0  0.49451  0.94820  0.46625  1.0000
  C   C781      1.0  0.44208  0.69984  0.36684  1.0000
  Fe  Fe126     1.0  0.45391  0.82869  0.99934  1.0000
  C   C782      1.0  0.47875  0.97727  0.06265  1.0000
  C   C783      1.0  0.43690  0.77869  0.32404  1.0000
  N   N66       1.0  0.43144  0.69931  0.36088  1.0000
  C   C784      1.0  0.27894  0.78677  0.42002  1.0000
  C   C785      1.0  0.42822  0.95390  0.46339  1.0000
  Fe  Fe127     1.0  0.43760  0.96253  0.12266  1.0000
  H   H787      1.0  0.49131  0.83335  0.35537  1.0000
  C   C786      1.0  0.43722  0.77130  0.38056  1.0000
  C   C787      1.0  0.44460  0.71846  0.05694  1.0000
  Fe  Fe128     1.0  0.44325  0.98225  0.15529  1.0000
  C   C788      1.0  0.49872  0.99519  0.16428  1.0000
  H   H788      1.0  0.47801  0.89941  0.43949  1.0000
  S   S257      1.0  0.47780  0.71646  0.39934  1.0000
  C   C789      1.0  0.44014  0.84118  0.14461  1.0000
  H   H789      1.0  0.32143  0.76732  0.34262  1.0000
  H   H790      1.0  0.32428  0.77565  0.38347  1.0000
  C   C790      1.0  0.31656  0.78991  0.37077  1.0000
  N   N67       1.0  0.31165  0.79537  0.35106  1.0000
  C   C791      1.0  0.43114  0.72374  0.02940  1.0000
  H   H791      1.0  0.46079  0.67746  0.46827  1.0000
  H   H792      1.0  0.43750  0.76833  0.40257  1.0000
  C   C792      1.0  0.30997  0.79083  0.32866  1.0000
  H   H793      1.0  0.48245  0.79098  0.46057  1.0000
  H   H794      1.0  0.47995  0.93824  0.05501  1.0000
  H   H795      1.0  0.47181  0.98568  0.15386  1.0000
  C   C793      1.0  0.47846  0.99626  0.23029  1.0000
  C   C794      1.0  0.46845  0.94544  0.09779  1.0000
  H   H796      1.0  0.25964  0.70436  0.07849  1.0000
  C   C795      1.0  0.42941  0.83348  0.16052  1.0000
  H   H797      1.0  0.45745  0.69646  0.30466  1.0000
  C   C796      1.0  0.28811  0.67091  0.06111  1.0000
  S   S258      1.0  0.29898  0.73962  0.12428  1.0000
  C   C797      1.0  0.25780  0.70894  0.05943  1.0000
  N   N68       1.0  0.28646  0.74581  0.22369  1.0000
  H   H798      1.0  0.36779  0.84062  0.44506  1.0000
  S   S259      1.0  0.49930  0.93636  0.00301  1.0000
  H   H799      1.0  0.43981  0.75540  0.37005  1.0000
  H   H800      1.0  0.27713  0.79522  0.42011  1.0000
  S   S260      1.0  0.41292  0.90114  0.47434  1.0000
  S   S261      1.0  0.25002  0.72041  0.22808  1.0000
  C   C798      1.0  0.25886  0.70440  0.03526  1.0000
  C   C799      1.0  0.48384  0.96797  0.01626  1.0000
  H   H801      1.0  0.49017  0.91845  0.36863  1.0000
  H   H802      1.0  0.28371  0.72763  0.24302  1.0000
  H   H803      1.0  0.43708  0.84096  0.07822  1.0000
  C   C800      1.0  0.28372  0.68849  0.07170  1.0000
  C   C801      1.0  0.28272  0.68009  0.05608  1.0000
  C   C802      1.0  0.29166  0.77379  0.42420  1.0000
  C   C803      1.0  0.28960  0.78493  0.42441  1.0000
  C   C804      1.0  0.29443  0.75624  0.22008  1.0000
  H   H804      1.0  0.25731  0.68343  0.35551  1.0000
  C   C805      1.0  0.30774  0.80589  0.35448  1.0000
  C   C806      1.0  0.45043  0.74847  0.03601  1.0000
  H   H805      1.0  0.27609  0.73555  0.26466  1.0000
  H   H806      1.0  0.27234  0.74709  0.06742  1.0000
  H   H807      1.0  0.49197  0.68061  0.40387  1.0000
  H   H808      1.0  0.46537  0.83294  0.05234  1.0000
  H   H809      1.0  0.29826  0.80331  0.36572  1.0000
  S   S262      1.0  0.36710  0.67123  0.11991  1.0000
  H   H810      1.0  0.34036  0.84758  0.04581  1.0000
  C   C807      1.0  0.27052  0.77787  0.41549  1.0000
  H   H811      1.0  0.29948  0.75732  0.23552  1.0000
  C   C808      1.0  0.35690  0.82527  0.99176  1.0000
  C   C809      1.0  0.46770  0.68266  0.44962  1.0000
  C   C810      1.0  0.46765  0.97605  0.23529  1.0000
  C   C811      1.0  0.46729  0.93541  0.46344  1.0000
  C   C812      1.0  0.46573  0.92986  0.04040  1.0000
  S   S263      1.0  0.27666  0.71326  0.11544  1.0000
  H   H812      1.0  0.26239  0.77965  0.41225  1.0000
  C   C813      1.0  0.25292  0.67909  0.45208  1.0000
  Fe  Fe129     1.0  0.25975  0.71830  0.12512  1.0000
  H   H813      1.0  0.48597  0.96442  0.99803  1.0000
  C   C814      1.0  0.28023  0.74443  0.20398  1.0000
  Fe  Fe130     1.0  0.28247  0.72506  0.14210  1.0000
  C   C815      1.0  0.48552  0.69626  0.40192  1.0000
  H   H814      1.0  0.44649  0.84470  0.15532  1.0000
  H   H815      1.0  0.38452  0.85411  0.45339  1.0000
  C   C816      1.0  0.30921  0.76935  0.03464  1.0000
  H   H816      1.0  0.42105  0.82420  0.08253  1.0000
  C   C817      1.0  0.44645  0.93011  0.06557  1.0000
  C   C818      1.0  0.46992  0.74620  0.01974  1.0000
  S   S264      1.0  0.44281  0.82107  0.04522  1.0000
  C   C819      1.0  0.48615  0.80727  0.37100  1.0000
  H   H817      1.0  0.43702  0.92796  0.06854  1.0000
  C   C820      1.0  0.37298  0.67502  0.14750  1.0000
  C   C821      1.0  0.25284  0.72065  0.01009  1.0000
  H   H818      1.0  0.41335  0.82239  0.15898  1.0000
  H   H819      1.0  0.30269  0.75344  0.06837  1.0000
  H   H820      1.0  0.46090  0.97373  0.05867  1.0000
  H   H821      1.0  0.48224  0.93179  0.43817  1.0000
  C   C822      1.0  0.47634  0.67754  0.43748  1.0000
  H   H822      1.0  0.45104  0.98685  0.22478  1.0000
  H   H823      1.0  0.49344  0.89843  0.38156  1.0000
  C   C823      1.0  0.42986  0.69736  0.33553  1.0000
  C   C824      1.0  0.49566  0.88316  0.46318  1.0000
  C   C825      1.0  0.48054  0.79518  0.34035  1.0000
  H   H824      1.0  0.46694  0.93933  0.11910  1.0000
  H   H825      1.0  0.26461  0.74087  0.45748  1.0000
  C   C826      1.0  0.48708  0.99469  0.16396  1.0000
  C   C827      1.0  0.49795  0.97874  0.14267  1.0000
  C   C828      1.0  0.46981  0.97326  0.05023  1.0000
  H   H826      1.0  0.41607  0.70533  0.37158  1.0000
  H   H827      1.0  0.43797  0.69512  0.29453  1.0000
  C   C829      1.0  0.43915  0.69619  0.31508  1.0000
  H   H828      1.0  0.47668  0.98078  0.08102  1.0000
  C   C830      1.0  0.47822  0.81495  0.33337  1.0000
  H   H829      1.0  0.47138  0.92749  0.02362  1.0000
  H   H830      1.0  0.45843  0.97061  0.24344  1.0000
  N   N69       1.0  0.44983  0.75181  0.00835  1.0000
  H   H831      1.0  0.43894  0.92104  0.47146  1.0000
  C   C831      1.0  0.44009  0.95425  0.45529  1.0000
  H   H832      1.0  0.44304  0.74776  0.05356  1.0000
  C   C832      1.0  0.34835  0.83556  0.06874  1.0000
  H   H833      1.0  0.46066  0.74241  0.06418  1.0000
  H   H834      1.0  0.40689  0.86115  0.42655  1.0000
  H   H835      1.0  0.48786  0.78948  0.37527  1.0000
  C   C833      1.0  0.25567  0.68175  0.40045  1.0000
  C   C834      1.0  0.45916  0.75266  0.98628  1.0000
  H   H836      1.0  0.49688  0.87436  0.46636  1.0000
  H   H837      1.0  0.49178  0.91502  0.45089  1.0000
  C   C835      1.0  0.44839  0.92344  0.46390  1.0000
  C   C836      1.0  0.29601  0.77366  0.00585  1.0000
  C   C837      1.0  0.37832  0.66955  0.19215  1.0000
  H   H838      1.0  0.34582  0.83783  0.08882  1.0000
  H   H839      1.0  0.27657  0.72679  0.46621  1.0000
  C   C838      1.0  0.49256  0.97204  0.02918  1.0000
  N   N70       1.0  0.46828  0.98864  0.23080  1.0000
  S   S265      1.0  0.47355  0.83518  0.98370  1.0000
  C   C839      1.0  0.44779  0.95977  0.46884  1.0000
  H   H840      1.0  0.30507  0.68566  0.12367  1.0000
  C   C840      1.0  0.46934  0.74989  0.99158  1.0000
  H   H841      1.0  0.49251  0.70153  0.38349  1.0000
  H   H842      1.0  0.29432  0.67182  0.14101  1.0000
  H   H843      1.0  0.47245  0.97316  0.25117  1.0000
  C   C841      1.0  0.25155  0.67582  0.10296  1.0000
  H   H844      1.0  0.49790  0.98808  0.07436  1.0000
  C   C842      1.0  0.49790  0.91726  0.37557  1.0000
  H   H845      1.0  0.35511  0.81552  0.99632  1.0000
  H   H846      1.0  0.48287  0.00093  0.17178  1.0000
  H   H847      1.0  0.48319  0.66975  0.99653  1.0000
  H   H848      1.0  0.49930  0.68251  0.45608  1.0000
  H   H849      1.0  0.43775  0.75266  0.98262  1.0000
  S   S266      1.0  0.44439  0.94900  0.65884  1.0000
  S   S267      1.0  0.45058  0.84415  0.97106  1.0000
  C   C843      1.0  0.43577  0.71991  0.53134  1.0000
  C   C844      1.0  0.45446  0.83273  0.56777  1.0000
  H   H850      1.0  0.29332  0.73785  0.76952  1.0000
  H   H851      1.0  0.43181  0.82675  0.64083  1.0000
  H   H852      1.0  0.49204  0.91166  0.94371  1.0000
  C   C845      1.0  0.37850  0.86041  0.93666  1.0000
  H   H853      1.0  0.48161  0.99776  0.69313  1.0000
  C   C846      1.0  0.42783  0.74436  0.59608  1.0000
  H   H854      1.0  0.26611  0.75924  0.79143  1.0000
  C   C847      1.0  0.25905  0.71094  0.55844  1.0000
  H   H855      1.0  0.36217  0.81241  0.55541  1.0000
  S   S268      1.0  0.27437  0.71086  0.68746  1.0000
  S   S269      1.0  0.40669  0.92759  0.50909  1.0000
  Fe  Fe131     1.0  0.41244  0.92558  0.90624  1.0000
  S   S270      1.0  0.41673  0.90851  0.90370  1.0000
  S   S271      1.0  0.41386  0.94016  0.86662  1.0000
  Fe  Fe132     1.0  0.40144  0.89999  0.94261  1.0000
  S   S272      1.0  0.39187  0.88135  0.94114  1.0000
  Fe  Fe133     1.0  0.42730  0.91197  0.93463  1.0000
  S   S273      1.0  0.44533  0.90918  0.93039  1.0000
  S   S274      1.0  0.39661  0.91721  0.94427  1.0000
  S   S275      1.0  0.42435  0.92977  0.93418  1.0000
  C   C848      1.0  0.44359  0.88814  0.50059  1.0000
  C   C849      1.0  0.45166  0.88318  0.95578  1.0000
  S   S276      1.0  0.25417  0.72770  0.58675  1.0000
  Fe  Fe134     1.0  0.47131  0.82491  0.95058  1.0000
  H   H856      1.0  0.45818  0.98985  0.71881  1.0000
  C   C850      1.0  0.36289  0.83128  0.72991  1.0000
  Fe  Fe135     1.0  0.45074  0.83377  0.93818  1.0000
  S   S277      1.0  0.43728  0.83212  0.91225  1.0000
  H   H857      1.0  0.42270  0.74289  0.61788  1.0000
  C   C851      1.0  0.44943  0.75955  0.78791  1.0000
  S   S278      1.0  0.47004  0.84073  0.91883  1.0000
  C   C852      1.0  0.49352  0.87924  0.96885  1.0000
  Fe  Fe136     1.0  0.44293  0.82082  0.69573  1.0000
  S   S279      1.0  0.42654  0.80627  0.70778  1.0000
  S   S280      1.0  0.45492  0.82725  0.65085  1.0000
  Fe  Fe137     1.0  0.44192  0.82088  0.75826  1.0000
  S   S281      1.0  0.42548  0.80620  0.77515  1.0000
  S   S282      1.0  0.45330  0.82863  0.78448  1.0000
  Fe  Fe138     1.0  0.43367  0.79778  0.74257  1.0000
  S   S283      1.0  0.43328  0.77851  0.75438  1.0000
  Fe  Fe139     1.0  0.41957  0.81582  0.73900  1.0000
  S   S284      1.0  0.40064  0.81640  0.74782  1.0000
  S   S285      1.0  0.45065  0.81157  0.72849  1.0000
  S   S286      1.0  0.43546  0.83131  0.72427  1.0000
  Fe  Fe140     1.0  0.31773  0.80565  0.93478  1.0000
  S   S287      1.0  0.32953  0.79358  0.93369  1.0000
  Fe  Fe141     1.0  0.33827  0.82674  0.93565  1.0000
  S   S288      1.0  0.35095  0.81544  0.93338  1.0000
  S   S289      1.0  0.34399  0.84576  0.94014  1.0000
  Fe  Fe142     1.0  0.34258  0.80894  0.90107  1.0000
  S   S290      1.0  0.35266  0.80585  0.86059  1.0000
  Fe  Fe143     1.0  0.33629  0.80156  0.96627  1.0000
  S   S291      1.0  0.34017  0.79080  0.50839  1.0000
  S   S292      1.0  0.33067  0.82104  0.90094  1.0000
  H   H858      1.0  0.45606  0.74722  0.50992  1.0000
  Fe  Fe144     1.0  0.35206  0.79032  0.68931  1.0000
  S   S293      1.0  0.34870  0.80824  0.67997  1.0000
  S   S294      1.0  0.37080  0.78925  0.67963  1.0000
  Fe  Fe145     1.0  0.32627  0.77763  0.70906  1.0000
  S   S295      1.0  0.32098  0.79455  0.70149  1.0000
  S   S296      1.0  0.31106  0.76151  0.72706  1.0000
  Fe  Fe146     1.0  0.33503  0.79996  0.66037  1.0000
  S   S297      1.0  0.33079  0.80890  0.62030  1.0000
  Fe  Fe147     1.0  0.33504  0.80102  0.72189  1.0000
  S   S298      1.0  0.33088  0.81126  0.75437  1.0000
  S   S299      1.0  0.33942  0.78255  0.66643  1.0000
  S   S300      1.0  0.33933  0.78363  0.73280  1.0000
  Fe  Fe148     1.0  0.44374  0.73430  0.89104  1.0000
  S   S301      1.0  0.43421  0.73760  0.85640  1.0000
  H   H859      1.0  0.46150  0.67790  0.90951  1.0000
  Fe  Fe149     1.0  0.25417  0.73900  0.91000  1.0000
  S   S302      1.0  0.44414  0.74565  0.92181  1.0000
  S   S303      1.0  0.43828  0.71759  0.92584  1.0000
  Fe  Fe150     1.0  0.41964  0.73045  0.68460  1.0000
  S   S304      1.0  0.43867  0.73108  0.67838  1.0000
  S   S305      1.0  0.41490  0.74770  0.67619  1.0000
  Fe  Fe151     1.0  0.41211  0.70389  0.69770  1.0000
  S   S306      1.0  0.43064  0.70243  0.69304  1.0000
  S   S307      1.0  0.39775  0.68699  0.70953  1.0000
  Fe  Fe152     1.0  0.43251  0.71610  0.71796  1.0000
  S   S308      1.0  0.44283  0.71487  0.75149  1.0000
  Fe  Fe153     1.0  0.43501  0.71753  0.65414  1.0000
  S   S309      1.0  0.44804  0.71872  0.61295  1.0000
  S   S310      1.0  0.41356  0.71635  0.72598  1.0000
  S   S311      1.0  0.41640  0.71813  0.65714  1.0000
  C   C853      1.0  0.38985  0.68355  0.68476  1.0000
  C   C854      1.0  0.39167  0.69146  0.65827  1.0000
  C   C855      1.0  0.38586  0.68820  0.63820  1.0000
  C   C856      1.0  0.25161  0.72855  0.77801  1.0000
  Fe  Fe154     1.0  0.49490  0.94740  0.96668  1.0000
  H   H860      1.0  0.39763  0.70005  0.65308  1.0000
  H   H861      1.0  0.38741  0.69433  0.61765  1.0000
  H   H862      1.0  0.41505  0.87440  0.93880  1.0000
  C   C857      1.0  0.43698  0.73165  0.82669  1.0000
  C   C858      1.0  0.44644  0.72669  0.82096  1.0000
  C   C859      1.0  0.44833  0.72190  0.79731  1.0000
  C   C860      1.0  0.44081  0.72206  0.77916  1.0000
  C   C861      1.0  0.43151  0.72730  0.78447  1.0000
  C   C862      1.0  0.42960  0.73205  0.80819  1.0000
  H   H863      1.0  0.45222  0.72639  0.83496  1.0000
  H   H864      1.0  0.45554  0.71787  0.79333  1.0000
  H   H865      1.0  0.42568  0.72750  0.77059  1.0000
  H   H866      1.0  0.42232  0.73598  0.81234  1.0000
  C   C863      1.0  0.44316  0.71911  0.58178  1.0000
  Fe  Fe155     1.0  0.45863  0.96508  0.65344  1.0000
  C   C864      1.0  0.42956  0.79807  0.63411  1.0000
  Fe  Fe156     1.0  0.26558  0.70035  0.66180  1.0000
  H   H867      1.0  0.46265  0.86168  0.54467  1.0000
  C   C865      1.0  0.36194  0.83402  0.80430  1.0000
  H   H868      1.0  0.42484  0.71535  0.60290  1.0000
  H   H869      1.0  0.49789  0.95637  0.73025  1.0000
  H   H870      1.0  0.42835  0.87343  0.51252  1.0000
  H   H871      1.0  0.48193  0.92968  0.94508  1.0000
  C   C866      1.0  0.30887  0.75326  0.70230  1.0000
  C   C867      1.0  0.29761  0.74653  0.70473  1.0000
  C   C868      1.0  0.29563  0.74030  0.68445  1.0000
  C   C869      1.0  0.30493  0.74069  0.66178  1.0000
  C   C870      1.0  0.31623  0.74720  0.65971  1.0000
  C   C871      1.0  0.31820  0.75349  0.67990  1.0000
  H   H872      1.0  0.29033  0.74634  0.72186  1.0000
  H   H873      1.0  0.28687  0.73537  0.68616  1.0000
  H   H874      1.0  0.32347  0.74741  0.64239  1.0000
  H   H875      1.0  0.32696  0.75837  0.67833  1.0000
  C   C872      1.0  0.34644  0.80712  0.83132  1.0000
  C   C873      1.0  0.33716  0.81241  0.83072  1.0000
  C   C874      1.0  0.33254  0.81370  0.80687  1.0000
  C   C875      1.0  0.33700  0.80950  0.78367  1.0000
  C   C876      1.0  0.34625  0.80415  0.78420  1.0000
  C   C877      1.0  0.35103  0.80308  0.80788  1.0000
  H   H876      1.0  0.33360  0.81564  0.84843  1.0000
  H   H877      1.0  0.32544  0.81791  0.80648  1.0000
  H   H878      1.0  0.34978  0.80097  0.76628  1.0000
  H   H879      1.0  0.35829  0.79907  0.80810  1.0000
  C   C878      1.0  0.33691  0.79539  0.54000  1.0000
  C   C879      1.0  0.34195  0.79153  0.56211  1.0000
  C   C880      1.0  0.33990  0.79538  0.58717  1.0000
  C   C881      1.0  0.33272  0.80305  0.59035  1.0000
  C   C882      1.0  0.32745  0.80668  0.56855  1.0000
  C   C883      1.0  0.32953  0.80286  0.54344  1.0000
  H   H880      1.0  0.34765  0.78572  0.55959  1.0000
  H   H881      1.0  0.34414  0.79264  0.60366  1.0000
  H   H882      1.0  0.32185  0.81258  0.57090  1.0000
  H   H883      1.0  0.32549  0.80577  0.52670  1.0000
  C   C884      1.0  0.42910  0.77029  0.73095  1.0000
  C   C885      1.0  0.42945  0.75849  0.73588  1.0000
  C   C886      1.0  0.42548  0.75161  0.71844  1.0000
  C   C887      1.0  0.42098  0.75648  0.69626  1.0000
  C   C888      1.0  0.42072  0.76829  0.69113  1.0000
  C   C889      1.0  0.42480  0.77517  0.70840  1.0000
  H   H884      1.0  0.43262  0.75457  0.75343  1.0000
  H   H885      1.0  0.42564  0.74246  0.72264  1.0000
  H   H886      1.0  0.41708  0.77200  0.67426  1.0000
  H   H887      1.0  0.42423  0.78409  0.70481  1.0000
  C   C890      1.0  0.39239  0.80941  0.72785  1.0000
  C   C891      1.0  0.39780  0.80787  0.70153  1.0000
  C   C892      1.0  0.39112  0.80179  0.68656  1.0000
  C   C893      1.0  0.37896  0.79755  0.69744  1.0000
  C   C894      1.0  0.37348  0.79942  0.72326  1.0000
  C   C895      1.0  0.38020  0.80521  0.73861  1.0000
  H   H888      1.0  0.40707  0.81156  0.69239  1.0000
  H   H889      1.0  0.39535  0.80048  0.66640  1.0000
  H   H890      1.0  0.36412  0.79603  0.73185  1.0000
  H   H891      1.0  0.37595  0.80621  0.75913  1.0000
  N   N71       1.0  0.36633  0.83189  0.75636  1.0000
  C   C896      1.0  0.43813  0.82843  0.62054  1.0000
  S   S312      1.0  0.47781  0.96553  0.64647  1.0000
  S   S313      1.0  0.26167  0.68063  0.67360  1.0000
  H   H892      1.0  0.46085  0.79379  0.94454  1.0000
  H   H893      1.0  0.41833  0.71612  0.55866  1.0000
  H   H894      1.0  0.44347  0.96545  0.91103  1.0000
  C   C897      1.0  0.45808  0.83151  0.59315  1.0000
  C   C898      1.0  0.44994  0.82926  0.61962  1.0000
  H   H895      1.0  0.28280  0.67090  0.65230  1.0000
  C   C899      1.0  0.46267  0.81311  0.89020  1.0000
  H   H896      1.0  0.40485  0.67040  0.57177  1.0000
  H   H897      1.0  0.46722  0.83215  0.59234  1.0000
  C   C900      1.0  0.48307  0.67554  0.50642  1.0000
  H   H898      1.0  0.29884  0.77362  0.93000  1.0000
  C   C901      1.0  0.44163  0.83216  0.87585  1.0000
  C   C902      1.0  0.43318  0.82779  0.86234  1.0000
  C   C903      1.0  0.43651  0.82708  0.83386  1.0000
  C   C904      1.0  0.44833  0.83080  0.81872  1.0000
  C   C905      1.0  0.45669  0.83560  0.83189  1.0000
  C   C906      1.0  0.45337  0.83623  0.86033  1.0000
  H   H899      1.0  0.42404  0.82474  0.87411  1.0000
  H   H900      1.0  0.42998  0.82344  0.82387  1.0000
  H   H901      1.0  0.46584  0.83860  0.82024  1.0000
  H   H902      1.0  0.45995  0.83979  0.87024  1.0000
  C   C907      1.0  0.37840  0.87165  0.94088  1.0000
  C   C908      1.0  0.45527  0.95421  0.90846  1.0000
  C   C909      1.0  0.36819  0.85246  0.93603  1.0000
  C   C910      1.0  0.35749  0.85555  0.93986  1.0000
  C   C911      1.0  0.35739  0.86679  0.94409  1.0000
  C   C912      1.0  0.36772  0.87478  0.94449  1.0000
  C   C913      1.0  0.45261  0.80797  0.88297  1.0000
  H   H903      1.0  0.47081  0.88580  0.50410  1.0000
  H   H904      1.0  0.34922  0.86935  0.94710  1.0000
  H   H905      1.0  0.36737  0.88332  0.94789  1.0000
  S   S314      1.0  0.25693  0.70402  0.98115  1.0000
  S   S315      1.0  0.37194  0.67292  0.61758  1.0000
  H   H906      1.0  0.36774  0.83934  0.71268  1.0000
  H   H907      1.0  0.43153  0.93187  0.50957  1.0000
  H   H908      1.0  0.25546  0.68186  0.57872  1.0000
  C   C914      1.0  0.37617  0.66914  0.67108  1.0000
  C   C915      1.0  0.45559  0.93145  0.86697  1.0000
  C   C916      1.0  0.42373  0.87284  0.93590  1.0000
  Fe  Fe157     1.0  0.40930  0.92013  0.97222  1.0000
  C   C917      1.0  0.44602  0.86923  0.92846  1.0000
  C   C918      1.0  0.46572  0.91998  0.94048  1.0000
  C   C919      1.0  0.45360  0.91858  0.94587  1.0000
  C   C920      1.0  0.25723  0.72524  0.75434  1.0000
  H   H909      1.0  0.41488  0.95840  0.49178  1.0000
  C   C921      1.0  0.48588  0.67856  0.93422  1.0000
  H   H910      1.0  0.46983  0.91462  0.92863  1.0000
  Fe  Fe158     1.0  0.47023  0.85037  0.95356  1.0000
  S   S316      1.0  0.25256  0.70185  0.48762  1.0000
  C   C922      1.0  0.39294  0.91314  0.82850  1.0000
  H   H911      1.0  0.36932  0.82726  0.55483  1.0000
  H   H912      1.0  0.47057  0.98164  0.67821  1.0000
  H   H913      1.0  0.42972  0.88516  0.95880  1.0000
  C   C923      1.0  0.27070  0.71902  0.78084  1.0000
  C   C924      1.0  0.42293  0.94204  0.77007  1.0000
  N   N72       1.0  0.42645  0.69670  0.82793  1.0000
  C   C925      1.0  0.41924  0.93074  0.81992  1.0000
  C   C926      1.0  0.41835  0.94076  0.82955  1.0000
  C   C927      1.0  0.42019  0.95148  0.80919  1.0000
  C   C928      1.0  0.42258  0.95216  0.77966  1.0000
  C   C929      1.0  0.42882  0.80267  0.58488  1.0000
  C   C930      1.0  0.43793  0.86303  0.91686  1.0000
  H   H914      1.0  0.41945  0.95929  0.81632  1.0000
  C   C931      1.0  0.42788  0.94436  0.56641  1.0000
  H   H915      1.0  0.43325  0.95785  0.87715  1.0000
  C   C932      1.0  0.40935  0.93726  0.55478  1.0000
  C   C933      1.0  0.41498  0.93337  0.53189  1.0000
  C   C934      1.0  0.42710  0.93483  0.52688  1.0000
  C   C935      1.0  0.43348  0.94041  0.54359  1.0000
  H   H916      1.0  0.39997  0.93619  0.55918  1.0000
  H   H917      1.0  0.40074  0.67107  0.64590  1.0000
  H   H918      1.0  0.44289  0.94185  0.53839  1.0000
  H   H919      1.0  0.48483  0.96551  0.58599  1.0000
  H   H920      1.0  0.39266  0.93875  0.84406  1.0000
  C   C936      1.0  0.38198  0.67243  0.69120  1.0000
  C   C937      1.0  0.48572  0.97755  0.65559  1.0000
  Fe  Fe159     1.0  0.44282  0.98133  0.65266  1.0000
  C   C938      1.0  0.34814  0.82838  0.49702  1.0000
  S   S317      1.0  0.44432  0.00115  0.64885  1.0000
  C   C939      1.0  0.31534  0.78950  0.86848  1.0000
  C   C940      1.0  0.32395  0.78339  0.86365  1.0000
  C   C941      1.0  0.32013  0.78267  0.81808  1.0000
  C   C942      1.0  0.32638  0.78001  0.83823  1.0000
  H   H921      1.0  0.31367  0.79228  0.88806  1.0000
  H   H922      1.0  0.32899  0.78166  0.87912  1.0000
  H   H923      1.0  0.32216  0.78039  0.79787  1.0000
  H   H924      1.0  0.33330  0.77561  0.83383  1.0000
  N   N73       1.0  0.35369  0.82561  0.54124  1.0000
  H   H925      1.0  0.46460  0.93506  0.53195  1.0000
  C   C943      1.0  0.26703  0.72082  0.75555  1.0000
  H   H926      1.0  0.43537  0.69239  0.63407  1.0000
  N   N74       1.0  0.44297  0.87687  0.94382  1.0000
  C   C944      1.0  0.42857  0.68822  0.62536  1.0000
  H   H927      1.0  0.38666  0.85783  0.93369  1.0000
  N   N75       1.0  0.44142  0.79955  0.62567  1.0000
  H   H928      1.0  0.45648  0.80356  0.59055  1.0000
  C   C945      1.0  0.44193  0.69460  0.85073  1.0000
  C   C946      1.0  0.35891  0.83400  0.77853  1.0000
  H   H929      1.0  0.37481  0.83129  0.82755  1.0000
  C   C947      1.0  0.40147  0.67352  0.59066  1.0000
  C   C948      1.0  0.45842  0.94535  0.89656  1.0000
  Fe  Fe160     1.0  0.28354  0.72379  0.64522  1.0000
  C   C949      1.0  0.40909  0.67632  0.63170  1.0000
  H   H930      1.0  0.49347  0.95536  0.57818  1.0000
  H   H931      1.0  0.45859  0.88980  0.93825  1.0000
  C   C950      1.0  0.41567  0.94256  0.57205  1.0000
  C   C951      1.0  0.47980  0.69691  0.93277  1.0000
  H   H932      1.0  0.28545  0.72570  0.50743  1.0000
  C   C952      1.0  0.43996  0.74609  0.59013  1.0000
  H   H933      1.0  0.30065  0.80511  0.83370  1.0000
  H   H934      1.0  0.39506  0.89574  0.82805  1.0000
  S   S318      1.0  0.27632  0.71229  0.61924  1.0000
  N   N76       1.0  0.44100  0.74794  0.54035  1.0000
  H   H935      1.0  0.38868  0.82859  0.78603  1.0000
  N   N77       1.0  0.30918  0.76786  0.61709  1.0000
  C   C953      1.0  0.42309  0.79966  0.61388  1.0000
  H   H936      1.0  0.30683  0.78285  0.66781  1.0000
  H   H937      1.0  0.42539  0.82914  0.59589  1.0000
  H   H938      1.0  0.38314  0.82919  0.74061  1.0000
  N   N78       1.0  0.39713  0.77264  0.75589  1.0000
  C   C954      1.0  0.40009  0.76213  0.75925  1.0000
  C   C955      1.0  0.39025  0.77535  0.73809  1.0000
  C   C956      1.0  0.39657  0.75426  0.74354  1.0000
  C   C957      1.0  0.38670  0.76777  0.72179  1.0000
  C   C958      1.0  0.39000  0.75720  0.72436  1.0000
  C   C959      1.0  0.40088  0.78085  0.77235  1.0000
  H   H939      1.0  0.40549  0.75992  0.77351  1.0000
  H   H940      1.0  0.38754  0.78344  0.73633  1.0000
  H   H941      1.0  0.39927  0.74611  0.74545  1.0000
  H   H942      1.0  0.38145  0.77013  0.70719  1.0000
  H   H943      1.0  0.38756  0.75133  0.71140  1.0000
  H   H944      1.0  0.40246  0.79014  0.76000  1.0000
  H   H945      1.0  0.39404  0.77921  0.79255  1.0000
  H   H946      1.0  0.40925  0.77993  0.77744  1.0000
  H   H947      1.0  0.42776  0.97902  0.51168  1.0000
  C   C960      1.0  0.44381  0.94562  0.87109  1.0000
  H   H948      1.0  0.26523  0.76032  0.84157  1.0000
  H   H949      1.0  0.27158  0.71844  0.73738  1.0000
  C   C961      1.0  0.46817  0.75719  0.79661  1.0000
  H   H950      1.0  0.44030  0.75789  0.80103  1.0000
  C   C962      1.0  0.49840  0.99604  0.67238  1.0000
  S   S319      1.0  0.26087  0.75878  0.90642  1.0000
  C   C963      1.0  0.46873  0.68128  0.91779  1.0000
  C   C964      1.0  0.36072  0.82085  0.55930  1.0000
  H   H951      1.0  0.43888  0.89472  0.49505  1.0000
  C   C965      1.0  0.45527  0.93417  0.97024  1.0000
  H   H952      1.0  0.46024  0.90085  0.49067  1.0000
  H   H953      1.0  0.35979  0.81792  0.50769  1.0000
  H   H954      1.0  0.47948  0.89567  0.93066  1.0000
  H   H955      1.0  0.25345  0.75587  0.50823  1.0000
  C   C966      1.0  0.44345  0.96478  0.49057  1.0000
  C   C967      1.0  0.41779  0.68144  0.64343  1.0000
  H   H956      1.0  0.44535  0.98883  0.74665  1.0000
  H   H957      1.0  0.49411  0.00211  0.60554  1.0000
  H   H958      1.0  0.43472  0.80277  0.86151  1.0000
  C   C968      1.0  0.26467  0.72170  0.80502  1.0000
  C   C969      1.0  0.34682  0.83258  0.55032  1.0000
  C   C970      1.0  0.27006  0.77997  0.91574  1.0000
  H   H959      1.0  0.29189  0.74161  0.84280  1.0000
  H   H960      1.0  0.48124  0.70566  0.93601  1.0000
  C   C971      1.0  0.28645  0.74573  0.83122  1.0000
  Fe  Fe161     1.0  0.26176  0.72131  0.62333  1.0000
  C   C972      1.0  0.44767  0.72164  0.53026  1.0000
  H   H961      1.0  0.47116  0.86512  0.50782  1.0000
  N   N79       1.0  0.30942  0.79229  0.84837  1.0000
  H   H962      1.0  0.45873  0.75537  0.96438  1.0000
  H   H963      1.0  0.45975  0.95734  0.92340  1.0000
  S   S320      1.0  0.42676  0.96638  0.65769  1.0000
  H   H964      1.0  0.26138  0.69092  0.61581  1.0000
  C   C973      1.0  0.46375  0.81033  0.83570  1.0000
  H   H965      1.0  0.41374  0.79879  0.62063  1.0000
  H   H966      1.0  0.39518  0.91618  0.80537  1.0000
  S   S321      1.0  0.26886  0.71823  0.83712  1.0000
  H   H967      1.0  0.45065  0.93448  0.61936  1.0000
  H   H968      1.0  0.35153  0.82805  0.97722  1.0000
  C   C974      1.0  0.35446  0.82354  0.51488  1.0000
  C   C975      1.0  0.31160  0.78883  0.82357  1.0000
  C   C976      1.0  0.30044  0.79873  0.85363  1.0000
  H   H969      1.0  0.30186  0.80386  0.86947  1.0000
  C   C977      1.0  0.46152  0.88305  0.50556  1.0000
  H   H970      1.0  0.30705  0.79119  0.80741  1.0000
  C   C978      1.0  0.44396  0.86789  0.51708  1.0000
  H   H971      1.0  0.31864  0.77253  0.57348  1.0000
  H   H972      1.0  0.49379  0.95586  0.68327  1.0000
  H   H973      1.0  0.29163  0.79244  0.86211  1.0000
  S   S322      1.0  0.43077  0.72107  0.50029  1.0000
  H   H974      1.0  0.42361  0.96040  0.76440  1.0000
  H   H975      1.0  0.45851  0.77411  0.93364  1.0000
  C   C979      1.0  0.27854  0.73941  0.52098  1.0000
  N   N80       1.0  0.45253  0.94101  0.87862  1.0000
  C   C980      1.0  0.43126  0.71723  0.58279  1.0000
  C   C981      1.0  0.42233  0.74436  0.57395  1.0000
  H   H976      1.0  0.42635  0.69288  0.78760  1.0000
  S   S323      1.0  0.48253  0.81305  0.93563  1.0000
  H   H977      1.0  0.44991  0.69185  0.85155  1.0000
  C   C982      1.0  0.43453  0.82983  0.59505  1.0000
  C   C983      1.0  0.43641  0.69303  0.82908  1.0000
  H   H978      1.0  0.46153  0.92737  0.87783  1.0000
  H   H979      1.0  0.44024  0.68905  0.81296  1.0000
  C   C984      1.0  0.46847  0.79108  0.93539  1.0000
  H   H980      1.0  0.49079  0.96560  0.54969  1.0000
  C   C985      1.0  0.44646  0.74796  0.56195  1.0000
  S   S324      1.0  0.43663  0.95209  0.58570  1.0000
  H   H981      1.0  0.43896  0.92390  0.96752  1.0000
  C   C986      1.0  0.29242  0.77100  0.66064  1.0000
  H   H982      1.0  0.45774  0.85387  0.52024  1.0000
  C   C987      1.0  0.42909  0.74620  0.54602  1.0000
  H   H983      1.0  0.46058  0.72255  0.55460  1.0000
  C   C988      1.0  0.46744  0.93596  0.96368  1.0000
  C   C989      1.0  0.47971  0.79871  0.92957  1.0000
  H   H984      1.0  0.41778  0.70263  0.79662  1.0000
  C   C990      1.0  0.44047  0.95454  0.88244  1.0000
  C   C991      1.0  0.42048  0.69467  0.80578  1.0000
  S   S325      1.0  0.26992  0.73394  0.64572  1.0000
  C   C992      1.0  0.27166  0.74725  0.51561  1.0000
  H   H985      1.0  0.28593  0.77202  0.67805  1.0000
  S   S326      1.0  0.47600  0.94773  0.97219  1.0000
  H   H986      1.0  0.28012  0.74960  0.76762  1.0000
  C   C993      1.0  0.45764  0.93780  0.59978  1.0000
  C   C994      1.0  0.48945  0.79498  0.91790  1.0000
  C   C995      1.0  0.45135  0.72121  0.55548  1.0000
  H   H987      1.0  0.48229  0.81851  0.82612  1.0000
  C   C996      1.0  0.46366  0.76464  0.84618  1.0000
  H   H988      1.0  0.44756  0.92430  0.87047  1.0000
  S   S327      1.0  0.25050  0.70865  0.66441  1.0000
  H   H989      1.0  0.26358  0.70818  0.57424  1.0000
  Fe  Fe162     1.0  0.46286  0.74534  0.91611  1.0000
  C   C997      1.0  0.48817  0.78392  0.91214  1.0000
  C   C998      1.0  0.47991  0.98388  0.67175  1.0000
  Fe  Fe163     1.0  0.26021  0.72031  0.68667  1.0000
  H   H990      1.0  0.44768  0.78825  0.65438  1.0000
  H   H991      1.0  0.41785  0.92242  0.83521  1.0000
  C   C999      1.0  0.29084  0.77544  0.92604  1.0000
  C   C1000     1.0  0.46716  0.77986  0.92941  1.0000
  C   C1001     1.0  0.47710  0.77622  0.91788  1.0000
  N   N81       1.0  0.41096  0.67818  0.60275  1.0000
  C   C1002     1.0  0.42130  0.93135  0.79044  1.0000
  C   C1003     1.0  0.45543  0.76354  0.83008  1.0000
  H   H992      1.0  0.44307  0.80460  0.82599  1.0000
  C   C1004     1.0  0.48751  0.68990  0.93873  1.0000
  C   C1005     1.0  0.37262  0.83187  0.80723  1.0000
  C   C1006     1.0  0.38033  0.83024  0.78409  1.0000
  S   S328      1.0  0.30239  0.73377  0.63491  1.0000
  H   H993      1.0  0.48477  0.75590  0.80525  1.0000
  C   C1007     1.0  0.28912  0.76351  0.64402  1.0000
  C   C1008     1.0  0.42757  0.71755  0.55769  1.0000
  S   S329      1.0  0.45199  0.81762  0.96826  1.0000
  H   H994      1.0  0.35584  0.83515  0.82234  1.0000
  C   C1009     1.0  0.27879  0.75134  0.84501  1.0000
  C   C1010     1.0  0.45558  0.89160  0.49819  1.0000
  C   C1011     1.0  0.30414  0.77704  0.65499  1.0000
  H   H995      1.0  0.42403  0.80437  0.56887  1.0000
  C   C1012     1.0  0.39001  0.89760  0.87088  1.0000
  C   C1013     1.0  0.37709  0.83045  0.75852  1.0000
  C   C1014     1.0  0.44264  0.80104  0.84888  1.0000
  H   H996      1.0  0.46998  0.75422  0.77730  1.0000
  Fe  Fe164     1.0  0.45037  0.83588  0.49402  1.0000
  H   H997      1.0  0.48073  0.76273  0.84950  1.0000
  S   S330      1.0  0.45357  0.97571  0.61761  1.0000
  H   H998      1.0  0.27647  0.79702  0.92211  1.0000
  C   C1015     1.0  0.43718  0.69990  0.87125  1.0000
  H   H999      1.0  0.35332  0.83029  0.73277  1.0000
  C   C1016     1.0  0.45650  0.93371  0.57593  1.0000
  H   H1000     1.0  0.44164  0.79141  0.85332  1.0000
  C   C1017     1.0  0.47532  0.94685  0.54949  1.0000
  H   H1001     1.0  0.46722  0.00170  0.66123  1.0000
  H   H1002     1.0  0.45082  0.93663  0.48727  1.0000
  H   H1003     1.0  0.25366  0.69630  0.79049  1.0000
  H   H1004     1.0  0.42348  0.70805  0.88532  1.0000
  C   C1018     1.0  0.42174  0.70191  0.84800  1.0000
  H   H1005     1.0  0.42151  0.92345  0.78333  1.0000
  H   H1006     1.0  0.36480  0.82344  0.72313  1.0000
  C   C1019     1.0  0.31244  0.77538  0.63298  1.0000
  H   H1007     1.0  0.32154  0.77996  0.62914  1.0000
  H   H1008     1.0  0.27805  0.71521  0.78185  1.0000
  C   C1020     1.0  0.48685  0.95978  0.57164  1.0000
  C   C1021     1.0  0.42705  0.70363  0.86989  1.0000
  H   H1009     1.0  0.35042  0.83527  0.77677  1.0000
  H   H1010     1.0  0.42506  0.79586  0.65658  1.0000
  C   C1022     1.0  0.47636  0.67424  0.92401  1.0000
  N   N82       1.0  0.47627  0.95095  0.57291  1.0000
  C   C1023     1.0  0.27981  0.75010  0.78935  1.0000
  C   C1024     1.0  0.25438  0.67641  0.59985  1.0000
  S   S331      1.0  0.46286  0.73510  0.88255  1.0000
  Fe  Fe165     1.0  0.45759  0.71873  0.91906  1.0000
  C   C1025     1.0  0.28237  0.76659  0.92059  1.0000
  C   C1026     1.0  0.42739  0.96970  0.52114  1.0000
  C   C1027     1.0  0.43051  0.68981  0.59591  1.0000
  H   H1011     1.0  0.41396  0.70497  0.84687  1.0000
  H   H1012     1.0  0.45729  0.80298  0.63879  1.0000
  H   H1013     1.0  0.46544  0.94182  0.90230  1.0000
  H   H1014     1.0  0.28397  0.75808  0.92031  1.0000
  C   C1028     1.0  0.29766  0.76208  0.62208  1.0000
  H   H1015     1.0  0.38102  0.93252  0.82944  1.0000
  S   S332      1.0  0.29875  0.79849  0.93287  1.0000
  C   C1029     1.0  0.44801  0.79772  0.64722  1.0000
  H   H1016     1.0  0.44438  0.80078  0.66602  1.0000
  H   H1017     1.0  0.46420  0.80960  0.81406  1.0000
  C   C1030     1.0  0.44087  0.80391  0.57648  1.0000
  H   H1018     1.0  0.44862  0.92722  0.57695  1.0000
  H   H1019     1.0  0.44544  0.80657  0.55394  1.0000
  H   H1020     1.0  0.41111  0.94548  0.58936  1.0000
  H   H1021     1.0  0.45118  0.93966  0.98167  1.0000
  C   C1031     1.0  0.44266  0.83187  0.56861  1.0000
  C   C1032     1.0  0.42419  0.95903  0.48511  1.0000
  C   C1033     1.0  0.31801  0.76626  0.59399  1.0000
  H   H1022     1.0  0.44144  0.70123  0.88797  1.0000
  H   H1023     1.0  0.46845  0.94958  0.61663  1.0000
  S   S333      1.0  0.47668  0.76235  0.90975  1.0000
  H   H1024     1.0  0.41264  0.68710  0.81486  1.0000
  H   H1025     1.0  0.32676  0.76774  0.59843  1.0000
  H   H1026     1.0  0.44427  0.80530  0.89896  1.0000
  Fe  Fe166     1.0  0.43829  0.95992  0.62484  1.0000
  C   C1034     1.0  0.44797  0.75034  0.51078  1.0000
  C   C1035     1.0  0.44707  0.80229  0.59728  1.0000
  C   C1036     1.0  0.25654  0.67450  0.64804  1.0000
  C   C1037     1.0  0.46767  0.94644  0.59796  1.0000
  C   C1038     1.0  0.42670  0.86481  0.92077  1.0000
  H   H1027     1.0  0.38988  0.88864  0.88111  1.0000
  H   H1028     1.0  0.38497  0.90211  0.91063  1.0000
  S   S334      1.0  0.42381  0.94194  0.73369  1.0000
  S   S335      1.0  0.46070  0.70120  0.91259  1.0000
  H   H1029     1.0  0.27841  0.75175  0.86685  1.0000
  Fe  Fe167     1.0  0.43359  0.95589  0.69139  1.0000
  N   N83       1.0  0.39039  0.92058  0.84500  1.0000
  H   H1030     1.0  0.36629  0.82928  0.98055  1.0000
  N   N84       1.0  0.45322  0.80673  0.85592  1.0000
  N   N85       1.0  0.49341  0.67111  0.49827  1.0000
  C   C1039     1.0  0.39290  0.90158  0.84117  1.0000
  C   C1040     1.0  0.47041  0.69267  0.92200  1.0000
  H   H1031     1.0  0.41288  0.74278  0.57849  1.0000
  H   H1032     1.0  0.44957  0.75236  0.77701  1.0000
  Fe  Fe168     1.0  0.25810  0.72065  0.87759  1.0000
  C   C1041     1.0  0.28878  0.78655  0.92666  1.0000
  C   C1042     1.0  0.39001  0.93251  0.83141  1.0000
  C   C1043     1.0  0.27828  0.78859  0.92167  1.0000
  H   H1033     1.0  0.43884  0.69514  0.58166  1.0000
  H   H1034     1.0  0.33493  0.84307  0.54014  1.0000
  C   C1044     1.0  0.47400  0.81546  0.84230  1.0000
  C   C1045     1.0  0.27188  0.76886  0.91529  1.0000
  C   C1046     1.0  0.47342  0.81682  0.86979  1.0000
  H   H1035     1.0  0.38558  0.92266  0.88725  1.0000
  C   C1047     1.0  0.46541  0.93819  0.55064  1.0000
  H   H1036     1.0  0.44772  0.88787  0.97080  1.0000
  C   C1048     1.0  0.38728  0.90520  0.88751  1.0000
  S   S336      1.0  0.45957  0.72902  0.95196  1.0000
  C   C1049     1.0  0.38756  0.91675  0.87416  1.0000
  S   S337      1.0  0.44840  0.97107  0.68838  1.0000
  H   H1037     1.0  0.45586  0.74911  0.55763  1.0000
  H   H1038     1.0  0.44035  0.85685  0.90503  1.0000
  H   H1039     1.0  0.28005  0.75866  0.64848  1.0000
  H   H1040     1.0  0.45404  0.72332  0.51003  1.0000
  H   H1041     1.0  0.46079  0.83416  0.54769  1.0000
  C   C1050     1.0  0.29502  0.73922  0.78993  1.0000
  C   C1051     1.0  0.27190  0.75560  0.80268  1.0000
  C   C1052     1.0  0.43771  0.87622  0.51023  1.0000
  C   C1053     1.0  0.45093  0.99397  0.72515  1.0000
  N   N86       1.0  0.28685  0.74512  0.80379  1.0000
  H   H1042     1.0  0.46175  0.76735  0.86587  1.0000
  N   N87       1.0  0.45777  0.75988  0.80561  1.0000
  C   C1054     1.0  0.47658  0.75817  0.81222  1.0000
  C   C1055     1.0  0.49254  0.90269  0.95079  1.0000
  C   C1056     1.0  0.43205  0.87886  0.94728  1.0000
  C   C1057     1.0  0.48534  0.89354  0.94355  1.0000
  H   H1043     1.0  0.30416  0.74463  0.78503  1.0000
  H   H1044     1.0  0.48217  0.95032  0.52966  1.0000
  S   S338      1.0  0.32368  0.81283  0.96974  1.0000
  H   H1045     1.0  0.45162  0.76807  0.77155  1.0000
  H   H1046     1.0  0.29406  0.73039  0.80397  1.0000
  H   H1047     1.0  0.26284  0.69825  0.53510  1.0000
  H   H1048     1.0  0.43914  0.94219  0.85683  1.0000
  C   C1058     1.0  0.47433  0.76202  0.83702  1.0000
  H   H1049     1.0  0.29509  0.75601  0.60972  1.0000
  N   N88       1.0  0.45575  0.87136  0.51433  1.0000
  S   S339      1.0  0.43770  0.83274  0.53730  1.0000
  H   H1050     1.0  0.44707  0.76541  0.83751  1.0000
  H   H1051     1.0  0.30381  0.67080  0.64688  1.0000
  C   C1059     1.0  0.37818  0.67700  0.64441  1.0000
  C   C1060     1.0  0.49796  0.98075  0.64698  1.0000
  H   H1052     1.0  0.41606  0.68030  0.66638  1.0000
  C   C1061     1.0  0.27140  0.75620  0.83071  1.0000
  H   H1053     1.0  0.41821  0.96494  0.53312  1.0000
  C   C1062     1.0  0.44835  0.92535  0.96181  1.0000
  H   H1054     1.0  0.34608  0.83409  0.57139  1.0000
  S   S340      1.0  0.26697  0.72793  0.90816  1.0000
  H   H1055     1.0  0.31576  0.75710  0.59178  1.0000
  H   H1056     1.0  0.42474  0.74599  0.52898  1.0000
  C   C1063     1.0  0.47261  0.92859  0.94962  1.0000
  H   H1057     1.0  0.27004  0.75275  0.53004  1.0000
  H   H1058     1.0  0.36855  0.84396  0.93238  1.0000
  C   C1064     1.0  0.25286  0.70891  0.51545  1.0000
  C   C1065     1.0  0.44618  0.95876  0.90148  1.0000
  C   C1066     1.0  0.25370  0.72018  0.55987  1.0000
  H   H1059     1.0  0.42033  0.85997  0.91203  1.0000
  H   H1060     1.0  0.48295  0.68321  0.48964  1.0000
  C   C1067     1.0  0.48620  0.99307  0.68019  1.0000
  C   C1068     1.0  0.25859  0.70530  0.53630  1.0000
  H   H1061     1.0  0.26210  0.78193  0.91171  1.0000
  H   H1062     1.0  0.39624  0.93592  0.80981  1.0000
  C   C1069     1.0  0.34115  0.83551  0.50599  1.0000
  H   H1063     1.0  0.45992  0.93479  0.84376  1.0000
  H   H1064     1.0  0.28207  0.73878  0.53950  1.0000
  C   C1070     1.0  0.42146  0.68494  0.58485  1.0000
  H   H1065     1.0  0.48127  0.82080  0.87535  1.0000
  S   S341      1.0  0.47655  0.87067  0.94188  1.0000
  C   C1071     1.0  0.25772  0.68155  0.62084  1.0000
  H   H1066     1.0  0.43264  0.96932  0.53715  1.0000
  C   C1072     1.0  0.46215  0.86260  0.52222  1.0000
  H   H1067     1.0  0.45576  0.87696  0.96757  1.0000
  C   C1073     1.0  0.48571  0.88173  0.95257  1.0000
  H   H1068     1.0  0.45476  0.86782  0.92529  1.0000
  Fe  Fe169     1.0  0.44067  0.72890  0.95591  1.0000
  H   H1069     1.0  0.42286  0.68672  0.56186  1.0000
  C   C1074     1.0  0.34043  0.83762  0.53285  1.0000
  N   N89       1.0  0.26670  0.74769  0.49310  1.0000
  H   H1070     1.0  0.49402  0.87025  0.97586  1.0000
  H   H1071     1.0  0.44427  0.74568  0.60736  1.0000
  H   H1072     1.0  0.35615  0.81893  0.58234  1.0000
  N   N90       1.0  0.43176  0.96425  0.49864  1.0000
  H   H1073     1.0  0.49591  0.78131  0.90325  1.0000
  H   H1074     1.0  0.46215  0.81427  0.91147  1.0000
  H   H1075     1.0  0.39700  0.68048  0.58420  1.0000
  H   H1076     1.0  0.48289  0.67830  0.52649  1.0000
  C   C1075     1.0  0.25532  0.72679  0.80327  1.0000
  H   H1077     1.0  0.44564  0.99342  0.70933  1.0000
  S   S342      1.0  0.41274  0.90225  0.97334  1.0000
  H   H1078     1.0  0.43933  0.85862  0.52467  1.0000
  Fe  Fe170     1.0  0.25274  0.71430  0.94257  1.0000
  H   H1079     1.0  0.44944  0.96884  0.50141  1.0000
  H   H1080     1.0  0.25070  0.72905  0.82156  1.0000
  H   H1081     1.0  0.47667  0.75055  0.97385  1.0000
  H   H1082     1.0  0.44299  0.74561  0.49818  1.0000
  H   H1083     1.0  0.45043  0.75993  0.50040  1.0000
  S   S343      1.0  0.25108  0.72563  0.72493  1.0000
  C   C1076     1.0  0.28040  0.73205  0.50304  1.0000
  H   H1084     1.0  0.49486  0.69334  0.94657  1.0000
  H   H1085     1.0  0.49815  0.80071  0.91331  1.0000
  C   C1077     1.0  0.25957  0.75604  0.48794  1.0000
  S   S344      1.0  0.49585  0.67006  0.94177  1.0000
  S   S345      1.0  0.46993  0.83987  0.48549  1.0000
  H   H1086     1.0  0.33632  0.83938  0.49202  1.0000
  H   H1087     1.0  0.71770  0.29702  0.04280  1.0000
  H   H1088     1.0  0.60267  0.14766  0.99949  1.0000
  H   H1089     1.0  0.52758  0.08218  0.18963  1.0000
  H   H1090     1.0  0.69531  0.29595  0.28148  1.0000
  C   C1078     1.0  0.59596  0.30854  0.15970  1.0000
  S   S346      1.0  0.71878  0.31908  0.12605  1.0000
  H   H1091     1.0  0.52240  0.09117  0.99422  1.0000
  N   N91       1.0  0.66718  0.24940  0.01364  1.0000
  N   N92       1.0  0.72936  0.28442  0.99254  1.0000
  H   H1092     1.0  0.72819  0.30841  0.21751  1.0000
  Fe  Fe171     1.0  0.58936  0.24798  0.33344  1.0000
  S   S347      1.0  0.56982  0.24058  0.34812  1.0000
  S   S348      1.0  0.60005  0.25739  0.28805  1.0000
  C   C1079     1.0  0.60751  0.11003  0.33797  1.0000
  H   H1093     1.0  0.58992  0.10702  0.33282  1.0000
  H   H1094     1.0  0.53623  0.06545  0.19954  1.0000
  C   C1080     1.0  0.68358  0.24955  0.34725  1.0000
  N   N93       1.0  0.61514  0.11491  0.35183  1.0000
  H   H1095     1.0  0.59680  0.12516  0.39621  1.0000
  Fe  Fe172     1.0  0.60573  0.27861  0.09260  1.0000
  S   S349      1.0  0.58846  0.26532  0.10525  1.0000
  S   S350      1.0  0.60591  0.29771  0.08292  1.0000
  Fe  Fe173     1.0  0.61941  0.26043  0.09012  1.0000
  S   S351      1.0  0.60324  0.24539  0.10201  1.0000
  S   S352      1.0  0.63771  0.25790  0.08337  1.0000
  Fe  Fe174     1.0  0.59679  0.25751  0.07132  1.0000
  S   S353      1.0  0.58507  0.25334  0.04262  1.0000
  Fe  Fe175     1.0  0.59623  0.25442  0.13481  1.0000
  S   S354      1.0  0.58615  0.24420  0.17997  1.0000
  S   S355      1.0  0.61359  0.27172  0.05658  1.0000
  S   S356      1.0  0.61278  0.26844  0.12532  1.0000
  C   C1081     1.0  0.50722  0.10382  0.04006  1.0000
  S   S357      1.0  0.68827  0.26274  0.40824  1.0000
  S   S358      1.0  0.69433  0.23152  0.40545  1.0000
  Fe  Fe176     1.0  0.69709  0.26980  0.43934  1.0000
  S   S359      1.0  0.62225  0.13470  0.98287  1.0000
  H   H1096     1.0  0.62822  0.10621  0.35963  1.0000
  Fe  Fe177     1.0  0.54940  0.01472  0.17470  1.0000
  Fe  Fe178     1.0  0.68246  0.28605  0.15143  1.0000
  S   S360      1.0  0.68741  0.26891  0.16024  1.0000
  S   S361      1.0  0.66428  0.28790  0.15165  1.0000
  Fe  Fe179     1.0  0.70742  0.30059  0.13872  1.0000
  S   S362      1.0  0.71453  0.28473  0.14553  1.0000
  H   H1097     1.0  0.70659  0.30232  0.00716  1.0000
  Fe  Fe180     1.0  0.70221  0.27777  0.12097  1.0000
  S   S363      1.0  0.70798  0.26888  0.08654  1.0000
  Fe  Fe181     1.0  0.69913  0.27750  0.18418  1.0000
  S   S364      1.0  0.70164  0.26735  0.22556  1.0000
  S   S365      1.0  0.69651  0.29438  0.11069  1.0000
  S   S366      1.0  0.69277  0.29393  0.17883  1.0000
  Fe  Fe182     1.0  0.52655  0.12506  0.33504  1.0000
  S   S367      1.0  0.53290  0.11356  0.36751  1.0000
  S   S368      1.0  0.52371  0.12163  0.29187  1.0000
  Fe  Fe183     1.0  0.53027  0.14551  0.36587  1.0000
  S   S369      1.0  0.53616  0.13504  0.40050  1.0000
  S   S370      1.0  0.53014  0.16476  0.36329  1.0000
  Fe  Fe184     1.0  0.54668  0.12983  0.36444  1.0000
  S   S371      1.0  0.56602  0.13106  0.35709  1.0000
  Fe  Fe185     1.0  0.52184  0.11974  0.40140  1.0000
  C   C1082     1.0  0.56357  0.29740  0.41898  1.0000
  S   S372      1.0  0.54142  0.14093  0.32974  1.0000
  S   S373      1.0  0.51475  0.13058  0.36903  1.0000
  H   H1098     1.0  0.58170  0.28825  0.13279  1.0000
  H   H1099     1.0  0.60490  0.30509  0.19274  1.0000
  S   S374      1.0  0.51495  0.09493  0.14167  1.0000
  N   N94       1.0  0.58965  0.30386  0.14292  1.0000
  C   C1083     1.0  0.59657  0.28914  0.18361  1.0000
  C   C1084     1.0  0.66657  0.24697  0.98813  1.0000
  Fe  Fe186     1.0  0.52091  0.07876  0.13757  1.0000
  S   S375      1.0  0.53977  0.07820  0.13107  1.0000
  C   C1085     1.0  0.59001  0.28441  0.16668  1.0000
  Fe  Fe187     1.0  0.59626  0.09303  0.19733  1.0000
  S   S376      1.0  0.59401  0.10361  0.15678  1.0000
  S   S377      1.0  0.58986  0.07274  0.21196  1.0000
  Fe  Fe188     1.0  0.60280  0.11531  0.22123  1.0000
  S   S378      1.0  0.60014  0.12691  0.18234  1.0000
  S   S379      1.0  0.60385  0.12299  0.26065  1.0000
  Fe  Fe189     1.0  0.58451  0.11258  0.18580  1.0000
  S   S380      1.0  0.56750  0.11619  0.18040  1.0000
  Fe  Fe190     1.0  0.60999  0.11715  0.15573  1.0000
  S   S381      1.0  0.62249  0.12967  0.11427  1.0000
  S   S382      1.0  0.58600  0.10166  0.22638  1.0000
  S   S383      1.0  0.61350  0.10593  0.19465  1.0000
  Fe  Fe191     1.0  0.63129  0.15584  0.37238  1.0000
  S   S384      1.0  0.62727  0.17355  0.36948  1.0000
  S   S385      1.0  0.63506  0.14758  0.33403  1.0000
  Fe  Fe192     1.0  0.62790  0.15113  0.43822  1.0000
  S   S386      1.0  0.62308  0.16812  0.43941  1.0000
  Fe  Fe193     1.0  0.72163  0.27168  0.40619  1.0000
  Fe  Fe194     1.0  0.61271  0.16390  0.40846  1.0000
  S   S387      1.0  0.59469  0.16667  0.41117  1.0000
  Fe  Fe195     1.0  0.63830  0.17669  0.40041  1.0000
  S   S388      1.0  0.64740  0.19569  0.40040  1.0000
  S   S389      1.0  0.61615  0.14615  0.41040  1.0000
  S   S390      1.0  0.64370  0.15968  0.40035  1.0000
  C   C1086     1.0  0.61318  0.13116  0.27788  1.0000
  C   C1087     1.0  0.60813  0.13646  0.29853  1.0000
  C   C1088     1.0  0.61477  0.14193  0.31489  1.0000
  C   C1089     1.0  0.62663  0.14215  0.31123  1.0000
  C   C1090     1.0  0.63181  0.13723  0.28988  1.0000
  C   C1091     1.0  0.62518  0.13178  0.27339  1.0000
  H   H1100     1.0  0.59893  0.13622  0.30228  1.0000
  H   H1101     1.0  0.61070  0.14583  0.33075  1.0000
  H   H1102     1.0  0.64100  0.13742  0.28642  1.0000
  H   H1103     1.0  0.62932  0.12784  0.25764  1.0000
  C   C1092     1.0  0.62224  0.13091  0.07788  1.0000
  C   C1093     1.0  0.62877  0.14132  0.05697  1.0000
  C   C1094     1.0  0.62886  0.14270  0.02788  1.0000
  C   C1095     1.0  0.62258  0.13357  0.01921  1.0000
  C   C1096     1.0  0.61614  0.12311  0.04010  1.0000
  C   C1097     1.0  0.61584  0.12184  0.06925  1.0000
  H   H1104     1.0  0.63384  0.14837  0.06331  1.0000
  C   C1098     1.0  0.57486  0.12595  0.28045  1.0000
  C   C1099     1.0  0.68602  0.24283  0.32795  1.0000
  H   H1105     1.0  0.61089  0.11372  0.08493  1.0000
  C   C1100     1.0  0.54834  0.08943  0.14140  1.0000
  C   C1101     1.0  0.54530  0.10006  0.14129  1.0000
  C   C1102     1.0  0.55125  0.10829  0.15309  1.0000
  C   C1103     1.0  0.56040  0.10600  0.16472  1.0000
  C   C1104     1.0  0.56371  0.09554  0.16401  1.0000
  C   C1105     1.0  0.55783  0.08737  0.15190  1.0000
  H   H1106     1.0  0.53845  0.10204  0.13180  1.0000
  H   H1107     1.0  0.54873  0.11643  0.15321  1.0000
  H   H1108     1.0  0.57043  0.09343  0.17391  1.0000
  H   H1109     1.0  0.56031  0.07920  0.15199  1.0000
  C   C1106     1.0  0.56888  0.04448  0.17702  1.0000
  C   C1107     1.0  0.56990  0.04190  0.20515  1.0000
  C   C1108     1.0  0.57628  0.05064  0.21539  1.0000
  C   C1109     1.0  0.58156  0.06218  0.19800  1.0000
  C   C1110     1.0  0.58022  0.06486  0.17019  1.0000
  C   C1111     1.0  0.57410  0.05605  0.15972  1.0000
  H   H1110     1.0  0.57726  0.04839  0.23690  1.0000
  H   H1111     1.0  0.58425  0.07362  0.15638  1.0000
  H   H1112     1.0  0.57363  0.05820  0.13778  1.0000
  C   C1112     1.0  0.58918  0.24728  0.46481  1.0000
  C   C1113     1.0  0.51783  0.09737  0.00112  1.0000
  H   H1113     1.0  0.52972  0.00264  0.46741  1.0000
  H   H1114     1.0  0.59936  0.28342  0.19932  1.0000
  H   H1115     1.0  0.66070  0.31015  0.10769  1.0000
  S   S391      1.0  0.50799  0.06684  0.17717  1.0000
  H   H1116     1.0  0.57628  0.30025  0.46616  1.0000
  S   S392      1.0  0.50975  0.07366  0.10900  1.0000
  C   C1114     1.0  0.68700  0.23881  0.28105  1.0000
  H   H1117     1.0  0.59915  0.30834  0.03018  1.0000
  C   C1115     1.0  0.51683  0.11150  0.27416  1.0000
  H   H1118     1.0  0.54373  0.13182  0.24004  1.0000
  H   H1119     1.0  0.52121  0.15985  0.45809  1.0000
  C   C1116     1.0  0.67807  0.31741  0.12834  1.0000
  C   C1117     1.0  0.51383  0.10720  0.22909  1.0000
  C   C1118     1.0  0.51883  0.11486  0.24414  1.0000
  C   C1119     1.0  0.57172  0.19015  0.32150  1.0000
  S   S393      1.0  0.53393  0.00707  0.21354  1.0000
  C   C1120     1.0  0.73457  0.32709  0.19810  1.0000
  H   H1120     1.0  0.58866  0.32877  0.34763  1.0000
  C   C1121     1.0  0.57381  0.14126  0.37178  1.0000
  C   C1122     1.0  0.58602  0.14358  0.36531  1.0000
  C   C1123     1.0  0.59247  0.15137  0.37734  1.0000
  C   C1124     1.0  0.58672  0.15699  0.39577  1.0000
  C   C1125     1.0  0.57454  0.15504  0.40145  1.0000
  C   C1126     1.0  0.56811  0.14717  0.38953  1.0000
  H   H1121     1.0  0.59048  0.13939  0.35077  1.0000
  H   H1122     1.0  0.60192  0.15316  0.37202  1.0000
  H   H1123     1.0  0.57004  0.15947  0.41542  1.0000
  H   H1124     1.0  0.55877  0.14569  0.39428  1.0000
  C   C1127     1.0  0.70192  0.28230  0.30324  1.0000
  H   H1125     1.0  0.56131  0.29872  0.35326  1.0000
  H   H1126     1.0  0.60884  0.29941  0.02033  1.0000
  C   C1128     1.0  0.70285  0.27403  0.25373  1.0000
  C   C1129     1.0  0.69901  0.28415  0.25539  1.0000
  C   C1130     1.0  0.69858  0.28829  0.28006  1.0000
  C   C1131     1.0  0.55112  0.06677  0.21723  1.0000
  H   H1127     1.0  0.65149  0.30832  0.14269  1.0000
  H   H1128     1.0  0.69600  0.28857  0.23811  1.0000
  C   C1132     1.0  0.69195  0.27181  0.01021  1.0000
  C   C1133     1.0  0.70057  0.26571  0.01230  1.0000
  C   C1134     1.0  0.70500  0.26441  0.03644  1.0000
  C   C1135     1.0  0.70094  0.26930  0.05869  1.0000
  C   C1136     1.0  0.69196  0.27499  0.05728  1.0000
  C   C1137     1.0  0.68745  0.27620  0.03312  1.0000
  H   H1129     1.0  0.73215  0.28550  0.03318  1.0000
  H   H1130     1.0  0.71185  0.25990  0.03753  1.0000
  C   C1138     1.0  0.57781  0.27786  0.47804  1.0000
  H   H1131     1.0  0.69336  0.33520  0.16043  1.0000
  C   C1139     1.0  0.68109  0.22169  0.40447  1.0000
  C   C1140     1.0  0.68131  0.21028  0.40169  1.0000
  C   C1141     1.0  0.67118  0.20221  0.40050  1.0000
  C   C1142     1.0  0.66059  0.20543  0.40191  1.0000
  C   C1143     1.0  0.66036  0.21684  0.40470  1.0000
  C   C1144     1.0  0.67046  0.22486  0.40612  1.0000
  H   H1132     1.0  0.68942  0.20765  0.40035  1.0000
  H   H1133     1.0  0.67163  0.19356  0.39815  1.0000
  H   H1134     1.0  0.65227  0.21950  0.40593  1.0000
  H   H1135     1.0  0.66998  0.23349  0.40864  1.0000
  C   C1145     1.0  0.64646  0.26752  0.09749  1.0000
  C   C1146     1.0  0.65643  0.26491  0.10474  1.0000
  C   C1147     1.0  0.66232  0.27151  0.12027  1.0000
  C   C1148     1.0  0.65808  0.28055  0.12904  1.0000
  C   C1149     1.0  0.64840  0.28343  0.12076  1.0000
  C   C1150     1.0  0.64282  0.27714  0.10437  1.0000
  H   H1136     1.0  0.65936  0.25753  0.09934  1.0000
  H   H1137     1.0  0.66984  0.26928  0.12635  1.0000
  H   H1138     1.0  0.64509  0.29044  0.12720  1.0000
  H   H1139     1.0  0.63562  0.27968  0.09732  1.0000
  C   C1151     1.0  0.73366  0.29228  0.33191  1.0000
  H   H1140     1.0  0.58768  0.27497  0.16905  1.0000
  C   C1152     1.0  0.60325  0.19692  0.41374  1.0000
  C   C1153     1.0  0.58987  0.25047  0.00919  1.0000
  H   H1141     1.0  0.57732  0.28641  0.30870  1.0000
  C   C1154     1.0  0.68167  0.23847  0.01720  1.0000
  H   H1142     1.0  0.54331  0.11686  0.23856  1.0000
  H   H1143     1.0  0.60751  0.25083  0.01170  1.0000
  C   C1155     1.0  0.62323  0.20796  0.40966  1.0000
  N   N95       1.0  0.68363  0.24539  0.30188  1.0000
  C   C1156     1.0  0.58953  0.24847  0.20991  1.0000
  C   C1157     1.0  0.59844  0.25846  0.20683  1.0000
  C   C1158     1.0  0.60128  0.26131  0.23109  1.0000
  C   C1159     1.0  0.59530  0.25417  0.25857  1.0000
  C   C1160     1.0  0.58627  0.24428  0.26171  1.0000
  C   C1161     1.0  0.58341  0.24145  0.23743  1.0000
  H   H1144     1.0  0.60328  0.26387  0.18582  1.0000
  H   H1145     1.0  0.60837  0.26889  0.22855  1.0000
  H   H1146     1.0  0.58162  0.23871  0.28281  1.0000
  H   H1147     1.0  0.57648  0.23372  0.23996  1.0000
  C   C1162     1.0  0.58960  0.30539  0.98265  1.0000
  C   C1163     1.0  0.55745  0.18224  0.38871  1.0000
  C   C1164     1.0  0.54934  0.17319  0.38348  1.0000
  C   C1165     1.0  0.54057  0.17583  0.37064  1.0000
  C   C1166     1.0  0.54002  0.18763  0.36329  1.0000
  C   C1167     1.0  0.54825  0.19672  0.36806  1.0000
  H   H1148     1.0  0.58354  0.27582  0.46007  1.0000
  H   H1149     1.0  0.54995  0.16419  0.38926  1.0000
  H   H1150     1.0  0.53326  0.18981  0.35344  1.0000
  H   H1151     1.0  0.54779  0.20575  0.36183  1.0000
  C   C1168     1.0  0.62714  0.32028  0.12720  1.0000
  C   C1169     1.0  0.62669  0.30829  0.13220  1.0000
  C   C1170     1.0  0.62054  0.30133  0.11788  1.0000
  C   C1171     1.0  0.61482  0.30636  0.09863  1.0000
  C   C1172     1.0  0.61552  0.31839  0.09318  1.0000
  C   C1173     1.0  0.62162  0.32533  0.10754  1.0000
  H   H1152     1.0  0.63076  0.30428  0.14775  1.0000
  H   H1153     1.0  0.62006  0.29209  0.12220  1.0000
  H   H1154     1.0  0.61115  0.32231  0.07820  1.0000
  S   S394      1.0  0.53848  0.01123  0.14386  1.0000
  Fe  Fe196     1.0  0.59212  0.24247  0.39459  1.0000
  C   C1174     1.0  0.59960  0.30127  0.18011  1.0000
  H   H1155     1.0  0.58285  0.11647  0.37099  1.0000
  C   C1175     1.0  0.56773  0.16648  0.32272  1.0000
  C   C1176     1.0  0.57367  0.29350  0.41036  1.0000
  S   S395      1.0  0.55919  0.26189  0.39496  1.0000
  H   H1156     1.0  0.56421  0.18006  0.39851  1.0000
  H   H1157     1.0  0.60840  0.23419  0.21965  1.0000
  C   C1177     1.0  0.55706  0.19409  0.38076  1.0000
  H   H1158     1.0  0.57974  0.28007  0.34275  1.0000
  S   S396      1.0  0.57287  0.23444  0.41348  1.0000
  H   H1159     1.0  0.65812  0.33140  0.15205  1.0000
  H   H1160     1.0  0.50784  0.09746  0.31180  1.0000
  C   C1178     1.0  0.65789  0.31485  0.12393  1.0000
  H   H1161     1.0  0.54551  0.11756  0.28961  1.0000
  H   H1162     1.0  0.52956  0.09335  0.20797  1.0000
  Fe  Fe197     1.0  0.57357  0.22545  0.37747  1.0000
  C   C1179     1.0  0.72759  0.28805  0.01714  1.0000
  N   N96       1.0  0.51088  0.14685  0.44346  1.0000
  C   C1180     1.0  0.68615  0.33117  0.15276  1.0000
  N   N97       1.0  0.72591  0.30700  0.30701  1.0000
  H   H1163     1.0  0.62609  0.20422  0.39145  1.0000
  Fe  Fe198     1.0  0.57109  0.25027  0.38264  1.0000
  H   H1164     1.0  0.74019  0.30078  0.42173  1.0000
  N   N98       1.0  0.57878  0.29787  0.33593  1.0000
  C   C1181     1.0  0.59045  0.30349  0.32860  1.0000
  C   C1182     1.0  0.57056  0.30323  0.34688  1.0000
  C   C1183     1.0  0.59417  0.31473  0.33250  1.0000
  C   C1184     1.0  0.57398  0.31443  0.35124  1.0000
  C   C1185     1.0  0.58586  0.32016  0.34405  1.0000
  C   C1186     1.0  0.57519  0.28606  0.33180  1.0000
  H   H1165     1.0  0.59696  0.29924  0.31991  1.0000
  C   C1187     1.0  0.68115  0.23600  0.99112  1.0000
  N   N99       1.0  0.61054  0.20667  0.41661  1.0000
  S   S397      1.0  0.62895  0.13718  0.47636  1.0000
  C   C1188     1.0  0.73554  0.28782  0.30797  1.0000
  H   H1166     1.0  0.67513  0.24719  0.04838  1.0000
  H   H1167     1.0  0.71056  0.31306  0.31129  1.0000
  H   H1168     1.0  0.67762  0.25706  0.27304  1.0000
  H   H1169     1.0  0.68065  0.28078  0.03194  1.0000
  C   C1189     1.0  0.50642  0.09605  0.24380  1.0000
  C   C1190     1.0  0.66640  0.32899  0.14781  1.0000
  H   H1170     1.0  0.65490  0.15645  0.46143  1.0000
  H   H1171     1.0  0.56747  0.31848  0.36091  1.0000
  S   S398      1.0  0.50580  0.00475  0.18160  1.0000
  C   C1191     1.0  0.51034  0.11443  0.98987  1.0000
  H   H1172     1.0  0.72678  0.30492  0.35029  1.0000
  S   S399      1.0  0.68724  0.27385  0.47869  1.0000
  H   H1173     1.0  0.66233  0.25929  0.04360  1.0000
  C   C1192     1.0  0.67558  0.33440  0.15774  1.0000
  S   S400      1.0  0.50039  0.10182  0.07701  1.0000
  H   H1174     1.0  0.68769  0.23537  0.02855  1.0000
  H   H1175     1.0  0.59039  0.22036  0.44246  1.0000
  C   C1193     1.0  0.51347  0.09611  0.03065  1.0000
  H   H1176     1.0  0.65887  0.18486  0.45845  1.0000
  C   C1194     1.0  0.60602  0.21492  0.42722  1.0000
  N   N100      1.0  0.59464  0.29900  0.00046  1.0000
  H   H1177     1.0  0.59485  0.28182  0.02285  1.0000
  C   C1195     1.0  0.58644  0.20391  0.43103  1.0000
  C   C1196     1.0  0.50574  0.11301  0.01942  1.0000
  H   H1178     1.0  0.59118  0.32085  0.11605  1.0000
  C   C1197     1.0  0.73799  0.27760  0.98713  1.0000
  H   H1179     1.0  0.51923  0.16501  0.42331  1.0000
  H   H1180     1.0  0.60959  0.31293  0.99567  1.0000
  C   C1198     1.0  0.73256  0.29305  0.28355  1.0000
  H   H1181     1.0  0.61800  0.24991  0.46166  1.0000
  H   H1182     1.0  0.60859  0.23859  0.16758  1.0000
  H   H1183     1.0  0.55341  0.05916  0.21133  1.0000
  N   N101      1.0  0.59277  0.13366  0.08096  1.0000
  C   C1199     1.0  0.74892  0.29955  0.41980  1.0000
  C   C1200     1.0  0.58853  0.12769  0.06299  1.0000
  C   C1201     1.0  0.60033  0.14461  0.07032  1.0000
  H   H1184     1.0  0.54477  0.29295  0.42790  1.0000
  C   C1202     1.0  0.67892  0.25463  0.29429  1.0000
  C   C1203     1.0  0.58937  0.12835  0.11183  1.0000
  H   H1185     1.0  0.67907  0.31062  0.11730  1.0000
  H   H1186     1.0  0.58274  0.11890  0.07136  1.0000
  S   S401      1.0  0.56821  0.20517  0.38575  1.0000
  H   H1187     1.0  0.58220  0.29899  0.40869  1.0000
  H   H1188     1.0  0.63256  0.26003  0.24169  1.0000
  H   H1189     1.0  0.58378  0.11920  0.11766  1.0000
  H   H1190     1.0  0.59733  0.12806  0.11961  1.0000
  H   H1191     1.0  0.58436  0.13357  0.12319  1.0000
  S   S402      1.0  0.56136  0.03372  0.16216  1.0000
  H   H1192     1.0  0.62818  0.21737  0.40334  1.0000
  S   S403      1.0  0.59606  0.32928  0.41134  1.0000
  C   C1204     1.0  0.65101  0.17769  0.46089  1.0000
  H   H1193     1.0  0.65347  0.32134  0.11441  1.0000
  S   S404      1.0  0.63415  0.32887  0.14634  1.0000
  H   H1194     1.0  0.61013  0.15842  0.03246  1.0000
  Fe  Fe199     1.0  0.70313  0.27594  0.37432  1.0000
  C   C1205     1.0  0.55263  0.29014  0.42109  1.0000
  C   C1206     1.0  0.59969  0.12071  0.38012  1.0000
  H   H1195     1.0  0.56027  0.11770  0.31744  1.0000
  C   C1207     1.0  0.59959  0.14389  0.02243  1.0000
  H   H1196     1.0  0.64320  0.18133  0.46297  1.0000
  H   H1197     1.0  0.73908  0.28019  0.30859  1.0000
  H   H1198     1.0  0.69601  0.24332  0.26740  1.0000
  C   C1208     1.0  0.61136  0.12015  0.37278  1.0000
  S   S405      1.0  0.60542  0.24420  0.42071  1.0000
  S   S406      1.0  0.74124  0.27847  0.40340  1.0000
  H   H1199     1.0  0.68863  0.27863  0.07453  1.0000
  H   H1200     1.0  0.61054  0.10612  0.32088  1.0000
  N   N102      1.0  0.53749  0.04849  0.13382  1.0000
  C   C1209     1.0  0.52991  0.05098  0.11781  1.0000
  C   C1210     1.0  0.53361  0.03988  0.15896  1.0000
  C   C1211     1.0  0.51814  0.04463  0.12669  1.0000
  C   C1212     1.0  0.52190  0.03341  0.16850  1.0000
  C   C1213     1.0  0.51415  0.03573  0.15210  1.0000
  C   C1214     1.0  0.54994  0.05472  0.12378  1.0000
  H   H1201     1.0  0.53293  0.05796  0.09818  1.0000
  H   H1202     1.0  0.53958  0.03792  0.17169  1.0000
  H   H1203     1.0  0.69001  0.23568  0.33389  1.0000
  H   H1204     1.0  0.51890  0.02647  0.18823  1.0000
  H   H1205     1.0  0.58139  0.12604  0.29251  1.0000
  H   H1206     1.0  0.55521  0.04869  0.11719  1.0000
  H   H1207     1.0  0.55171  0.06249  0.10542  1.0000
  H   H1208     1.0  0.55291  0.05800  0.14111  1.0000
  C   C1215     1.0  0.59193  0.13269  0.03346  1.0000
  H   H1209     1.0  0.51470  0.08900  0.04610  1.0000
  C   C1216     1.0  0.72357  0.31311  0.17799  1.0000
  H   H1210     1.0  0.63332  0.12208  0.34710  1.0000
  H   H1211     1.0  0.61506  0.24305  0.25631  1.0000
  H   H1212     1.0  0.68575  0.24764  0.36757  1.0000
  C   C1217     1.0  0.59110  0.19543  0.42073  1.0000
  H   H1213     1.0  0.70399  0.26212  0.99521  1.0000
  C   C1218     1.0  0.60348  0.30519  0.01223  1.0000
  C   C1219     1.0  0.58190  0.24899  0.99243  1.0000
  C   C1220     1.0  0.57826  0.13053  0.25086  1.0000
  H   H1214     1.0  0.59848  0.31797  0.15690  1.0000
  C   C1221     1.0  0.50959  0.10027  0.28881  1.0000
  C   C1222     1.0  0.59392  0.21369  0.43445  1.0000
  H   H1215     1.0  0.58747  0.13415  0.23978  1.0000
  H   H1216     1.0  0.57300  0.24949  0.00031  1.0000
  H   H1217     1.0  0.51542  0.11008  0.20614  1.0000
  H   H1218     1.0  0.52415  0.12357  0.23234  1.0000
  C   C1223     1.0  0.60085  0.24738  0.45391  1.0000
  H   H1219     1.0  0.61133  0.11594  0.03368  1.0000
  C   C1224     1.0  0.59108  0.28696  0.00821  1.0000
  H   H1220     1.0  0.59641  0.19156  0.32800  1.0000
  H   H1221     1.0  0.58899  0.12777  0.01910  1.0000
  H   H1222     1.0  0.57245  0.13384  0.21262  1.0000
  H   H1223     1.0  0.56560  0.07064  0.23591  1.0000
  H   H1224     1.0  0.58533  0.18773  0.41822  1.0000
  H   H1225     1.0  0.73368  0.28950  0.26502  1.0000
  H   H1226     1.0  0.56056  0.08832  0.24818  1.0000
  C   C1225     1.0  0.55517  0.08317  0.23784  1.0000
  H   H1227     1.0  0.54343  0.09437  0.23591  1.0000
  C   C1226     1.0  0.57687  0.17201  0.33251  1.0000
  C   C1227     1.0  0.54548  0.08655  0.23084  1.0000
  C   C1228     1.0  0.55801  0.07325  0.23091  1.0000
  H   H1228     1.0  0.50791  0.15184  0.40218  1.0000
  H   H1229     1.0  0.68099  0.23834  0.26689  1.0000
  C   C1229     1.0  0.57266  0.28242  0.40371  1.0000
  H   H1230     1.0  0.56603  0.03309  0.21881  1.0000
  C   C1230     1.0  0.62733  0.11412  0.34502  1.0000
  H   H1231     1.0  0.70985  0.26065  0.27513  1.0000
  H   H1232     1.0  0.52059  0.07879  0.22737  1.0000
  C   C1231     1.0  0.60132  0.24970  0.99894  1.0000
  H   H1233     1.0  0.51211  0.04657  0.11403  1.0000
  H   H1234     1.0  0.63029  0.11369  0.32256  1.0000
  H   H1235     1.0  0.63392  0.15076  0.01216  1.0000
  N   N103      1.0  0.53886  0.08024  0.21712  1.0000
  C   C1232     1.0  0.63205  0.25497  0.17692  1.0000
  C   C1233     1.0  0.52864  0.08379  0.21029  1.0000
  C   C1234     1.0  0.59187  0.11584  0.36596  1.0000
  Fe  Fe200     1.0  0.57704  0.32856  0.41909  1.0000
  H   H1236     1.0  0.57975  0.27150  0.00342  1.0000
  H   H1237     1.0  0.62216  0.24613  0.14167  1.0000
  H   H1238     1.0  0.62081  0.23192  0.16454  1.0000
  S   S407      1.0  0.59025  0.25856  0.36576  1.0000
  S   S408      1.0  0.59321  0.23259  0.36067  1.0000
  H   H1239     1.0  0.71916  0.30415  0.17933  1.0000
  H   H1240     1.0  0.66082  0.26474  0.00866  1.0000
  S   S409      1.0  0.70028  0.28710  0.33484  1.0000
  C   C1235     1.0  0.61827  0.24033  0.16370  1.0000
  Fe  Fe201     1.0  0.70041  0.25084  0.40770  1.0000
  C   C1236     1.0  0.54144  0.07036  0.21067  1.0000
  C   C1237     1.0  0.72865  0.31556  0.19978  1.0000
  C   C1238     1.0  0.59580  0.11049  0.34468  1.0000
  H   H1241     1.0  0.61747  0.12422  0.38336  1.0000
  C   C1239     1.0  0.61629  0.24136  0.21323  1.0000
  S   S410      1.0  0.56363  0.31107  0.42765  1.0000
  C   C1240     1.0  0.58263  0.29876  0.47819  1.0000
  H   H1242     1.0  0.52891  0.15561  0.42800  1.0000
  C   C1241     1.0  0.62002  0.24631  0.23405  1.0000
  H   H1243     1.0  0.63688  0.25832  0.15473  1.0000
  C   C1242     1.0  0.52052  0.15733  0.43806  1.0000
  N   N104      1.0  0.62223  0.24579  0.18505  1.0000
  H   H1244     1.0  0.58251  0.16693  0.34051  1.0000
  C   C1243     1.0  0.58251  0.28104  0.99734  1.0000
  C   C1244     1.0  0.63594  0.26023  0.19708  1.0000
  S   S411      1.0  0.70836  0.25706  0.44144  1.0000
  H   H1245     1.0  0.64363  0.26766  0.19035  1.0000
  C   C1245     1.0  0.62982  0.25590  0.22583  1.0000
  C   C1246     1.0  0.56301  0.12123  0.29442  1.0000
  C   C1247     1.0  0.56156  0.27536  0.40523  1.0000
  N   N105      1.0  0.57853  0.18360  0.33265  1.0000
  C   C1248     1.0  0.67868  0.25892  0.33983  1.0000
  C   C1249     1.0  0.72443  0.32218  0.15430  1.0000
  H   H1246     1.0  0.56563  0.28201  0.34110  1.0000
  H   H1247     1.0  0.55681  0.19000  0.30370  1.0000
  H   H1248     1.0  0.69551  0.31993  0.13430  1.0000
  C   C1250     1.0  0.60380  0.14992  0.04094  1.0000
  H   H1249     1.0  0.68674  0.22965  0.29180  1.0000
  C   C1251     1.0  0.71947  0.29465  0.02264  1.0000
  C   C1252     1.0  0.54913  0.12584  0.23372  1.0000
  S   S412      1.0  0.71049  0.28442  0.40542  1.0000
  C   C1253     1.0  0.56255  0.18492  0.31128  1.0000
  C   C1254     1.0  0.56045  0.17297  0.31232  1.0000
  C   C1255     1.0  0.58657  0.29195  0.14635  1.0000
  N   N106      1.0  0.55810  0.12572  0.24956  1.0000
  C   C1256     1.0  0.55166  0.27936  0.41405  1.0000
  N   N107      1.0  0.66777  0.32069  0.13310  1.0000
  C   C1257     1.0  0.55471  0.12120  0.27856  1.0000
  C   C1258     1.0  0.58787  0.18902  0.34424  1.0000
  H   H1250     1.0  0.58839  0.18277  0.36365  1.0000
  C   C1259     1.0  0.68740  0.32261  0.13801  1.0000
  H   H1251     1.0  0.65048  0.25149  0.03242  1.0000
  H   H1252     1.0  0.57301  0.19934  0.32162  1.0000
  H   H1253     1.0  0.57704  0.20293  0.43627  1.0000
  C   C1260     1.0  0.70624  0.27249  0.30105  1.0000
  C   C1261     1.0  0.70675  0.26841  0.27635  1.0000
  H   H1254     1.0  0.58614  0.19693  0.35088  1.0000
  S   S413      1.0  0.71513  0.26400  0.37245  1.0000
  H   H1255     1.0  0.57650  0.31134  0.13001  1.0000
  H   H1256     1.0  0.70894  0.26786  0.31861  1.0000
  S   S414      1.0  0.51014  0.10671  0.44322  1.0000
  H   H1257     1.0  0.54306  0.27404  0.41543  1.0000
  H   H1258     1.0  0.56619  0.15716  0.32370  1.0000
  H   H1259     1.0  0.58041  0.27944  0.39699  1.0000
  H   H1260     1.0  0.60342  0.31922  0.32682  1.0000
  H   H1261     1.0  0.67710  0.26444  0.35427  1.0000
  H   H1262     1.0  0.55306  0.16873  0.30555  1.0000
  C   C1262     1.0  0.72771  0.30267  0.28350  1.0000
  H   H1263     1.0  0.61176  0.22256  0.43001  1.0000
  C   C1263     1.0  0.71322  0.29759  0.00269  1.0000
  H   H1264     1.0  0.72201  0.32137  0.32301  1.0000
  C   C1264     1.0  0.72019  0.31666  0.30675  1.0000
  H   H1265     1.0  0.60402  0.14912  0.08453  1.0000
  H   H1266     1.0  0.58696  0.30877  0.10147  1.0000
  H   H1267     1.0  0.55298  0.12884  0.21024  1.0000
  H   H1268     1.0  0.62569  0.20328  0.42839  1.0000
  C   C1265     1.0  0.72868  0.30185  0.33117  1.0000
  C   C1266     1.0  0.65983  0.25653  0.02518  1.0000
  Fe  Fe202     1.0  0.50153  0.08299  0.18074  1.0000
  C   C1267     1.0  0.58584  0.31158  0.12167  1.0000
  C   C1268     1.0  0.56971  0.13033  0.23563  1.0000
  H   H1269     1.0  0.62199  0.33459  0.10344  1.0000
  H   H1270     1.0  0.72507  0.30650  0.26488  1.0000
  C   C1269     1.0  0.67452  0.24514  0.02833  1.0000
  H   H1271     1.0  0.72336  0.32318  0.28549  1.0000
  H   H1272     1.0  0.58287  0.24550  0.45267  1.0000
  H   H1273     1.0  0.58762  0.31697  0.47932  1.0000
  H   H1274     1.0  0.60681  0.19024  0.40602  1.0000
  C   C1270     1.0  0.67630  0.26149  0.31320  1.0000
  H   H1275     1.0  0.67294  0.26905  0.30677  1.0000
  S   S415      1.0  0.74106  0.32997  0.22545  1.0000
  H   H1276     1.0  0.73575  0.28814  0.35118  1.0000
  H   H1277     1.0  0.65209  0.17479  0.44083  1.0000
  H   H1278     1.0  0.50094  0.11904  0.02633  1.0000
  H   H1279     1.0  0.50508  0.03060  0.15904  1.0000
  C   C1271     1.0  0.60894  0.24978  0.46999  1.0000
  H   H1280     1.0  0.52451  0.12104  0.47131  1.0000
  H   H1281     1.0  0.74541  0.32527  0.11531  1.0000
  Fe  Fe203     1.0  0.50278  0.08906  0.11549  1.0000
  C   C1272     1.0  0.50437  0.09270  0.27381  1.0000
  C   C1273     1.0  0.73030  0.33371  0.15256  1.0000
  C   C1274     1.0  0.50536  0.14527  0.42252  1.0000
  C   C1275     1.0  0.50792  0.13837  0.46872  1.0000
  C   C1276     1.0  0.51112  0.10504  0.47929  1.0000
  H   H1282     1.0  0.73779  0.27127  0.00714  1.0000
  H   H1283     1.0  0.74683  0.32058  0.06769  1.0000
  H   H1284     1.0  0.57000  0.27977  0.47138  1.0000
  H   H1285     1.0  0.61733  0.33558  0.02003  1.0000
  H   H1286     1.0  0.57486  0.14285  0.95204  1.0000
  C   C1277     1.0  0.73276  0.28588  0.73799  1.0000
  S   S416      1.0  0.70803  0.25757  0.94302  1.0000
  C   C1278     1.0  0.60018  0.22720  0.77575  1.0000
  C   C1279     1.0  0.58937  0.21362  0.93767  1.0000
  C   C1280     1.0  0.50487  0.10442  0.78750  1.0000
  H   H1287     1.0  0.73796  0.30878  0.80428  1.0000
  H   H1288     1.0  0.54392  0.29673  0.91230  1.0000
  C   C1281     1.0  0.59902  0.29527  0.50869  1.0000
  H   H1289     1.0  0.73297  0.28175  0.72044  1.0000
  Fe  Fe204     1.0  0.58932  0.24920  0.82982  1.0000
  S   S417      1.0  0.56976  0.24355  0.83882  1.0000
  S   S418      1.0  0.60236  0.25535  0.78639  1.0000
  C   C1282     1.0  0.56065  0.27851  0.89337  1.0000
  S   S419      1.0  0.52143  0.10714  0.94351  1.0000
  H   H1290     1.0  0.74240  0.32530  0.56347  1.0000
  S   S420      1.0  0.50361  0.06589  0.68766  1.0000
  C   C1283     1.0  0.51628  0.10650  0.98048  1.0000
  C   C1284     1.0  0.50414  0.09791  0.74355  1.0000
  Fe  Fe205     1.0  0.61016  0.28294  0.58296  1.0000
  S   S421      1.0  0.59212  0.27117  0.59518  1.0000
  S   S422      1.0  0.61292  0.30244  0.56739  1.0000
  Fe  Fe206     1.0  0.62119  0.26274  0.59380  1.0000
  S   S423      1.0  0.60395  0.24891  0.60690  1.0000
  S   S424      1.0  0.63940  0.26014  0.59054  1.0000
  Fe  Fe207     1.0  0.59996  0.26006  0.56934  1.0000
  S   S425      1.0  0.58843  0.25406  0.54170  1.0000
  Fe  Fe208     1.0  0.59738  0.26107  0.63158  1.0000
  S   S426      1.0  0.58444  0.25618  0.67491  1.0000
  S   S427      1.0  0.61771  0.27279  0.55412  1.0000
  S   S428      1.0  0.61480  0.27389  0.62153  1.0000
  C   C1285     1.0  0.72314  0.32010  0.67755  1.0000
  S   S429      1.0  0.68777  0.26209  0.90958  1.0000
  S   S430      1.0  0.69235  0.23012  0.92080  1.0000
  Fe  Fe209     1.0  0.69647  0.26988  0.93990  1.0000
  C   C1286     1.0  0.73413  0.29799  0.73302  1.0000
  Fe  Fe210     1.0  0.70264  0.27491  0.87476  1.0000
  S   S431      1.0  0.70069  0.28608  0.83400  1.0000
  Fe  Fe211     1.0  0.68592  0.28816  0.65190  1.0000
  S   S432      1.0  0.69075  0.27095  0.65745  1.0000
  S   S433      1.0  0.66688  0.28788  0.66206  1.0000
  Fe  Fe212     1.0  0.71107  0.30240  0.63696  1.0000
  S   S434      1.0  0.71790  0.28633  0.64147  1.0000
  H   H1291     1.0  0.58407  0.28333  0.83879  1.0000
  Fe  Fe213     1.0  0.70503  0.28025  0.61740  1.0000
  S   S435      1.0  0.71125  0.27246  0.58114  1.0000
  Fe  Fe214     1.0  0.70302  0.27880  0.68104  1.0000
  S   S436      1.0  0.70466  0.26766  0.72215  1.0000
  S   S437      1.0  0.69925  0.29692  0.60996  1.0000
  S   S438      1.0  0.69709  0.29537  0.67839  1.0000
  Fe  Fe215     1.0  0.52718  0.12531  0.83559  1.0000
  S   S439      1.0  0.53693  0.11665  0.86441  1.0000
  S   S440      1.0  0.52489  0.11903  0.79494  1.0000
  Fe  Fe216     1.0  0.52929  0.14634  0.86407  1.0000
  S   S441      1.0  0.53877  0.13870  0.89471  1.0000
  S   S442      1.0  0.52664  0.16489  0.86022  1.0000
  Fe  Fe217     1.0  0.54889  0.13449  0.85660  1.0000
  S   S443      1.0  0.56845  0.13710  0.84536  1.0000
  Fe  Fe218     1.0  0.52593  0.12140  0.90110  1.0000
  C   C1287     1.0  0.59651  0.31863  0.82948  1.0000
  S   S444      1.0  0.54019  0.14302  0.82549  1.0000
  S   S445      1.0  0.51532  0.12918  0.87277  1.0000
  H   H1292     1.0  0.63624  0.29785  0.54548  1.0000
  S   S446      1.0  0.72466  0.31975  0.62177  1.0000
  S   S447      1.0  0.51502  0.09277  0.64584  1.0000
  H   H1293     1.0  0.66619  0.24968  0.75670  1.0000
  H   H1294     1.0  0.67735  0.25644  0.60803  1.0000
  C   C1288     1.0  0.60201  0.19911  0.91610  1.0000
  Fe  Fe219     1.0  0.51869  0.07513  0.64986  1.0000
  S   S448      1.0  0.53661  0.07269  0.65007  1.0000
  C   C1289     1.0  0.66495  0.24811  0.57418  1.0000
  Fe  Fe220     1.0  0.59767  0.09240  0.69247  1.0000
  S   S449      1.0  0.59304  0.10340  0.65614  1.0000
  S   S450      1.0  0.59442  0.07231  0.70140  1.0000
  Fe  Fe221     1.0  0.60414  0.11363  0.71971  1.0000
  S   S451      1.0  0.59927  0.12569  0.68520  1.0000
  S   S452      1.0  0.60656  0.11841  0.76193  1.0000
  Fe  Fe222     1.0  0.58395  0.11059  0.69025  1.0000
  S   S453      1.0  0.56521  0.11135  0.69554  1.0000
  Fe  Fe223     1.0  0.60888  0.11745  0.65360  1.0000
  S   S454      1.0  0.62111  0.12919  0.61067  1.0000
  S   S455      1.0  0.58785  0.09909  0.72656  1.0000
  S   S456      1.0  0.61459  0.10593  0.68792  1.0000
  Fe  Fe224     1.0  0.63071  0.15422  0.87593  1.0000
  S   S457      1.0  0.62824  0.17250  0.87250  1.0000
  S   S458      1.0  0.63423  0.14869  0.83322  1.0000
  Fe  Fe225     1.0  0.62684  0.14982  0.94218  1.0000
  S   S459      1.0  0.62361  0.16763  0.94221  1.0000
  N   N108      1.0  0.56516  0.12176  0.92044  1.0000
  Fe  Fe226     1.0  0.61318  0.16405  0.91097  1.0000
  S   S460      1.0  0.59539  0.16736  0.91318  1.0000
  Fe  Fe227     1.0  0.63928  0.17482  0.90371  1.0000
  S   S461      1.0  0.65144  0.19375  0.89300  1.0000
  S   S462      1.0  0.61510  0.14581  0.91348  1.0000
  S   S463      1.0  0.64306  0.15697  0.90458  1.0000
  C   C1290     1.0  0.61436  0.12707  0.78124  1.0000
  C   C1291     1.0  0.62523  0.13526  0.76835  1.0000
  C   C1292     1.0  0.63105  0.14176  0.78451  1.0000
  C   C1293     1.0  0.62608  0.14046  0.81377  1.0000
  C   C1294     1.0  0.61511  0.13242  0.82657  1.0000
  C   C1295     1.0  0.60941  0.12571  0.81057  1.0000
  H   H1295     1.0  0.62925  0.13648  0.74596  1.0000
  H   H1296     1.0  0.63953  0.14785  0.77417  1.0000
  H   H1297     1.0  0.61113  0.13116  0.84901  1.0000
  H   H1298     1.0  0.60111  0.11935  0.82112  1.0000
  C   C1296     1.0  0.62005  0.12981  0.57499  1.0000
  C   C1297     1.0  0.61752  0.13962  0.55874  1.0000
  C   C1298     1.0  0.61955  0.14177  0.52866  1.0000
  H   H1299     1.0  0.52537  0.13709  0.74355  1.0000
  C   C1299     1.0  0.62657  0.12428  0.53075  1.0000
  C   C1300     1.0  0.62457  0.12216  0.56062  1.0000
  H   H1300     1.0  0.61446  0.14588  0.56929  1.0000
  N   N109      1.0  0.58437  0.28777  0.48612  1.0000
  H   H1301     1.0  0.70228  0.29754  0.77617  1.0000
  H   H1302     1.0  0.62725  0.11499  0.57225  1.0000
  C   C1301     1.0  0.54403  0.08247  0.66618  1.0000
  C   C1302     1.0  0.53865  0.09029  0.67786  1.0000
  C   C1303     1.0  0.54510  0.09894  0.68769  1.0000
  C   C1304     1.0  0.55684  0.09952  0.68686  1.0000
  C   C1305     1.0  0.56188  0.09098  0.67774  1.0000
  C   C1306     1.0  0.55558  0.08264  0.66680  1.0000
  H   H1303     1.0  0.52954  0.08973  0.67942  1.0000
  H   H1304     1.0  0.54107  0.10531  0.69549  1.0000
  H   H1305     1.0  0.57064  0.09082  0.67884  1.0000
  H   H1306     1.0  0.55967  0.07636  0.65867  1.0000
  C   C1307     1.0  0.56976  0.04467  0.67312  1.0000
  C   C1308     1.0  0.57461  0.04131  0.69587  1.0000
  C   C1309     1.0  0.58196  0.04988  0.70449  1.0000
  C   C1310     1.0  0.58435  0.06197  0.69106  1.0000
  C   C1311     1.0  0.57925  0.06536  0.66883  1.0000
  C   C1312     1.0  0.57216  0.05677  0.65969  1.0000
  H   H1307     1.0  0.58586  0.04711  0.72168  1.0000
  H   H1308     1.0  0.58099  0.07458  0.65821  1.0000
  H   H1309     1.0  0.56847  0.05951  0.64209  1.0000
  H   H1310     1.0  0.68999  0.25160  0.59529  1.0000
  H   H1311     1.0  0.60363  0.21908  0.95579  1.0000
  C   C1313     1.0  0.66893  0.24740  0.52493  1.0000
  C   C1314     1.0  0.51815  0.11243  0.51664  1.0000
  C   C1315     1.0  0.50175  0.13922  0.82079  1.0000
  H   H1312     1.0  0.65090  0.29584  0.53597  1.0000
  C   C1316     1.0  0.73329  0.30308  0.75609  1.0000
  H   H1313     1.0  0.68077  0.25268  0.76228  1.0000
  C   C1317     1.0  0.53278  0.06883  0.73637  1.0000
  N   N110      1.0  0.51381  0.14265  0.77321  1.0000
  C   C1318     1.0  0.51671  0.11049  0.77609  1.0000
  H   H1314     1.0  0.74650  0.29426  0.48877  1.0000
  H   H1315     1.0  0.55335  0.13891  0.97297  1.0000
  H   H1316     1.0  0.73422  0.31249  0.75215  1.0000
  C   C1319     1.0  0.51600  0.10393  0.73220  1.0000
  C   C1320     1.0  0.52218  0.11020  0.74820  1.0000
  C   C1321     1.0  0.64743  0.31655  0.55761  1.0000
  H   H1317     1.0  0.56053  0.06996  0.74236  1.0000
  H   H1318     1.0  0.52035  0.10390  0.71084  1.0000
  H   H1319     1.0  0.53127  0.11489  0.73873  1.0000
  C   C1322     1.0  0.57619  0.14669  0.86149  1.0000
  C   C1323     1.0  0.58811  0.14749  0.85910  1.0000
  C   C1324     1.0  0.59417  0.15422  0.87404  1.0000
  C   C1325     1.0  0.58832  0.16011  0.89158  1.0000
  C   C1326     1.0  0.57655  0.15974  0.89293  1.0000
  C   C1327     1.0  0.57052  0.15307  0.87785  1.0000
  H   H1320     1.0  0.59264  0.14273  0.84613  1.0000
  H   H1321     1.0  0.60335  0.15473  0.87211  1.0000
  H   H1322     1.0  0.57196  0.16433  0.90626  1.0000
  H   H1323     1.0  0.56145  0.15278  0.87921  1.0000
  C   C1328     1.0  0.70149  0.28073  0.80331  1.0000
  C   C1329     1.0  0.70159  0.26904  0.80436  1.0000
  C   C1330     1.0  0.70253  0.26514  0.77930  1.0000
  C   C1331     1.0  0.70337  0.27289  0.75310  1.0000
  C   C1332     1.0  0.70323  0.28457  0.75210  1.0000
  C   C1333     1.0  0.70229  0.28846  0.77714  1.0000
  H   H1324     1.0  0.70098  0.26301  0.82445  1.0000
  H   H1325     1.0  0.70266  0.25610  0.78023  1.0000
  H   H1326     1.0  0.70400  0.29065  0.73203  1.0000
  C   C1334     1.0  0.69454  0.27468  0.50590  1.0000
  C   C1335     1.0  0.70520  0.27165  0.50418  1.0000
  C   C1336     1.0  0.71031  0.27117  0.52725  1.0000
  C   C1337     1.0  0.70494  0.27398  0.55197  1.0000
  C   C1338     1.0  0.69446  0.27738  0.55342  1.0000
  C   C1339     1.0  0.68921  0.27762  0.53053  1.0000
  H   H1327     1.0  0.72231  0.30587  0.80792  1.0000
  H   H1328     1.0  0.71840  0.26850  0.52599  1.0000
  H   H1329     1.0  0.74691  0.28365  0.97807  1.0000
  H   H1330     1.0  0.67663  0.24086  0.61656  1.0000
  C   C1340     1.0  0.68063  0.22029  0.91337  1.0000
  C   C1341     1.0  0.67733  0.20825  0.92805  1.0000
  C   C1342     1.0  0.66831  0.20009  0.92270  1.0000
  C   C1343     1.0  0.66250  0.20376  0.90210  1.0000
  C   C1344     1.0  0.66582  0.21579  0.88736  1.0000
  C   C1345     1.0  0.67471  0.22400  0.89306  1.0000
  H   H1331     1.0  0.68178  0.20520  0.94381  1.0000
  H   H1332     1.0  0.66593  0.19093  0.93444  1.0000
  H   H1333     1.0  0.66145  0.21883  0.87140  1.0000
  H   H1334     1.0  0.67708  0.23316  0.88143  1.0000
  C   C1346     1.0  0.64703  0.26738  0.61128  1.0000
  C   C1347     1.0  0.65928  0.27146  0.60221  1.0000
  C   C1348     1.0  0.66545  0.27740  0.61834  1.0000
  C   C1349     1.0  0.65936  0.27959  0.64312  1.0000
  C   C1350     1.0  0.64714  0.27551  0.65223  1.0000
  C   C1351     1.0  0.64102  0.26925  0.63658  1.0000
  H   H1335     1.0  0.66400  0.27035  0.58229  1.0000
  H   H1336     1.0  0.67487  0.28066  0.61107  1.0000
  H   H1337     1.0  0.64241  0.27709  0.67154  1.0000
  H   H1338     1.0  0.63166  0.26570  0.64446  1.0000
  H   H1339     1.0  0.70943  0.26946  0.48529  1.0000
  H   H1340     1.0  0.58603  0.28972  0.80116  1.0000
  H   H1341     1.0  0.61354  0.24669  0.96438  1.0000
  C   C1352     1.0  0.59359  0.25165  0.50792  1.0000
  H   H1342     1.0  0.57465  0.26991  0.49643  1.0000
  S   S464      1.0  0.50614  0.00746  0.68351  1.0000
  H   H1343     1.0  0.52342  0.16442  0.80315  1.0000
  H   H1344     1.0  0.61161  0.25383  0.50914  1.0000
  C   C1353     1.0  0.65141  0.32528  0.57070  1.0000
  C   C1354     1.0  0.50332  0.09406  0.52985  1.0000
  C   C1355     1.0  0.58969  0.25679  0.70525  1.0000
  C   C1356     1.0  0.58172  0.25561  0.73132  1.0000
  C   C1357     1.0  0.58552  0.25535  0.75632  1.0000
  C   C1358     1.0  0.59736  0.25643  0.75526  1.0000
  C   C1359     1.0  0.60540  0.25799  0.72900  1.0000
  C   C1360     1.0  0.60157  0.25808  0.70408  1.0000
  H   H1345     1.0  0.57253  0.25467  0.73230  1.0000
  H   H1346     1.0  0.57928  0.25424  0.77637  1.0000
  H   H1347     1.0  0.61458  0.25889  0.72805  1.0000
  H   H1348     1.0  0.60778  0.25898  0.68408  1.0000
  C   C1361     1.0  0.73015  0.32375  0.64948  1.0000
  H   H1349     1.0  0.65882  0.24847  0.59317  1.0000
  C   C1362     1.0  0.54806  0.17549  0.86843  1.0000
  C   C1363     1.0  0.53735  0.17687  0.86356  1.0000
  C   C1364     1.0  0.53511  0.18805  0.86117  1.0000
  C   C1365     1.0  0.54339  0.19767  0.86386  1.0000
  H   H1350     1.0  0.60794  0.05546  0.67071  1.0000
  H   H1351     1.0  0.54997  0.16701  0.87022  1.0000
  H   H1352     1.0  0.52685  0.18925  0.85750  1.0000
  H   H1353     1.0  0.54144  0.20613  0.86234  1.0000
  C   C1366     1.0  0.62796  0.32389  0.62325  1.0000
  C   C1367     1.0  0.62835  0.31215  0.62698  1.0000
  C   C1368     1.0  0.62374  0.30553  0.60988  1.0000
  C   C1369     1.0  0.61871  0.31058  0.58908  1.0000
  C   C1370     1.0  0.61836  0.32234  0.58530  1.0000
  C   C1371     1.0  0.62291  0.32898  0.60249  1.0000
  H   H1354     1.0  0.63228  0.30821  0.64298  1.0000
  H   H1355     1.0  0.62449  0.29668  0.61228  1.0000
  H   H1356     1.0  0.61446  0.32627  0.56924  1.0000
  C   C1372     1.0  0.58519  0.20667  0.92075  1.0000
  H   H1357     1.0  0.74685  0.33400  0.62152  1.0000
  Fe  Fe228     1.0  0.57649  0.32913  0.91698  1.0000
  C   C1373     1.0  0.60017  0.21341  0.94340  1.0000
  H   H1358     1.0  0.67035  0.27292  0.71288  1.0000
  H   H1359     1.0  0.60224  0.31378  0.50677  1.0000
  C   C1374     1.0  0.65749  0.17237  0.81473  1.0000
  S   S465      1.0  0.71482  0.26303  0.87440  1.0000
  N   N111      1.0  0.59160  0.19971  0.90976  1.0000
  H   H1360     1.0  0.56451  0.18378  0.87499  1.0000
  C   C1375     1.0  0.55092  0.28312  0.89887  1.0000
  H   H1361     1.0  0.64338  0.31874  0.54031  1.0000
  H   H1362     1.0  0.58865  0.33150  0.84444  1.0000
  N   N112      1.0  0.57605  0.13020  0.77704  1.0000
  C   C1376     1.0  0.56659  0.13491  0.77926  1.0000
  C   C1377     1.0  0.57555  0.11983  0.76947  1.0000
  C   C1378     1.0  0.55636  0.12928  0.77342  1.0000
  C   C1379     1.0  0.56546  0.11398  0.76350  1.0000
  C   C1380     1.0  0.55582  0.11876  0.76545  1.0000
  C   C1381     1.0  0.58670  0.13602  0.78354  1.0000
  H   H1363     1.0  0.56685  0.14297  0.78599  1.0000
  H   H1364     1.0  0.58297  0.11601  0.76806  1.0000
  H   H1365     1.0  0.54886  0.13299  0.77529  1.0000
  H   H1366     1.0  0.56517  0.10585  0.75709  1.0000
  H   H1367     1.0  0.54794  0.11430  0.76089  1.0000
  H   H1368     1.0  0.58768  0.13064  0.80357  1.0000
  H   H1369     1.0  0.59455  0.13709  0.76593  1.0000
  H   H1370     1.0  0.58645  0.14485  0.78673  1.0000
  N   N113      1.0  0.59299  0.30179  0.63952  1.0000
  C   C1382     1.0  0.59703  0.31167  0.64791  1.0000
  C   C1383     1.0  0.58726  0.30270  0.61611  1.0000
  H   H1371     1.0  0.59631  0.32018  0.63686  1.0000
  S   S466      1.0  0.50925  0.07037  0.61785  1.0000
  C   C1384     1.0  0.71521  0.29401  0.97747  1.0000
  C   C1385     1.0  0.74792  0.31902  0.56631  1.0000
  N   N114      1.0  0.58811  0.22603  0.77344  1.0000
  C   C1386     1.0  0.57905  0.22209  0.79765  1.0000
  C   C1387     1.0  0.58593  0.22836  0.74711  1.0000
  C   C1388     1.0  0.56745  0.22076  0.79596  1.0000
  C   C1389     1.0  0.57444  0.22717  0.74460  1.0000
  C   C1390     1.0  0.56516  0.22340  0.76924  1.0000
  H   H1372     1.0  0.58076  0.22002  0.81849  1.0000
  H   H1373     1.0  0.56033  0.21776  0.81534  1.0000
  H   H1374     1.0  0.57281  0.22949  0.72366  1.0000
  H   H1375     1.0  0.55621  0.22258  0.76765  1.0000
  H   H1376     1.0  0.54754  0.33025  0.90778  1.0000
  H   H1377     1.0  0.64133  0.16155  0.55820  1.0000
  H   H1378     1.0  0.56490  0.30017  0.84195  1.0000
  H   H1379     1.0  0.53029  0.04172  0.70079  1.0000
  C   C1391     1.0  0.51799  0.15645  0.80089  1.0000
  H   H1380     1.0  0.62344  0.06068  0.65261  1.0000
  H   H1381     1.0  0.56347  0.11321  0.88734  1.0000
  H   H1382     1.0  0.65035  0.33409  0.56382  1.0000
  C   C1392     1.0  0.68035  0.24699  0.52548  1.0000
  H   H1383     1.0  0.52376  0.05762  0.71495  1.0000
  H   H1384     1.0  0.57085  0.28299  0.97010  1.0000
  H   H1385     1.0  0.67901  0.19170  0.87025  1.0000
  H   H1386     1.0  0.57171  0.28528  0.82566  1.0000
  H   H1387     1.0  0.64367  0.17761  0.51529  1.0000
  H   H1388     1.0  0.57643  0.24889  0.50028  1.0000
  N   N115      1.0  0.54357  0.10185  0.59266  1.0000
  C   C1393     1.0  0.53883  0.11107  0.59590  1.0000
  C   C1394     1.0  0.55334  0.10074  0.60170  1.0000
  C   C1395     1.0  0.54358  0.11916  0.60975  1.0000
  C   C1396     1.0  0.55845  0.10881  0.61512  1.0000
  C   C1397     1.0  0.55342  0.11796  0.61954  1.0000
  C   C1398     1.0  0.53847  0.09336  0.57835  1.0000
  H   H1389     1.0  0.53117  0.11205  0.58837  1.0000
  H   H1390     1.0  0.55705  0.09338  0.59932  1.0000
  C   C1399     1.0  0.73853  0.33154  0.69284  1.0000
  H   H1391     1.0  0.56605  0.10777  0.62287  1.0000
  H   H1392     1.0  0.55709  0.12400  0.63086  1.0000
  H   H1393     1.0  0.52910  0.09305  0.57975  1.0000
  H   H1394     1.0  0.54330  0.09582  0.55545  1.0000
  H   H1395     1.0  0.53877  0.08432  0.58867  1.0000
  S   S467      1.0  0.55882  0.26583  0.87990  1.0000
  H   H1396     1.0  0.52803  0.15808  0.75847  1.0000
  S   S468      1.0  0.59564  0.33035  0.90848  1.0000
  C   C1400     1.0  0.54321  0.07244  0.74385  1.0000
  H   H1397     1.0  0.53956  0.12623  0.61310  1.0000
  C   C1401     1.0  0.55228  0.06708  0.73720  1.0000
  C   C1402     1.0  0.59253  0.28598  0.50091  1.0000
  S   S469      1.0  0.63375  0.33210  0.64464  1.0000
  C   C1403     1.0  0.59672  0.24594  0.95536  1.0000
  H   H1398     1.0  0.55010  0.32618  0.95684  1.0000
  C   C1404     1.0  0.57566  0.31640  0.84383  1.0000
  N   N116      1.0  0.67375  0.26757  0.75355  1.0000
  C   C1405     1.0  0.67460  0.27040  0.77854  1.0000
  C   C1406     1.0  0.67125  0.27523  0.73250  1.0000
  C   C1407     1.0  0.67338  0.28132  0.78252  1.0000
  C   C1408     1.0  0.66992  0.28620  0.73581  1.0000
  C   C1409     1.0  0.67107  0.28927  0.76093  1.0000
  H   H1399     1.0  0.51436  0.04536  0.61681  1.0000
  H   H1400     1.0  0.67652  0.26432  0.79534  1.0000
  Fe  Fe229     1.0  0.58877  0.24300  0.89340  1.0000
  H   H1401     1.0  0.67441  0.28364  0.80208  1.0000
  H   H1402     1.0  0.66806  0.29226  0.71885  1.0000
  H   H1403     1.0  0.67016  0.29780  0.76366  1.0000
  C   C1410     1.0  0.64378  0.29614  0.55381  1.0000
  H   H1404     1.0  0.57792  0.30248  0.62429  1.0000
  S   S470      1.0  0.53425  0.00907  0.71381  1.0000
  S   S471      1.0  0.60112  0.24278  0.92211  1.0000
  N   N117      1.0  0.73114  0.29629  0.78334  1.0000
  H   H1405     1.0  0.50653  0.15233  0.84315  1.0000
  H   H1406     1.0  0.59171  0.31099  0.59912  1.0000
  H   H1407     1.0  0.51987  0.03260  0.62519  1.0000
  C   C1411     1.0  0.51050  0.10272  0.53809  1.0000
  H   H1408     1.0  0.55793  0.05416  0.71759  1.0000
  C   C1412     1.0  0.50848  0.14964  0.82343  1.0000
  H   H1409     1.0  0.58395  0.19808  0.87541  1.0000
  C   C1413     1.0  0.54786  0.33423  0.94800  1.0000
  H   H1410     1.0  0.67312  0.23837  0.95615  1.0000
  H   H1411     1.0  0.65366  0.29357  0.59710  1.0000
  C   C1414     1.0  0.65711  0.31096  0.60314  1.0000
  C   C1415     1.0  0.59722  0.30647  0.50096  1.0000
  H   H1412     1.0  0.51253  0.13940  0.48499  1.0000
  H   H1413     1.0  0.54401  0.05030  0.67602  1.0000
  C   C1416     1.0  0.56873  0.13613  0.94700  1.0000
  N   N118      1.0  0.61350  0.07309  0.64440  1.0000
  C   C1417     1.0  0.60613  0.07098  0.62742  1.0000
  C   C1418     1.0  0.61909  0.08437  0.64307  1.0000
  C   C1419     1.0  0.60398  0.08032  0.60898  1.0000
  C   C1420     1.0  0.61719  0.09392  0.62475  1.0000
  C   C1421     1.0  0.60954  0.09186  0.60770  1.0000
  H   H1414     1.0  0.60160  0.06203  0.62870  1.0000
  H   H1415     1.0  0.62484  0.08605  0.65674  1.0000
  H   H1416     1.0  0.59789  0.07861  0.59611  1.0000
  H   H1417     1.0  0.62145  0.10288  0.62417  1.0000
  H   H1418     1.0  0.60781  0.09921  0.59386  1.0000
  S   S472      1.0  0.56914  0.23659  0.90723  1.0000
  H   H1419     1.0  0.66070  0.30856  0.62124  1.0000
  C   C1422     1.0  0.73789  0.29595  0.52994  1.0000
  C   C1423     1.0  0.66174  0.16417  0.83114  1.0000
  H   H1420     1.0  0.65589  0.19020  0.80552  1.0000
  C   C1424     1.0  0.74678  0.29930  0.50458  1.0000
  S   S473      1.0  0.56496  0.20793  0.87285  1.0000
  C   C1425     1.0  0.57382  0.30538  0.83788  1.0000
  Fe  Fe230     1.0  0.52385  0.00452  0.68330  1.0000
  C   C1426     1.0  0.57748  0.28749  0.97874  1.0000
  C   C1427     1.0  0.66789  0.16758  0.85034  1.0000
  C   C1428     1.0  0.58708  0.32302  0.83963  1.0000
  H   H1421     1.0  0.60540  0.32382  0.82613  1.0000
  H   H1422     1.0  0.65987  0.15511  0.82971  1.0000
  C   C1429     1.0  0.55407  0.19623  0.86901  1.0000
  H   H1423     1.0  0.59048  0.28317  0.64736  1.0000
  H   H1424     1.0  0.60123  0.22986  0.79549  1.0000
  H   H1425     1.0  0.60643  0.23425  0.75768  1.0000
  H   H1426     1.0  0.63042  0.11846  0.52004  1.0000
  C   C1430     1.0  0.59390  0.29107  0.65352  1.0000
  H   H1427     1.0  0.65238  0.16970  0.80044  1.0000
  C   C1431     1.0  0.65122  0.14869  0.50640  1.0000
  C   C1432     1.0  0.61569  0.06319  0.66354  1.0000
  C   C1433     1.0  0.60253  0.31103  0.67021  1.0000
  H   H1428     1.0  0.60612  0.31895  0.67608  1.0000
  H   H1429     1.0  0.59309  0.23152  0.72786  1.0000
  C   C1434     1.0  0.62432  0.13420  0.51440  1.0000
  H   H1430     1.0  0.67079  0.16103  0.86378  1.0000
  H   H1431     1.0  0.60256  0.21874  0.77610  1.0000
  H   H1432     1.0  0.58039  0.29988  0.90784  1.0000
  C   C1435     1.0  0.59938  0.29013  0.67583  1.0000
  C   C1436     1.0  0.60379  0.30019  0.68405  1.0000
  H   H1433     1.0  0.50935  0.01376  0.62237  1.0000
  H   H1434     1.0  0.60026  0.28165  0.68652  1.0000
  C   C1437     1.0  0.66113  0.24785  0.54951  1.0000
  S   S474      1.0  0.56100  0.03429  0.65989  1.0000
  S   S475      1.0  0.58960  0.25976  0.86221  1.0000
  H   H1435     1.0  0.57292  0.03207  0.70639  1.0000
  H   H1436     1.0  0.52579  0.07317  0.74071  1.0000
  C   C1438     1.0  0.54895  0.12548  0.95137  1.0000
  H   H1437     1.0  0.60827  0.29962  0.70092  1.0000
  H   H1438     1.0  0.61789  0.14952  0.51643  1.0000
  H   H1439     1.0  0.72945  0.26959  0.76995  1.0000
  H   H1440     1.0  0.69027  0.27956  0.57237  1.0000
  C   C1439     1.0  0.56223  0.29968  0.91102  1.0000
  H   H1441     1.0  0.73935  0.30308  0.91682  1.0000
  H   H1442     1.0  0.68094  0.27993  0.53203  1.0000
  C   C1440     1.0  0.74141  0.33119  0.64318  1.0000
  C   C1441     1.0  0.55632  0.18508  0.87114  1.0000
  C   C1442     1.0  0.60534  0.25201  0.49686  1.0000
  H   H1443     1.0  0.57682  0.20696  0.91624  1.0000
  H   H1444     1.0  0.64060  0.28731  0.56933  1.0000
  H   H1445     1.0  0.72808  0.29540  0.82809  1.0000
  H   H1446     1.0  0.72469  0.28445  0.95332  1.0000
  Fe  Fe231     1.0  0.54965  0.01506  0.67468  1.0000
  C   C1443     1.0  0.66572  0.18699  0.83682  1.0000
  C   C1444     1.0  0.55166  0.29346  0.90794  1.0000
  C   C1445     1.0  0.67558  0.18201  0.87460  1.0000
  C   C1446     1.0  0.72730  0.32404  0.69918  1.0000
  Fe  Fe232     1.0  0.72122  0.27177  0.90692  1.0000
  C   C1447     1.0  0.58114  0.28932  0.82310  1.0000
  H   H1447     1.0  0.56828  0.31964  0.85236  1.0000
  H   H1448     1.0  0.54376  0.03891  0.70642  1.0000
  C   C1448     1.0  0.57214  0.29519  0.90555  1.0000
  Fe  Fe233     1.0  0.70002  0.25031  0.91068  1.0000
  C   C1449     1.0  0.55669  0.13397  0.95858  1.0000
  Fe  Fe234     1.0  0.57011  0.25305  0.87392  1.0000
  H   H1449     1.0  0.65292  0.14042  0.50363  1.0000
  S   S476      1.0  0.56210  0.31283  0.92208  1.0000
  H   H1450     1.0  0.69299  0.24768  0.55016  1.0000
  S   S477      1.0  0.68684  0.27424  0.97912  1.0000
  C   C1450     1.0  0.57284  0.12982  0.92805  1.0000
  H   H1451     1.0  0.60172  0.30408  0.81650  1.0000
  H   H1452     1.0  0.61488  0.20575  0.93727  1.0000
  C   C1451     1.0  0.68394  0.24749  0.55037  1.0000
  N   N119      1.0  0.54058  0.05475  0.71556  1.0000
  S   S478      1.0  0.70979  0.28419  0.90498  1.0000
  N   N120      1.0  0.58312  0.30107  0.82820  1.0000
  C   C1452     1.0  0.59435  0.30753  0.82397  1.0000
  H   H1453     1.0  0.57890  0.28102  0.89304  1.0000
  C   C1453     1.0  0.65946  0.18385  0.81757  1.0000
  C   C1454     1.0  0.72996  0.28442  0.78838  1.0000
  H   H1454     1.0  0.68656  0.24695  0.50622  1.0000
  H   H1455     1.0  0.58441  0.21938  0.94576  1.0000
  C   C1455     1.0  0.53165  0.05998  0.72193  1.0000
  H   H1456     1.0  0.59388  0.18914  0.88012  1.0000
  H   H1457     1.0  0.72173  0.32140  0.72076  1.0000
  C   C1456     1.0  0.64460  0.16053  0.53697  1.0000
  H   H1458     1.0  0.52372  0.11922  0.52265  1.0000
  H   H1459     1.0  0.64610  0.14293  0.55244  1.0000
  C   C1457     1.0  0.56962  0.11520  0.90062  1.0000
  C   C1458     1.0  0.64735  0.15008  0.53375  1.0000
  H   H1460     1.0  0.59404  0.27732  0.50681  1.0000
  C   C1459     1.0  0.73842  0.30253  0.55010  1.0000
  S   S479      1.0  0.74034  0.27906  0.90810  1.0000
  C   C1460     1.0  0.58555  0.24928  0.49179  1.0000
  C   C1461     1.0  0.73078  0.27905  0.76580  1.0000
  C   C1462     1.0  0.68026  0.24929  0.59979  1.0000
  H   H1461     1.0  0.67908  0.25670  0.72710  1.0000
  N   N121      1.0  0.66983  0.17888  0.85292  1.0000
  C   C1463     1.0  0.55079  0.05818  0.72301  1.0000
  Fe  Fe235     1.0  0.57060  0.22766  0.87104  1.0000
  C   C1464     1.0  0.65305  0.30247  0.58954  1.0000
  H   H1462     1.0  0.54265  0.27860  0.89619  1.0000
  S   S480      1.0  0.59034  0.23301  0.85991  1.0000
  H   H1463     1.0  0.71439  0.31453  0.68252  1.0000
  C   C1465     1.0  0.55336  0.11941  0.93217  1.0000
  H   H1464     1.0  0.58781  0.29540  0.60569  1.0000
  H   H1465     1.0  0.68306  0.17800  0.87535  1.0000
  C   C1466     1.0  0.58533  0.24682  0.96554  1.0000
  H   H1466     1.0  0.60692  0.19330  0.90814  1.0000
  C   C1467     1.0  0.57131  0.28450  0.89709  1.0000
  H   H1467     1.0  0.66912  0.17890  0.89589  1.0000
  H   H1468     1.0  0.66695  0.19586  0.83943  1.0000
  S   S481      1.0  0.53866  0.01149  0.64394  1.0000
  H   H1469     1.0  0.66084  0.25043  0.97640  1.0000
  C   C1468     1.0  0.53958  0.04599  0.69895  1.0000
  H   H1470     1.0  0.66625  0.24766  0.50528  1.0000
  N   N122      1.0  0.67633  0.24831  0.57410  1.0000
  C   C1469     1.0  0.67493  0.25605  0.74981  1.0000
  C   C1470     1.0  0.72987  0.30186  0.80708  1.0000
  H   H1471     1.0  0.50901  0.12148  0.97439  1.0000
  H   H1472     1.0  0.61716  0.06550  0.68336  1.0000
  N   N123      1.0  0.64809  0.30525  0.56746  1.0000
  H   H1473     1.0  0.58221  0.13167  0.91886  1.0000
  H   H1474     1.0  0.73565  0.30339  0.71149  1.0000
  H   H1475     1.0  0.53955  0.12371  0.96023  1.0000
  H   H1476     1.0  0.57811  0.12049  0.88540  1.0000
  Fe  Fe236     1.0  0.50427  0.08750  0.61624  1.0000
  H   H1477     1.0  0.65224  0.24828  0.54935  1.0000
  H   H1478     1.0  0.51019  0.13110  0.74658  1.0000
  C   C1471     1.0  0.51669  0.13913  0.74651  1.0000
  C   C1472     1.0  0.51176  0.03573  0.62672  1.0000
  C   C1473     1.0  0.65619  0.32242  0.59376  1.0000
  C   C1474     1.0  0.50458  0.13580  0.79542  1.0000
  H   H1479     1.0  0.54434  0.07957  0.75418  1.0000
  C   C1475     1.0  0.50354  0.09530  0.50073  1.0000
  C   C1476     1.0  0.60651  0.20603  0.93279  1.0000
  C   C1477     1.0  0.52056  0.15279  0.77580  1.0000
  C   C1478     1.0  0.50328  0.01797  0.61359  1.0000
  H   H1480     1.0  0.72801  0.27898  0.81003  1.0000
  H   H1481     1.0  0.57084  0.10687  0.91267  1.0000
  C   C1479     1.0  0.64582  0.16950  0.51266  1.0000
  H   H1482     1.0  0.60540  0.29379  0.52063  1.0000
  H   H1483     1.0  0.73063  0.28830  0.53402  1.0000
  C   C1480     1.0  0.58706  0.19266  0.89174  1.0000
  H   H1484     1.0  0.57968  0.18514  0.90516  1.0000
  H   H1485     1.0  0.73144  0.29986  0.56973  1.0000
  H   H1486     1.0  0.65883  0.32900  0.60487  1.0000
  S   S482      1.0  0.50958  0.10241  0.57474  1.0000
  H   H1487     1.0  0.57910  0.24573  0.95285  1.0000
  H   H1488     1.0  0.54725  0.11290  0.92649  1.0000
  C   C1481     1.0  0.74782  0.30167  0.91798  1.0000
  C   C1482     1.0  0.74562  0.33506  0.66486  1.0000
  C   C1483     1.0  0.65223  0.15779  0.48257  1.0000
  H   H1489     1.0  0.51689  0.14628  0.72807  1.0000
  H   H1490     1.0  0.50731  0.03411  0.64973  1.0000
  N   N124      1.0  0.74762  0.31213  0.54518  1.0000
  H   H1491     1.0  0.74458  0.31320  0.58841  1.0000
  C   C1484     1.0  0.60470  0.24735  0.97215  1.0000
  C   C1485     1.0  0.58900  0.30825  0.48556  1.0000
  H   H1492     1.0  0.57703  0.30486  0.95734  1.0000
  C   C1486     1.0  0.51861  0.11350  0.48744  1.0000
  N   N125      1.0  0.64955  0.16803  0.48592  1.0000
  C   C1487     1.0  0.58098  0.29975  0.97147  1.0000
  H   H1493     1.0  0.73616  0.27239  0.97170  1.0000
  H   H1494     1.0  0.71013  0.29592  0.96223  1.0000
  C   C1488     1.0  0.67352  0.24022  0.97653  1.0000
  N   N126      1.0  0.50377  0.02949  0.61297  1.0000
  C   C1489     1.0  0.72338  0.28741  0.97269  1.0000
  H   H1495     1.0  0.50043  0.10446  0.80880  1.0000
  H   H1496     1.0  0.59224  0.31493  0.97699  1.0000
  H   H1497     1.0  0.68671  0.23092  0.98202  1.0000
  C   C1490     1.0  0.67290  0.45863  0.08158  1.0000
  H   H1498     1.0  0.55244  0.54641  0.25065  1.0000
  C   C1491     1.0  0.57022  0.39314  0.40930  1.0000
  C   C1492     1.0  0.50972  0.62287  0.09217  1.0000
  H   H1499     1.0  0.59771  0.48953  0.28947  1.0000
  Fe  Fe237     1.0  0.50480  0.47384  0.12190  1.0000
  Fe  Fe238     1.0  0.73082  0.47698  0.41565  1.0000
  S   S483      1.0  0.72301  0.45768  0.42402  1.0000
  H   H1500     1.0  0.53313  0.62225  0.01157  1.0000
  Fe  Fe239     1.0  0.70684  0.48193  0.41264  1.0000
  S   S484      1.0  0.69781  0.46281  0.42054  1.0000
  S   S485      1.0  0.69700  0.49586  0.40175  1.0000
  Fe  Fe240     1.0  0.70780  0.46035  0.45407  1.0000
  H   H1501     1.0  0.69099  0.49424  0.01536  1.0000
  Fe  Fe241     1.0  0.71401  0.46211  0.38946  1.0000
  S   S486      1.0  0.71667  0.45214  0.35525  1.0000
  S   S487      1.0  0.71603  0.47953  0.44806  1.0000
  S   S488      1.0  0.72254  0.48137  0.37932  1.0000
  Fe  Fe242     1.0  0.63348  0.37162  0.13120  1.0000
  S   S489      1.0  0.61457  0.37173  0.13794  1.0000
  S   S490      1.0  0.64682  0.38931  0.11646  1.0000
  C   C1493     1.0  0.73535  0.33616  0.17445  1.0000
  C   C1494     1.0  0.54431  0.41283  0.47385  1.0000
  Fe  Fe243     1.0  0.61319  0.35843  0.11206  1.0000
  S   S491      1.0  0.60271  0.36061  0.07907  1.0000
  Fe  Fe244     1.0  0.61136  0.35649  0.17589  1.0000
  S   S492      1.0  0.59818  0.35549  0.21658  1.0000
  S   S493      1.0  0.63243  0.35949  0.10226  1.0000
  S   S494      1.0  0.63042  0.35731  0.17111  1.0000
  Fe  Fe245     1.0  0.69924  0.44791  0.15347  1.0000
  S   S495      1.0  0.70243  0.43009  0.15429  1.0000
  S   S496      1.0  0.70127  0.46170  0.11281  1.0000
  Fe  Fe246     1.0  0.69558  0.44432  0.21817  1.0000
  S   S497      1.0  0.69828  0.42615  0.22406  1.0000
  S   S498      1.0  0.69128  0.45300  0.25439  1.0000
  Fe  Fe247     1.0  0.71315  0.43407  0.18469  1.0000
  S   S499      1.0  0.73051  0.42958  0.18154  1.0000
  Fe  Fe248     1.0  0.68719  0.42371  0.19329  1.0000
  S   S500      1.0  0.67379  0.40615  0.20405  1.0000
  S   S501      1.0  0.71131  0.45246  0.18069  1.0000
  S   S502      1.0  0.68314  0.44131  0.19048  1.0000
  C   C1495     1.0  0.53421  0.61544  0.05446  1.0000
  S   S503      1.0  0.61152  0.34787  0.33484  1.0000
  H   H1502     1.0  0.62407  0.34805  0.27903  1.0000
  Fe  Fe249     1.0  0.53201  0.59767  0.18595  1.0000
  S   S504      1.0  0.52913  0.61570  0.18680  1.0000
  S   S505      1.0  0.54778  0.59138  0.16711  1.0000
  Fe  Fe250     1.0  0.51396  0.60616  0.22600  1.0000
  S   S506      1.0  0.50497  0.60831  0.26980  1.0000
  Fe  Fe251     1.0  0.51620  0.61190  0.16052  1.0000
  S   S507      1.0  0.51662  0.62530  0.11968  1.0000
  S   S508      1.0  0.51798  0.58852  0.22658  1.0000
  S   S509      1.0  0.52000  0.59473  0.15759  1.0000
  Fe  Fe252     1.0  0.52815  0.48980  0.11614  1.0000
  S   S510      1.0  0.53789  0.47601  0.11217  1.0000
  S   S511      1.0  0.53796  0.50832  0.11135  1.0000
  Fe  Fe253     1.0  0.57334  0.52401  0.21196  1.0000
  S   S512      1.0  0.58947  0.51741  0.20668  1.0000
  S   S513      1.0  0.55557  0.51188  0.22096  1.0000
  Fe  Fe254     1.0  0.58590  0.54814  0.21210  1.0000
  S   S514      1.0  0.60343  0.54364  0.20707  1.0000
  S   S515      1.0  0.58183  0.56489  0.22079  1.0000
  Fe  Fe255     1.0  0.59795  0.53467  0.17413  1.0000
  S   S516      1.0  0.61132  0.53557  0.13311  1.0000
  Fe  Fe256     1.0  0.59370  0.52660  0.24000  1.0000
  S   S517      1.0  0.59793  0.51494  0.27730  1.0000
  S   S518      1.0  0.58132  0.54064  0.17681  1.0000
  S   S519      1.0  0.57675  0.53183  0.24740  1.0000
  Fe  Fe257     1.0  0.60497  0.49304  0.45672  1.0000
  S   S520      1.0  0.60286  0.51136  0.44876  1.0000
  C   C1496     1.0  0.67596  0.51456  0.46972  1.0000
  Fe  Fe258     1.0  0.63058  0.50077  0.45622  1.0000
  S   S521      1.0  0.63049  0.51995  0.44749  1.0000
  H   H1503     1.0  0.53289  0.60664  0.09789  1.0000
  H   H1504     1.0  0.50548  0.43404  0.28035  1.0000
  C   C1497     1.0  0.61160  0.34132  0.02303  1.0000
  Fe  Fe259     1.0  0.62005  0.51579  0.41609  1.0000
  S   S522      1.0  0.62189  0.52850  0.37350  1.0000
  C   C1498     1.0  0.73301  0.39689  0.23865  1.0000
  S   S523      1.0  0.62163  0.49715  0.42220  1.0000
  C   C1499     1.0  0.72784  0.45207  0.04727  1.0000
  H   H1505     1.0  0.57640  0.39613  0.42087  1.0000
  C   C1500     1.0  0.61641  0.52656  0.05720  1.0000
  C   C1501     1.0  0.60488  0.34368  0.00353  1.0000
  H   H1506     1.0  0.60185  0.48129  0.26413  1.0000
  C   C1502     1.0  0.54562  0.40389  0.46034  1.0000
  Fe  Fe260     1.0  0.54048  0.44618  0.33985  1.0000
  H   H1507     1.0  0.52295  0.62942  0.26756  1.0000
  H   H1508     1.0  0.54779  0.38242  0.36876  1.0000
  C   C1503     1.0  0.72692  0.42211  0.28481  1.0000
  S   S524      1.0  0.55679  0.43966  0.33378  1.0000
  H   H1509     1.0  0.59144  0.36695  0.46231  1.0000
  C   C1504     1.0  0.52659  0.55194  0.19061  1.0000
  C   C1505     1.0  0.54004  0.45060  0.47601  1.0000
  H   H1510     1.0  0.65517  0.37557  0.02838  1.0000
  H   H1511     1.0  0.56415  0.48195  0.36466  1.0000
  H   H1512     1.0  0.56492  0.40944  0.40190  1.0000
  C   C1506     1.0  0.54126  0.46458  0.98755  1.0000
  H   H1513     1.0  0.58993  0.35055  0.31976  1.0000
  C   C1507     1.0  0.61098  0.34636  0.04640  1.0000
  C   C1508     1.0  0.58657  0.47366  0.43407  1.0000
  C   C1509     1.0  0.59452  0.47862  0.40720  1.0000
  C   C1510     1.0  0.59226  0.47495  0.38331  1.0000
  C   C1511     1.0  0.58199  0.46640  0.38617  1.0000
  C   C1512     1.0  0.57398  0.46156  0.41295  1.0000
  C   C1513     1.0  0.57631  0.46513  0.43687  1.0000
  H   H1514     1.0  0.60237  0.48532  0.40472  1.0000
  C   C1514     1.0  0.52657  0.41337  0.45904  1.0000
  H   H1515     1.0  0.56596  0.45510  0.41529  1.0000
  C   C1515     1.0  0.50185  0.56812  0.15185  1.0000
  C   C1516     1.0  0.60860  0.53083  0.10275  1.0000
  C   C1517     1.0  0.61801  0.52951  0.08254  1.0000
  H   H1516     1.0  0.71694  0.41675  0.24405  1.0000
  C   C1518     1.0  0.53956  0.55552  0.22067  1.0000
  H   H1517     1.0  0.55491  0.45527  0.04465  1.0000
  C   C1519     1.0  0.59754  0.52914  0.09733  1.0000
  H   H1518     1.0  0.62661  0.53084  0.08641  1.0000
  N   N127      1.0  0.50180  0.44223  0.24189  1.0000
  C   C1520     1.0  0.56080  0.37800  0.39011  1.0000
  H   H1519     1.0  0.59022  0.53015  0.11254  1.0000
  C   C1521     1.0  0.60517  0.51898  0.30292  1.0000
  C   C1522     1.0  0.60612  0.51005  0.32503  1.0000
  C   C1523     1.0  0.61115  0.51281  0.34684  1.0000
  C   C1524     1.0  0.61550  0.52456  0.34649  1.0000
  C   C1525     1.0  0.61472  0.53349  0.32414  1.0000
  C   C1526     1.0  0.60951  0.53073  0.30257  1.0000
  H   H1520     1.0  0.60277  0.50092  0.32563  1.0000
  H   H1521     1.0  0.61171  0.50585  0.36384  1.0000
  H   H1522     1.0  0.61810  0.54261  0.32362  1.0000
  H   H1523     1.0  0.60885  0.53769  0.28572  1.0000
  H   H1524     1.0  0.64061  0.47439  0.42524  1.0000
  H   H1525     1.0  0.62426  0.36913  0.99763  1.0000
  H   H1526     1.0  0.51551  0.40752  0.42169  1.0000
  S   S525      1.0  0.53390  0.45650  0.30464  1.0000
  H   H1527     1.0  0.61539  0.38562  0.07532  1.0000
  C   C1527     1.0  0.55481  0.44297  0.00691  1.0000
  H   H1528     1.0  0.52037  0.55462  0.17928  1.0000
  S   S526      1.0  0.57905  0.46225  0.35591  1.0000
  C   C1528     1.0  0.55552  0.39688  0.38406  1.0000
  H   H1529     1.0  0.68325  0.48160  0.06496  1.0000
  C   C1529     1.0  0.54308  0.50925  0.14153  1.0000
  C   C1530     1.0  0.53980  0.49953  0.16524  1.0000
  C   C1531     1.0  0.54366  0.50040  0.18963  1.0000
  C   C1532     1.0  0.55116  0.51086  0.18995  1.0000
  C   C1533     1.0  0.55473  0.52049  0.16595  1.0000
  C   C1534     1.0  0.55058  0.51973  0.14184  1.0000
  H   H1530     1.0  0.53424  0.49135  0.16494  1.0000
  H   H1531     1.0  0.54095  0.49292  0.20813  1.0000
  H   H1532     1.0  0.56041  0.52862  0.16619  1.0000
  H   H1533     1.0  0.55318  0.52723  0.12343  1.0000
  C   C1535     1.0  0.50739  0.61667  0.29487  1.0000
  H   H1534     1.0  0.51041  0.57087  0.15530  1.0000
  H   H1535     1.0  0.53839  0.39297  0.43577  1.0000
  C   C1536     1.0  0.50920  0.63059  0.33457  1.0000
  C   C1537     1.0  0.51744  0.63372  0.30779  1.0000
  C   C1538     1.0  0.51660  0.62679  0.28813  1.0000
  H   H1536     1.0  0.73972  0.34509  0.17308  1.0000
  H   H1537     1.0  0.61629  0.34461  0.06102  1.0000
  C   C1539     1.0  0.56680  0.50430  0.09258  1.0000
  H   H1538     1.0  0.71302  0.43031  0.02791  1.0000
  H   H1539     1.0  0.51966  0.44869  0.04682  1.0000
  H   H1540     1.0  0.73530  0.46932  0.05161  1.0000
  H   H1541     1.0  0.54114  0.62289  0.05382  1.0000
  H   H1542     1.0  0.74199  0.47830  0.99904  1.0000
  C   C1540     1.0  0.51304  0.63154  0.06598  1.0000
  H   H1543     1.0  0.49998  0.63566  0.25648  1.0000
  H   H1544     1.0  0.67311  0.45172  0.03356  1.0000
  C   C1541     1.0  0.56315  0.45869  0.02715  1.0000
  N   N128      1.0  0.72898  0.41341  0.26882  1.0000
  H   H1545     1.0  0.67327  0.44936  0.08303  1.0000
  C   C1542     1.0  0.55623  0.58323  0.18415  1.0000
  C   C1543     1.0  0.56122  0.57557  0.17052  1.0000
  C   C1544     1.0  0.56860  0.56944  0.18230  1.0000
  C   C1545     1.0  0.57143  0.57126  0.20729  1.0000
  C   C1546     1.0  0.56638  0.57885  0.22102  1.0000
  C   C1547     1.0  0.55867  0.58468  0.20976  1.0000
  H   H1546     1.0  0.55942  0.57445  0.15063  1.0000
  H   H1547     1.0  0.57243  0.56366  0.17145  1.0000
  H   H1548     1.0  0.56859  0.58038  0.24025  1.0000
  H   H1549     1.0  0.55501  0.59067  0.22023  1.0000
  H   H1550     1.0  0.67807  0.46177  0.09597  1.0000
  H   H1551     1.0  0.58487  0.35324  0.27325  1.0000
  Fe  Fe261     1.0  0.50604  0.58687  0.19811  1.0000
  C   C1548     1.0  0.73840  0.43606  0.20273  1.0000
  H   H1552     1.0  0.72608  0.42753  0.03757  1.0000
  C   C1549     1.0  0.73409  0.44366  0.21751  1.0000
  H   H1553     1.0  0.57007  0.46134  0.45754  1.0000
  H   H1554     1.0  0.72578  0.44546  0.21632  1.0000
  C   C1550     1.0  0.65473  0.39380  0.14032  1.0000
  C   C1551     1.0  0.66178  0.40537  0.13330  1.0000
  C   C1552     1.0  0.66791  0.40924  0.15233  1.0000
  C   C1553     1.0  0.66706  0.40152  0.17845  1.0000
  C   C1554     1.0  0.66020  0.38991  0.18517  1.0000
  C   C1555     1.0  0.65402  0.38608  0.16628  1.0000
  H   H1555     1.0  0.66242  0.41139  0.11320  1.0000
  H   H1556     1.0  0.67318  0.41821  0.14696  1.0000
  H   H1557     1.0  0.65957  0.38387  0.20526  1.0000
  H   H1558     1.0  0.64874  0.37713  0.17183  1.0000
  C   C1556     1.0  0.70004  0.45060  0.03061  1.0000
  C   C1557     1.0  0.69569  0.44218  0.05704  1.0000
  C   C1558     1.0  0.69635  0.44541  0.08244  1.0000
  C   C1559     1.0  0.70108  0.45714  0.08149  1.0000
  C   C1560     1.0  0.70527  0.46558  0.05511  1.0000
  C   C1561     1.0  0.70487  0.46230  0.02971  1.0000
  H   H1559     1.0  0.69184  0.43312  0.05791  1.0000
  H   H1560     1.0  0.69292  0.43888  0.10277  1.0000
  H   H1561     1.0  0.70887  0.47469  0.05434  1.0000
  H   H1562     1.0  0.53245  0.43585  0.22834  1.0000
  C   C1562     1.0  0.70973  0.45278  0.32696  1.0000
  C   C1563     1.0  0.70087  0.45861  0.32551  1.0000
  C   C1564     1.0  0.69535  0.45865  0.30307  1.0000
  C   C1565     1.0  0.69867  0.45292  0.28182  1.0000
  C   C1566     1.0  0.70765  0.44724  0.28306  1.0000
  C   C1567     1.0  0.71313  0.44715  0.30558  1.0000
  H   H1563     1.0  0.69820  0.46296  0.34183  1.0000
  H   H1564     1.0  0.68843  0.46307  0.30219  1.0000
  H   H1565     1.0  0.71030  0.44288  0.26672  1.0000
  H   H1566     1.0  0.72000  0.44268  0.30650  1.0000
  C   C1568     1.0  0.68240  0.49467  0.42032  1.0000
  C   C1569     1.0  0.67686  0.48626  0.44626  1.0000
  C   C1570     1.0  0.66530  0.48564  0.46059  1.0000
  C   C1571     1.0  0.65908  0.49327  0.44901  1.0000
  C   C1572     1.0  0.66457  0.50163  0.42293  1.0000
  C   C1573     1.0  0.67622  0.50238  0.40880  1.0000
  H   H1567     1.0  0.68153  0.48031  0.45543  1.0000
  C   C1574     1.0  0.72301  0.41159  0.24883  1.0000
  H   H1568     1.0  0.65990  0.50759  0.41384  1.0000
  H   H1569     1.0  0.68046  0.50893  0.38876  1.0000
  C   C1575     1.0  0.53411  0.46160  0.01566  1.0000
  Fe  Fe262     1.0  0.62760  0.34515  0.14291  1.0000
  H   H1570     1.0  0.50308  0.65583  0.99190  1.0000
  H   H1571     1.0  0.58755  0.52572  0.06716  1.0000
  C   C1576     1.0  0.49997  0.61922  0.04621  1.0000
  C   C1577     1.0  0.53153  0.46470  0.25060  1.0000
  C   C1578     1.0  0.53340  0.45525  0.26971  1.0000
  H   H1572     1.0  0.52820  0.47099  0.20959  1.0000
  C   C1579     1.0  0.52989  0.46374  0.22372  1.0000
  H   H1573     1.0  0.60075  0.37893  0.43300  1.0000
  C   C1580     1.0  0.59752  0.35113  0.00762  1.0000
  C   C1581     1.0  0.59684  0.35610  0.03108  1.0000
  C   C1582     1.0  0.60353  0.35373  0.05061  1.0000
  S   S527      1.0  0.50484  0.65009  0.43014  1.0000
  H   H1574     1.0  0.52450  0.64164  0.30211  1.0000
  C   C1583     1.0  0.50121  0.61252  0.09551  1.0000
  H   H1575     1.0  0.59110  0.36183  0.03408  1.0000
  H   H1576     1.0  0.60852  0.57902  0.18509  1.0000
  H   H1577     1.0  0.70817  0.46886  0.00956  1.0000
  H   H1578     1.0  0.51959  0.63959  0.06320  1.0000
  N   N129      1.0  0.51567  0.59686  0.05733  1.0000
  C   C1584     1.0  0.68637  0.47999  0.99637  1.0000
  C   C1585     1.0  0.74057  0.44902  0.23388  1.0000
  C   C1586     1.0  0.73506  0.46217  0.98884  1.0000
  H   H1579     1.0  0.55060  0.49522  0.02107  1.0000
  C   C1587     1.0  0.59623  0.35041  0.30093  1.0000
  C   C1588     1.0  0.58568  0.51418  0.39124  1.0000
  Fe  Fe263     1.0  0.61317  0.51390  0.48099  1.0000
  C   C1589     1.0  0.61263  0.35064  0.25147  1.0000
  C   C1590     1.0  0.53780  0.53821  0.20419  1.0000
  C   C1591     1.0  0.52519  0.45114  0.02524  1.0000
  H   H1580     1.0  0.74496  0.39343  0.26410  1.0000
  H   H1581     1.0  0.54026  0.53008  0.20315  1.0000
  H   H1582     1.0  0.55956  0.36925  0.38689  1.0000
  H   H1583     1.0  0.64606  0.38682  0.05908  1.0000
  H   H1584     1.0  0.54351  0.56120  0.23236  1.0000
  S   S528      1.0  0.60295  0.52240  0.01895  1.0000
  H   H1585     1.0  0.59039  0.52020  0.40106  1.0000
  H   H1586     1.0  0.53107  0.47273  0.25690  1.0000
  H   H1587     1.0  0.59145  0.38190  0.46225  1.0000
  C   C1592     1.0  0.53468  0.41754  0.47342  1.0000
  H   H1588     1.0  0.52941  0.56738  0.20660  1.0000
  N   N130      1.0  0.54256  0.54520  0.21959  1.0000
  N   N131      1.0  0.52806  0.40480  0.44529  1.0000
  C   C1593     1.0  0.52970  0.61509  0.03083  1.0000
  S   S529      1.0  0.54597  0.45703  0.36915  1.0000
  S   S530      1.0  0.64466  0.49220  0.46857  1.0000
  C   C1594     1.0  0.64036  0.37166  0.01073  1.0000
  C   C1595     1.0  0.56894  0.49566  0.01313  1.0000
  H   H1589     1.0  0.72161  0.41762  0.30700  1.0000
  S   S531      1.0  0.52457  0.44215  0.44591  1.0000
  Fe  Fe264     1.0  0.54715  0.42478  0.37280  1.0000
  H   H1590     1.0  0.72216  0.42811  0.27476  1.0000
  C   C1596     1.0  0.57015  0.49015  0.34954  1.0000
  H   H1591     1.0  0.66367  0.45884  0.08951  1.0000
  S   S532      1.0  0.53034  0.43066  0.37703  1.0000
  H   H1592     1.0  0.62490  0.39942  0.05206  1.0000
  N   N132      1.0  0.62459  0.38539  0.22997  1.0000
  C   C1597     1.0  0.61916  0.37914  0.25760  1.0000
  C   C1598     1.0  0.63555  0.39280  0.22329  1.0000
  C   C1599     1.0  0.62479  0.38003  0.27933  1.0000
  C   C1600     1.0  0.64138  0.39403  0.24454  1.0000
  C   C1601     1.0  0.63599  0.38752  0.27268  1.0000
  C   C1602     1.0  0.61898  0.38342  0.20721  1.0000
  H   H1593     1.0  0.61047  0.37331  0.26293  1.0000
  H   H1594     1.0  0.63991  0.39772  0.20138  1.0000
  C   C1603     1.0  0.60732  0.34905  0.30261  1.0000
  H   H1595     1.0  0.65013  0.39984  0.23908  1.0000
  H   H1596     1.0  0.64052  0.38823  0.28925  1.0000
  H   H1597     1.0  0.62108  0.37571  0.20024  1.0000
  H   H1598     1.0  0.60928  0.38156  0.21477  1.0000
  H   H1599     1.0  0.62201  0.39120  0.18841  1.0000
  N   N133      1.0  0.58363  0.47984  0.27719  1.0000
  C   C1604     1.0  0.58109  0.48938  0.26178  1.0000
  C   C1605     1.0  0.57577  0.46905  0.28549  1.0000
  C   C1606     1.0  0.57029  0.48836  0.25513  1.0000
  C   C1607     1.0  0.56493  0.46770  0.27887  1.0000
  C   C1608     1.0  0.56215  0.47745  0.26385  1.0000
  C   C1609     1.0  0.59513  0.48118  0.28332  1.0000
  H   H1600     1.0  0.58747  0.49782  0.25447  1.0000
  H   H1601     1.0  0.57782  0.46142  0.29737  1.0000
  H   H1602     1.0  0.56825  0.49597  0.24312  1.0000
  H   H1603     1.0  0.55869  0.45916  0.28532  1.0000
  H   H1604     1.0  0.55372  0.47653  0.25888  1.0000
  C   C1610     1.0  0.52971  0.54144  0.18955  1.0000
  C   C1611     1.0  0.53156  0.55906  0.20617  1.0000
  H   H1605     1.0  0.52598  0.53587  0.17731  1.0000
  N   N134      1.0  0.57476  0.49856  0.36465  1.0000
  C   C1612     1.0  0.57911  0.51022  0.35057  1.0000
  C   C1613     1.0  0.57554  0.49460  0.39194  1.0000
  C   C1614     1.0  0.58452  0.51821  0.36374  1.0000
  H   H1606     1.0  0.58835  0.52737  0.35212  1.0000
  H   H1607     1.0  0.57882  0.51333  0.32861  1.0000
  H   H1608     1.0  0.57211  0.48537  0.40312  1.0000
  S   S533      1.0  0.60718  0.33905  0.47365  1.0000
  H   H1609     1.0  0.61561  0.36748  0.44474  1.0000
  H   H1610     1.0  0.73538  0.42772  0.28529  1.0000
  C   C1615     1.0  0.64651  0.37672  0.02799  1.0000
  N   N135      1.0  0.60689  0.56617  0.12024  1.0000
  C   C1616     1.0  0.61550  0.56481  0.13381  1.0000
  C   C1617     1.0  0.59892  0.57212  0.12938  1.0000
  C   C1618     1.0  0.61635  0.56956  0.15703  1.0000
  C   C1619     1.0  0.59956  0.57702  0.15243  1.0000
  C   C1620     1.0  0.60825  0.57563  0.16649  1.0000
  C   C1621     1.0  0.60575  0.56077  0.09667  1.0000
  H   H1611     1.0  0.62166  0.55985  0.12708  1.0000
  H   H1612     1.0  0.59194  0.57298  0.11907  1.0000
  H   H1613     1.0  0.62303  0.56824  0.16812  1.0000
  H   H1614     1.0  0.59316  0.58163  0.15993  1.0000
  H   H1615     1.0  0.60436  0.56705  0.07862  1.0000
  H   H1616     1.0  0.61371  0.55791  0.08832  1.0000
  H   H1617     1.0  0.59824  0.55282  0.10430  1.0000
  C   C1622     1.0  0.58107  0.50230  0.40558  1.0000
  H   H1618     1.0  0.71471  0.43065  0.06271  1.0000
  C   C1623     1.0  0.50081  0.56553  0.12601  1.0000
  C   C1624     1.0  0.52042  0.60564  0.03258  1.0000
  S   S534      1.0  0.57717  0.33934  0.45151  1.0000
  C   C1625     1.0  0.55788  0.49955  0.05500  1.0000
  H   H1619     1.0  0.51916  0.41715  0.45864  1.0000
  C   C1626     1.0  0.59603  0.52655  0.07162  1.0000
  Fe  Fe265     1.0  0.49981  0.63748  0.40373  1.0000
  N   N136      1.0  0.56762  0.50125  0.06521  1.0000
  C   C1627     1.0  0.57803  0.50030  0.04980  1.0000
  C   C1628     1.0  0.59339  0.35196  0.27454  1.0000
  C   C1629     1.0  0.50012  0.62033  0.34154  1.0000
  H   H1620     1.0  0.51127  0.63625  0.02274  1.0000
  Fe  Fe266     1.0  0.58120  0.35530  0.41417  1.0000
  H   H1621     1.0  0.51684  0.43548  0.01487  1.0000
  H   H1622     1.0  0.72488  0.44826  0.07021  1.0000
  H   H1623     1.0  0.58584  0.50186  0.05751  1.0000
  H   H1624     1.0  0.57502  0.50462  0.09949  1.0000
  S   S535      1.0  0.57680  0.37241  0.42074  1.0000
  S   S536      1.0  0.69937  0.44619  0.99919  1.0000
  C   C1630     1.0  0.52954  0.60630  0.07930  1.0000
  S   S537      1.0  0.57909  0.34432  0.38267  1.0000
  C   C1631     1.0  0.65872  0.52199  0.47263  1.0000
  H   H1625     1.0  0.74027  0.45647  0.30686  1.0000
  H   H1626     1.0  0.51645  0.59005  0.10000  1.0000
  S   S538      1.0  0.51389  0.47859  0.15464  1.0000
  H   H1627     1.0  0.56518  0.49398  0.33515  1.0000
  H   H1628     1.0  0.72711  0.44504  0.98537  1.0000
  H   H1629     1.0  0.50380  0.65675  0.02759  1.0000
  H   H1630     1.0  0.68081  0.46405  0.98391  1.0000
  H   H1631     1.0  0.62375  0.52564  0.04184  1.0000
  C   C1632     1.0  0.60543  0.52521  0.05141  1.0000
  H   H1632     1.0  0.58303  0.45752  0.99388  1.0000
  C   C1633     1.0  0.72505  0.40344  0.23318  1.0000
  H   H1633     1.0  0.58714  0.49688  0.01126  1.0000
  H   H1634     1.0  0.55959  0.49768  0.10956  1.0000
  C   C1634     1.0  0.61546  0.34908  0.27787  1.0000
  Fe  Fe267     1.0  0.59650  0.34116  0.44099  1.0000
  C   C1635     1.0  0.57884  0.49749  0.02357  1.0000
  N   N137      1.0  0.67774  0.46594  0.05214  1.0000
  C   C1636     1.0  0.62467  0.39055  0.06460  1.0000
  C   C1637     1.0  0.68263  0.47773  0.04722  1.0000
  S   S539      1.0  0.60822  0.34316  0.15078  1.0000
  C   C1638     1.0  0.68705  0.48491  0.01929  1.0000
  H   H1635     1.0  0.61547  0.38043  0.02863  1.0000
  H   H1636     1.0  0.52347  0.39729  0.41244  1.0000
  C   C1639     1.0  0.50009  0.46208  0.23700  1.0000
  H   H1637     1.0  0.51671  0.60562  0.01442  1.0000
  C   C1640     1.0  0.64130  0.38307  0.04535  1.0000
  C   C1641     1.0  0.62429  0.37958  0.02822  1.0000
  H   H1638     1.0  0.54913  0.53227  0.24323  1.0000
  H   H1639     1.0  0.56946  0.49347  0.99281  1.0000
  S   S540      1.0  0.51010  0.64027  0.35735  1.0000
  H   H1640     1.0  0.54817  0.34090  0.98506  1.0000
  H   H1641     1.0  0.59509  0.47392  0.30139  1.0000
  N   N138      1.0  0.67168  0.47871  0.37742  1.0000
  C   C1642     1.0  0.66459  0.48543  0.36847  1.0000
  C   C1643     1.0  0.66768  0.47016  0.40269  1.0000
  C   C1644     1.0  0.65328  0.48392  0.38539  1.0000
  C   C1645     1.0  0.65642  0.46842  0.42014  1.0000
  C   C1646     1.0  0.64922  0.47540  0.41147  1.0000
  C   C1647     1.0  0.68349  0.48050  0.35928  1.0000
  H   H1642     1.0  0.66774  0.49216  0.34837  1.0000
  H   H1643     1.0  0.67328  0.46483  0.40983  1.0000
  H   H1644     1.0  0.64777  0.48947  0.37864  1.0000
  H   H1645     1.0  0.65341  0.46190  0.44059  1.0000
  H   H1646     1.0  0.61903  0.35081  0.23251  1.0000
  H   H1647     1.0  0.68305  0.47634  0.34135  1.0000
  H   H1648     1.0  0.68786  0.49005  0.35067  1.0000
  H   H1649     1.0  0.68919  0.47672  0.37156  1.0000
  S   S541      1.0  0.51842  0.48613  0.08385  1.0000
  H   H1650     1.0  0.56492  0.51306  0.09079  1.0000
  H   H1651     1.0  0.73897  0.46064  0.36517  1.0000
  S   S542      1.0  0.60072  0.35747  0.40534  1.0000
  C   C1648     1.0  0.67009  0.52241  0.45792  1.0000
  H   H1652     1.0  0.50343  0.49991  0.05602  1.0000
  H   H1653     1.0  0.58204  0.49898  0.42684  1.0000
  H   H1654     1.0  0.51229  0.39305  0.44590  1.0000
  C   C1649     1.0  0.52024  0.59698  0.08035  1.0000
  C   C1650     1.0  0.55145  0.54192  0.23348  1.0000
  S   S543      1.0  0.51258  0.45838  0.11849  1.0000
  C   C1651     1.0  0.62922  0.37318  0.01061  1.0000
  C   C1652     1.0  0.74902  0.43352  0.20514  1.0000
  C   C1653     1.0  0.55839  0.49670  0.02889  1.0000
  S   S544      1.0  0.55318  0.43407  0.40423  1.0000
  C   C1654     1.0  0.57538  0.45124  0.99283  1.0000
  H   H1655     1.0  0.59844  0.47881  0.36259  1.0000
  H   H1656     1.0  0.50261  0.46948  0.27205  1.0000
  Fe  Fe268     1.0  0.50107  0.63394  0.46690  1.0000
  C   C1655     1.0  0.72908  0.45029  0.99996  1.0000
  H   H1657     1.0  0.62913  0.39155  0.08180  1.0000
  H   H1658     1.0  0.66114  0.47916  0.48080  1.0000
  C   C1656     1.0  0.51937  0.40042  0.43072  1.0000
  S   S545      1.0  0.53734  0.47077  0.03842  1.0000
  H   H1659     1.0  0.56006  0.54445  0.21748  1.0000
  C   C1657     1.0  0.50827  0.62971  0.04305  1.0000
  H   H1660     1.0  0.54964  0.50036  0.06707  1.0000
  H   H1661     1.0  0.50857  0.56630  0.10952  1.0000
  C   C1658     1.0  0.53225  0.44396  0.23441  1.0000
  N   N139      1.0  0.56450  0.45053  0.00916  1.0000
  Fe  Fe269     1.0  0.52700  0.47121  0.08242  1.0000
  Fe  Fe270     1.0  0.53721  0.44112  0.40577  1.0000
  H   H1662     1.0  0.50595  0.45135  0.30007  1.0000
  C   C1659     1.0  0.55413  0.38550  0.37987  1.0000
  Fe  Fe271     1.0  0.52294  0.46433  0.14847  1.0000
  S   S546      1.0  0.52622  0.45093  0.18404  1.0000
  C   C1660     1.0  0.52999  0.45326  0.21570  1.0000
  H   H1663     1.0  0.73831  0.46969  0.31670  1.0000
  C   C1661     1.0  0.53398  0.44495  0.26121  1.0000
  H   H1664     1.0  0.53543  0.43762  0.27560  1.0000
  H   H1665     1.0  0.56283  0.46725  0.01392  1.0000
  C   C1662     1.0  0.71958  0.43284  0.03983  1.0000
  H   H1666     1.0  0.74144  0.40835  0.29042  1.0000
  C   C1663     1.0  0.56882  0.38174  0.40516  1.0000
  Fe  Fe272     1.0  0.56145  0.44943  0.36559  1.0000
  S   S547      1.0  0.54617  0.40557  0.37290  1.0000
  C   C1664     1.0  0.60162  0.35223  0.24967  1.0000
  C   C1665     1.0  0.56372  0.40071  0.39857  1.0000
  C   C1666     1.0  0.67689  0.46107  0.02977  1.0000
  C   C1667     1.0  0.52363  0.44366  0.00707  1.0000
  H   H1667     1.0  0.57754  0.48770  0.33669  1.0000
  H   H1668     1.0  0.62053  0.37478  0.30109  1.0000
  H   H1669     1.0  0.67446  0.34098  0.16938  1.0000
  H   H1670     1.0  0.73724  0.45502  0.24496  1.0000
  C   C1668     1.0  0.53730  0.39989  0.44631  1.0000
  H   H1671     1.0  0.64416  0.36648  0.99763  1.0000
  N   N140      1.0  0.72553  0.44540  0.02883  1.0000
  N   N141      1.0  0.63021  0.38418  0.04578  1.0000
  H   H1672     1.0  0.54616  0.44250  0.01956  1.0000
  C   C1669     1.0  0.73875  0.39850  0.25977  1.0000
  C   C1670     1.0  0.73671  0.40693  0.27456  1.0000
  H   H1673     1.0  0.73101  0.34076  0.13422  1.0000
  H   H1674     1.0  0.54804  0.43035  0.98517  1.0000
  H   H1675     1.0  0.72069  0.40246  0.21641  1.0000
  H   H1676     1.0  0.54696  0.44957  0.45969  1.0000
  H   H1677     1.0  0.57058  0.46025  0.03704  1.0000
  Fe  Fe273     1.0  0.59829  0.34550  0.37663  1.0000
  C   C1671     1.0  0.73740  0.46906  0.00745  1.0000
  C   C1672     1.0  0.50391  0.45155  0.27967  1.0000
  H   H1678     1.0  0.55308  0.40016  0.46038  1.0000
  H   H1679     1.0  0.67421  0.52854  0.43714  1.0000
  H   H1680     1.0  0.59232  0.35304  0.99275  1.0000
  C   C1673     1.0  0.61550  0.37163  0.46225  1.0000
  C   C1674     1.0  0.74496  0.46517  0.30848  1.0000
  S   S548      1.0  0.50100  0.60370  0.19936  1.0000
  S   S549      1.0  0.58891  0.47837  0.46419  1.0000
  C   C1675     1.0  0.52846  0.44788  0.47400  1.0000
  C   C1676     1.0  0.74810  0.46105  0.35641  1.0000
  C   C1677     1.0  0.68126  0.46799  0.00158  1.0000
  H   H1681     1.0  0.73486  0.39067  0.22633  1.0000
  C   C1678     1.0  0.73374  0.46401  0.03688  1.0000
  C   C1679     1.0  0.49992  0.45216  0.22632  1.0000
  C   C1680     1.0  0.50168  0.43188  0.23053  1.0000
  H   H1682     1.0  0.63125  0.36726  0.46988  1.0000
  S   S550      1.0  0.61231  0.49664  0.98967  1.0000
  C   C1681     1.0  0.50212  0.46175  0.26383  1.0000
  H   H1683     1.0  0.50873  0.57929  0.05622  1.0000
  C   C1682     1.0  0.59710  0.37606  0.45657  1.0000
  C   C1683     1.0  0.50571  0.58719  0.05920  1.0000
  C   C1684     1.0  0.55583  0.43603  0.98754  1.0000
  H   H1684     1.0  0.50238  0.43409  0.20720  1.0000
  Fe  Fe274     1.0  0.61216  0.51571  0.98245  1.0000
  H   H1685     1.0  0.68462  0.51452  0.45807  1.0000
  H   H1686     1.0  0.50234  0.52025  0.05585  1.0000
  H   H1687     1.0  0.50088  0.58966  0.04303  1.0000
  H   H1688     1.0  0.65412  0.52792  0.46297  1.0000
  N   N142      1.0  0.60651  0.37646  0.47113  1.0000
  H   H1689     1.0  0.50941  0.42847  0.23315  1.0000
  C   C1685     1.0  0.50370  0.44180  0.26831  1.0000
  H   H1690     1.0  0.52031  0.65884  0.47746  1.0000
  C   C1686     1.0  0.62437  0.37147  0.47641  1.0000
  C   C1687     1.0  0.49956  0.65925  0.01019  1.0000
  H   H1691     1.0  0.50202  0.66902  0.00264  1.0000
  H   H1692     1.0  0.55308  0.60281  0.77072  1.0000
  H   H1693     1.0  0.58243  0.50200  0.67969  1.0000
  N   N143      1.0  0.57188  0.49450  0.65521  1.0000
  H   H1694     1.0  0.73874  0.47121  0.78158  1.0000
  H   H1695     1.0  0.68025  0.42980  0.82955  1.0000
  C   C1688     1.0  0.64879  0.51950  0.87655  1.0000
  Fe  Fe275     1.0  0.72993  0.47564  0.91528  1.0000
  S   S551      1.0  0.72112  0.45646  0.92433  1.0000
  C   C1689     1.0  0.56095  0.48869  0.65478  1.0000
  Fe  Fe276     1.0  0.70616  0.48182  0.91678  1.0000
  S   S552      1.0  0.69611  0.46298  0.92557  1.0000
  S   S553      1.0  0.69717  0.49687  0.91421  1.0000
  Fe  Fe277     1.0  0.70701  0.45966  0.95657  1.0000
  S   S554      1.0  0.57091  0.36886  0.93073  1.0000
  Fe  Fe278     1.0  0.71119  0.46158  0.89215  1.0000
  S   S555      1.0  0.71086  0.44998  0.86106  1.0000
  S   S556      1.0  0.71632  0.47855  0.94993  1.0000
  S   S557      1.0  0.72073  0.48069  0.88102  1.0000
  Fe  Fe279     1.0  0.63166  0.37435  0.63301  1.0000
  S   S558      1.0  0.61259  0.37385  0.63877  1.0000
  S   S559      1.0  0.64511  0.39186  0.62213  1.0000
  C   C1690     1.0  0.72856  0.41571  0.75218  1.0000
  C   C1691     1.0  0.51959  0.44924  0.49556  1.0000
  Fe  Fe280     1.0  0.61213  0.36104  0.61140  1.0000
  S   S560      1.0  0.60140  0.36203  0.57863  1.0000
  Fe  Fe281     1.0  0.60952  0.35825  0.67589  1.0000
  S   S561      1.0  0.59600  0.35611  0.71712  1.0000
  S   S562      1.0  0.63152  0.36288  0.60229  1.0000
  S   S563      1.0  0.62863  0.35960  0.67192  1.0000
  Fe  Fe282     1.0  0.69701  0.44931  0.65196  1.0000
  S   S564      1.0  0.69889  0.43087  0.65594  1.0000
  S   S565      1.0  0.69832  0.46261  0.61118  1.0000
  Fe  Fe283     1.0  0.69538  0.44784  0.71538  1.0000
  S   S566      1.0  0.69692  0.42925  0.72445  1.0000
  S   S567      1.0  0.69292  0.45834  0.74833  1.0000
  Fe  Fe284     1.0  0.71094  0.43547  0.68317  1.0000
  S   S568      1.0  0.72827  0.43093  0.67927  1.0000
  Fe  Fe285     1.0  0.68461  0.42636  0.69658  1.0000
  S   S569      1.0  0.66932  0.41017  0.71220  1.0000
  S   S570      1.0  0.71029  0.45431  0.67583  1.0000
  S   S571      1.0  0.68183  0.44452  0.69086  1.0000
  Fe  Fe286     1.0  0.51264  0.58450  0.69981  1.0000
  H   H1696     1.0  0.51531  0.45419  0.53536  1.0000
  H   H1697     1.0  0.72563  0.46029  0.48643  1.0000
  Fe  Fe287     1.0  0.53498  0.60276  0.68788  1.0000
  S   S572      1.0  0.52583  0.61743  0.69067  1.0000
  S   S573      1.0  0.55471  0.60540  0.67763  1.0000
  Fe  Fe288     1.0  0.51330  0.60434  0.73005  1.0000
  C   C1692     1.0  0.61469  0.38102  0.50899  1.0000
  Fe  Fe289     1.0  0.51481  0.60928  0.66430  1.0000
  N   N144      1.0  0.73451  0.40760  0.74616  1.0000
  S   S574      1.0  0.52323  0.59040  0.72869  1.0000
  S   S575      1.0  0.52502  0.59584  0.65866  1.0000
  Fe  Fe290     1.0  0.53511  0.48843  0.60941  1.0000
  S   S576      1.0  0.54239  0.47286  0.60966  1.0000
  S   S577      1.0  0.54742  0.50635  0.59767  1.0000
  Fe  Fe291     1.0  0.57047  0.52972  0.70807  1.0000
  S   S578      1.0  0.58364  0.51944  0.71285  1.0000
  S   S579      1.0  0.55191  0.52075  0.71111  1.0000
  Fe  Fe292     1.0  0.58776  0.55273  0.69707  1.0000
  S   S580      1.0  0.60290  0.54427  0.69964  1.0000
  S   S581      1.0  0.58937  0.57241  0.68703  1.0000
  Fe  Fe293     1.0  0.59530  0.53282  0.67338  1.0000
  S   S582      1.0  0.60457  0.52371  0.64246  1.0000
  Fe  Fe294     1.0  0.59019  0.53132  0.73887  1.0000
  S   S583      1.0  0.59281  0.52073  0.78026  1.0000
  S   S584      1.0  0.58160  0.54260  0.66739  1.0000
  S   S585      1.0  0.57562  0.54044  0.73759  1.0000
  Fe  Fe295     1.0  0.60221  0.49612  0.95668  1.0000
  S   S586      1.0  0.60102  0.51468  0.95123  1.0000
  H   H1698     1.0  0.51134  0.57290  0.60227  1.0000
  Fe  Fe296     1.0  0.62851  0.50259  0.95253  1.0000
  S   S587      1.0  0.62912  0.52192  0.94697  1.0000
  S   S588      1.0  0.64190  0.49151  0.95225  1.0000
  H   H1699     1.0  0.51807  0.41822  0.73540  1.0000
  H   H1700     1.0  0.61744  0.35292  0.73220  1.0000
  Fe  Fe297     1.0  0.61766  0.51920  0.91673  1.0000
  S   S589      1.0  0.62023  0.53180  0.87327  1.0000
  S   S590      1.0  0.57645  0.33846  0.95196  1.0000
  S   S591      1.0  0.61816  0.50048  0.92028  1.0000
  H   H1701     1.0  0.54787  0.41445  0.79167  1.0000
  H   H1702     1.0  0.54860  0.59564  0.74446  1.0000
  H   H1703     1.0  0.52042  0.46287  0.72470  1.0000
  C   C1693     1.0  0.73098  0.35624  0.65074  1.0000
  H   H1704     1.0  0.58199  0.50781  0.61826  1.0000
  S   S592      1.0  0.51319  0.63134  0.49654  1.0000
  Fe  Fe298     1.0  0.53944  0.44551  0.84817  1.0000
  H   H1705     1.0  0.73375  0.45641  0.74304  1.0000
  H   H1706     1.0  0.73476  0.45750  0.85907  1.0000
  H   H1707     1.0  0.58014  0.49301  0.61400  1.0000
  S   S593      1.0  0.55680  0.44171  0.83405  1.0000
  C   C1694     1.0  0.54369  0.34700  0.90913  1.0000
  N   N145      1.0  0.55369  0.56183  0.65806  1.0000
  C   C1695     1.0  0.54019  0.41774  0.79058  1.0000
  H   H1708     1.0  0.53143  0.42974  0.71824  1.0000
  S   S594      1.0  0.51416  0.63238  0.86718  1.0000
  H   H1709     1.0  0.58533  0.44526  0.95973  1.0000
  C   C1696     1.0  0.74364  0.46171  0.84620  1.0000
  H   H1710     1.0  0.59606  0.53685  0.54926  1.0000
  Fe  Fe299     1.0  0.56191  0.45064  0.86668  1.0000
  C   C1697     1.0  0.58344  0.47771  0.93387  1.0000
  C   C1698     1.0  0.59184  0.48248  0.90766  1.0000
  C   C1699     1.0  0.59044  0.47832  0.88387  1.0000
  C   C1700     1.0  0.58061  0.46936  0.88625  1.0000
  C   C1701     1.0  0.57198  0.46485  0.91217  1.0000
  C   C1702     1.0  0.57333  0.46916  0.93581  1.0000
  H   H1711     1.0  0.59940  0.48939  0.90557  1.0000
  C   C1703     1.0  0.73771  0.45116  0.73055  1.0000
  H   H1712     1.0  0.56423  0.45811  0.91398  1.0000
  H   H1713     1.0  0.56655  0.46578  0.95563  1.0000
  C   C1704     1.0  0.60495  0.52402  0.60618  1.0000
  C   C1705     1.0  0.61067  0.51660  0.59324  1.0000
  N   N146      1.0  0.66738  0.43701  0.77627  1.0000
  H   H1714     1.0  0.51323  0.42996  0.78662  1.0000
  C   C1706     1.0  0.56336  0.38902  0.92190  1.0000
  C   C1707     1.0  0.59956  0.53119  0.59020  1.0000
  H   H1715     1.0  0.61485  0.51099  0.60544  1.0000
  S   S595      1.0  0.50172  0.59723  0.70402  1.0000
  H   H1716     1.0  0.54314  0.36907  0.89000  1.0000
  H   H1717     1.0  0.59512  0.53694  0.59979  1.0000
  C   C1708     1.0  0.60069  0.52412  0.80549  1.0000
  C   C1709     1.0  0.59995  0.51509  0.82949  1.0000
  C   C1710     1.0  0.60560  0.51736  0.85074  1.0000
  C   C1711     1.0  0.61236  0.52867  0.84788  1.0000
  C   C1712     1.0  0.61329  0.53767  0.82364  1.0000
  C   C1713     1.0  0.60740  0.53545  0.80270  1.0000
  H   H1718     1.0  0.59491  0.50625  0.83177  1.0000
  H   H1719     1.0  0.60484  0.51033  0.86912  1.0000
  H   H1720     1.0  0.61855  0.54644  0.82111  1.0000
  H   H1721     1.0  0.60811  0.54249  0.78436  1.0000
  C   C1714     1.0  0.52648  0.45976  0.73581  1.0000
  C   C1715     1.0  0.52487  0.45908  0.76518  1.0000
  H   H1722     1.0  0.63530  0.50548  0.51095  1.0000
  C   C1716     1.0  0.60473  0.34432  0.50462  1.0000
  S   S596      1.0  0.54510  0.45582  0.87829  1.0000
  H   H1723     1.0  0.51102  0.49983  0.60704  1.0000
  N   N147      1.0  0.73637  0.35680  0.62094  1.0000
  C   C1717     1.0  0.56731  0.38062  0.90917  1.0000
  H   H1724     1.0  0.61399  0.38419  0.52811  1.0000
  H   H1725     1.0  0.55039  0.44884  0.72515  1.0000
  C   C1718     1.0  0.54849  0.51093  0.62858  1.0000
  C   C1719     1.0  0.53860  0.50855  0.65143  1.0000
  C   C1720     1.0  0.53967  0.51165  0.67669  1.0000
  C   C1721     1.0  0.55068  0.51696  0.67934  1.0000
  C   C1722     1.0  0.56057  0.51925  0.65652  1.0000
  C   C1723     1.0  0.55945  0.51653  0.63092  1.0000
  H   H1726     1.0  0.53008  0.50445  0.64962  1.0000
  H   H1727     1.0  0.53199  0.50982  0.69429  1.0000
  H   H1728     1.0  0.56916  0.52285  0.65869  1.0000
  H   H1729     1.0  0.56712  0.51843  0.61329  1.0000
  C   C1724     1.0  0.50677  0.61245  0.79967  1.0000
  C   C1725     1.0  0.51753  0.62055  0.79497  1.0000
  C   C1726     1.0  0.51975  0.62635  0.81612  1.0000
  C   C1727     1.0  0.51123  0.62421  0.84209  1.0000
  H   H1730     1.0  0.72016  0.43115  0.57055  1.0000
  C   C1728     1.0  0.73594  0.46633  0.80452  1.0000
  H   H1731     1.0  0.52403  0.62258  0.77481  1.0000
  H   H1732     1.0  0.52804  0.63272  0.81211  1.0000
  C   C1729     1.0  0.52382  0.42408  0.81349  1.0000
  H   H1733     1.0  0.68983  0.48545  0.97461  1.0000
  H   H1734     1.0  0.50656  0.65071  0.52553  1.0000
  C   C1730     1.0  0.50776  0.62108  0.59472  1.0000
  Fe  Fe300     1.0  0.59590  0.34107  0.94083  1.0000
  C   C1731     1.0  0.61107  0.51638  0.56467  1.0000
  N   N148      1.0  0.72792  0.45897  0.52839  1.0000
  C   C1732     1.0  0.57977  0.58785  0.74410  1.0000
  H   H1735     1.0  0.61827  0.34963  0.55659  1.0000
  H   H1736     1.0  0.58875  0.34885  0.50006  1.0000
  Fe  Fe301     1.0  0.59751  0.34739  0.87674  1.0000
  C   C1733     1.0  0.58144  0.49857  0.62896  1.0000
  C   C1734     1.0  0.56294  0.59472  0.67800  1.0000
  C   C1735     1.0  0.55895  0.58330  0.69642  1.0000
  C   C1736     1.0  0.56670  0.57589  0.69840  1.0000
  C   C1737     1.0  0.57845  0.57997  0.68216  1.0000
  C   C1738     1.0  0.58217  0.59118  0.66326  1.0000
  C   C1739     1.0  0.57451  0.59845  0.66115  1.0000
  H   H1737     1.0  0.55007  0.58037  0.70988  1.0000
  H   H1738     1.0  0.56376  0.56729  0.71340  1.0000
  H   H1739     1.0  0.59120  0.59447  0.65076  1.0000
  H   H1740     1.0  0.57773  0.60724  0.64702  1.0000
  H   H1741     1.0  0.55162  0.45635  0.50105  1.0000
  H   H1742     1.0  0.58907  0.50157  0.53037  1.0000
  H   H1743     1.0  0.52289  0.51186  0.60624  1.0000
  C   C1740     1.0  0.73640  0.43857  0.69828  1.0000
  H   H1744     1.0  0.65804  0.52249  0.86363  1.0000
  C   C1741     1.0  0.73138  0.44533  0.71463  1.0000
  H   H1745     1.0  0.54642  0.48494  0.72387  1.0000
  H   H1746     1.0  0.72254  0.44599  0.71542  1.0000
  C   C1742     1.0  0.65293  0.39598  0.64651  1.0000
  C   C1743     1.0  0.66133  0.40685  0.63805  1.0000
  C   C1744     1.0  0.66673  0.41110  0.65779  1.0000
  C   C1745     1.0  0.66378  0.40447  0.68616  1.0000
  C   C1746     1.0  0.65570  0.39340  0.69441  1.0000
  C   C1747     1.0  0.65029  0.38916  0.67466  1.0000
  H   H1747     1.0  0.66345  0.41217  0.61629  1.0000
  H   H1748     1.0  0.67295  0.41963  0.65115  1.0000
  H   H1749     1.0  0.65342  0.38818  0.71629  1.0000
  H   H1750     1.0  0.64385  0.38077  0.68145  1.0000
  C   C1748     1.0  0.69901  0.45124  0.52845  1.0000
  C   C1749     1.0  0.69590  0.44271  0.55464  1.0000
  C   C1750     1.0  0.69536  0.44607  0.58031  1.0000
  C   C1751     1.0  0.69786  0.45799  0.57988  1.0000
  C   C1752     1.0  0.70058  0.46650  0.55379  1.0000
  C   C1753     1.0  0.70118  0.46314  0.52813  1.0000
  H   H1751     1.0  0.69410  0.43347  0.55504  1.0000
  H   H1752     1.0  0.69309  0.43944  0.60034  1.0000
  H   H1753     1.0  0.70241  0.47573  0.55341  1.0000
  C   C1754     1.0  0.56471  0.49370  0.70475  1.0000
  C   C1755     1.0  0.70600  0.45262  0.82958  1.0000
  C   C1756     1.0  0.70083  0.46184  0.82244  1.0000
  C   C1757     1.0  0.69705  0.46359  0.79722  1.0000
  C   C1758     1.0  0.69853  0.45626  0.77876  1.0000
  C   C1759     1.0  0.70384  0.44713  0.78570  1.0000
  C   C1760     1.0  0.70748  0.44528  0.81111  1.0000
  H   H1754     1.0  0.69967  0.46757  0.83644  1.0000
  H   H1755     1.0  0.69295  0.47068  0.79199  1.0000
  H   H1756     1.0  0.70502  0.44143  0.77167  1.0000
  H   H1757     1.0  0.71151  0.43815  0.81646  1.0000
  C   C1761     1.0  0.68177  0.49529  0.92444  1.0000
  C   C1762     1.0  0.67376  0.48423  0.93480  1.0000
  C   C1763     1.0  0.66164  0.48332  0.94324  1.0000
  C   C1764     1.0  0.65733  0.49341  0.94138  1.0000
  C   C1765     1.0  0.66533  0.50449  0.93095  1.0000
  C   C1766     1.0  0.67748  0.50540  0.92256  1.0000
  H   H1758     1.0  0.67688  0.47637  0.93622  1.0000
  S   S597      1.0  0.50396  0.56549  0.70599  1.0000
  H   H1759     1.0  0.66221  0.51235  0.92976  1.0000
  H   H1760     1.0  0.68360  0.51400  0.91474  1.0000
  C   C1767     1.0  0.59518  0.34897  0.51232  1.0000
  H   H1761     1.0  0.72465  0.34756  0.66176  1.0000
  C   C1768     1.0  0.61120  0.35309  0.75107  1.0000
  C   C1769     1.0  0.60007  0.35435  0.74962  1.0000
  H   H1762     1.0  0.54898  0.57799  0.64583  1.0000
  C   C1770     1.0  0.55528  0.60268  0.74792  1.0000
  H   H1763     1.0  0.74236  0.42524  0.79953  1.0000
  H   H1764     1.0  0.58676  0.35777  0.54122  1.0000
  C   C1771     1.0  0.51989  0.62477  0.54622  1.0000
  C   C1772     1.0  0.55168  0.48511  0.67950  1.0000
  S   S598      1.0  0.60735  0.34539  0.64918  1.0000
  H   H1765     1.0  0.58892  0.35358  0.81945  1.0000
  H   H1766     1.0  0.55379  0.50383  0.53928  1.0000
  S   S599      1.0  0.55679  0.43413  0.90227  1.0000
  S   S600      1.0  0.52293  0.48046  0.65280  1.0000
  H   H1767     1.0  0.72634  0.36329  0.65166  1.0000
  C   C1773     1.0  0.52070  0.42633  0.78763  1.0000
  Fe  Fe302     1.0  0.53944  0.43872  0.91205  1.0000
  H   H1768     1.0  0.58115  0.57938  0.75318  1.0000
  C   C1774     1.0  0.56048  0.49916  0.53493  1.0000
  H   H1769     1.0  0.73183  0.45703  0.80583  1.0000
  H   H1770     1.0  0.61548  0.51062  0.55511  1.0000
  C   C1775     1.0  0.51071  0.62725  0.53449  1.0000
  S   S601      1.0  0.74341  0.33660  0.72007  1.0000
  C   C1776     1.0  0.53902  0.54624  0.69395  1.0000
  H   H1771     1.0  0.67923  0.41179  0.81174  1.0000
  C   C1777     1.0  0.60239  0.35432  0.55176  1.0000
  H   H1772     1.0  0.58999  0.49828  0.63379  1.0000
  C   C1778     1.0  0.52366  0.42647  0.73703  1.0000
  S   S602      1.0  0.57816  0.34561  0.88342  1.0000
  C   C1779     1.0  0.72514  0.44693  0.53592  1.0000
  C   C1780     1.0  0.60628  0.35212  0.80193  1.0000
  S   S603      1.0  0.61380  0.49505  0.49163  1.0000
  H   H1773     1.0  0.56297  0.39033  0.84350  1.0000
  H   H1774     1.0  0.72588  0.46393  0.59384  1.0000
  C   C1781     1.0  0.57673  0.44437  0.97335  1.0000
  S   S604      1.0  0.61056  0.35063  0.83414  1.0000
  S   S605      1.0  0.60612  0.52400  0.51233  1.0000
  C   C1782     1.0  0.73044  0.35011  0.60667  1.0000
  S   S606      1.0  0.55293  0.40859  0.85894  1.0000
  H   H1775     1.0  0.72682  0.42888  0.77546  1.0000
  H   H1776     1.0  0.52275  0.55044  0.71027  1.0000
  C   C1783     1.0  0.67088  0.41788  0.77918  1.0000
  Fe  Fe303     1.0  0.50159  0.63336  0.90777  1.0000
  C   C1784     1.0  0.53683  0.42009  0.76503  1.0000
  C   C1785     1.0  0.52223  0.45327  0.51888  1.0000
  C   C1786     1.0  0.50507  0.56864  0.62271  1.0000
  C   C1787     1.0  0.59512  0.35334  0.80055  1.0000
  H   H1777     1.0  0.72189  0.34413  0.61745  1.0000
  H   H1778     1.0  0.56774  0.43164  0.95504  1.0000
  H   H1779     1.0  0.73780  0.46602  0.96594  1.0000
  H   H1780     1.0  0.51874  0.43337  0.73564  1.0000
  C   C1788     1.0  0.72847  0.46506  0.54875  1.0000
  C   C1789     1.0  0.74657  0.35797  0.56435  1.0000
  C   C1790     1.0  0.60009  0.53109  0.56153  1.0000
  S   S607      1.0  0.53214  0.42860  0.88312  1.0000
  C   C1791     1.0  0.61287  0.34432  0.52118  1.0000
  H   H1781     1.0  0.54200  0.41855  0.74615  1.0000
  H   H1782     1.0  0.52558  0.61979  0.58470  1.0000
  H   H1783     1.0  0.72104  0.44212  0.60780  1.0000
  Fe  Fe304     1.0  0.55007  0.42538  0.87076  1.0000
  C   C1792     1.0  0.59203  0.35444  0.77447  1.0000
  C   C1793     1.0  0.55017  0.55053  0.67492  1.0000
  C   C1794     1.0  0.73551  0.35046  0.57833  1.0000
  S   S608      1.0  0.52924  0.45288  0.81782  1.0000
  H   H1784     1.0  0.56179  0.58349  0.76805  1.0000
  H   H1785     1.0  0.57206  0.56342  0.64895  1.0000
  H   H1786     1.0  0.67255  0.44576  0.80670  1.0000
  C   C1795     1.0  0.50507  0.65779  0.51037  1.0000
  H   H1787     1.0  0.65462  0.49962  0.53000  1.0000
  Fe  Fe305     1.0  0.51028  0.47388  0.62864  1.0000
  H   H1788     1.0  0.52934  0.36361  0.91721  1.0000
  C   C1796     1.0  0.56313  0.39003  0.86537  1.0000
  N   N149      1.0  0.64211  0.51054  0.86588  1.0000
  C   C1797     1.0  0.63604  0.51375  0.84641  1.0000
  C   C1798     1.0  0.64215  0.49901  0.87516  1.0000
  C   C1799     1.0  0.62920  0.50524  0.83705  1.0000
  C   C1800     1.0  0.63538  0.49026  0.86629  1.0000
  C   C1801     1.0  0.62877  0.49341  0.84735  1.0000
  H   H1789     1.0  0.63621  0.52293  0.83854  1.0000
  H   H1790     1.0  0.64711  0.49648  0.89029  1.0000
  H   H1791     1.0  0.62411  0.50784  0.82230  1.0000
  H   H1792     1.0  0.63510  0.48109  0.87458  1.0000
  H   H1793     1.0  0.62329  0.48671  0.84073  1.0000
  N   N150      1.0  0.63116  0.40497  0.68135  1.0000
  C   C1802     1.0  0.63374  0.40469  0.70706  1.0000
  C   C1803     1.0  0.62321  0.39575  0.67830  1.0000
  C   C1804     1.0  0.62844  0.39489  0.73043  1.0000
  C   C1805     1.0  0.61770  0.38586  0.70126  1.0000
  C   C1806     1.0  0.62035  0.38544  0.72746  1.0000
  C   C1807     1.0  0.63653  0.41540  0.65725  1.0000
  H   H1794     1.0  0.64020  0.41190  0.70937  1.0000
  H   H1795     1.0  0.62125  0.39591  0.65784  1.0000
  H   H1796     1.0  0.63072  0.39453  0.75058  1.0000
  H   H1797     1.0  0.61147  0.37854  0.69870  1.0000
  H   H1798     1.0  0.61618  0.37777  0.74536  1.0000
  H   H1799     1.0  0.63811  0.41286  0.63668  1.0000
  H   H1800     1.0  0.63071  0.42145  0.65668  1.0000
  H   H1801     1.0  0.64523  0.42011  0.65871  1.0000
  S   S609      1.0  0.52230  0.48301  0.58484  1.0000
  H   H1802     1.0  0.55602  0.54476  0.67387  1.0000
  H   H1803     1.0  0.56327  0.38857  0.94397  1.0000
  H   H1804     1.0  0.72198  0.41756  0.74118  1.0000
  C   C1808     1.0  0.51286  0.66244  0.48338  1.0000
  H   H1805     1.0  0.72924  0.47010  0.81581  1.0000
  H   H1806     1.0  0.52824  0.62534  0.53210  1.0000
  H   H1807     1.0  0.56358  0.47363  0.51870  1.0000
  H   H1808     1.0  0.70338  0.46976  0.50815  1.0000
  S   S610      1.0  0.50796  0.64203  0.94032  1.0000
  H   H1809     1.0  0.72441  0.44210  0.51987  1.0000
  C   C1809     1.0  0.50023  0.56390  0.67446  1.0000
  H   H1810     1.0  0.57034  0.37485  0.87062  1.0000
  H   H1811     1.0  0.56721  0.51866  0.54839  1.0000
  C   C1810     1.0  0.53506  0.56504  0.67810  1.0000
  H   H1812     1.0  0.59371  0.61349  0.69373  1.0000
  Fe  Fe306     1.0  0.57999  0.35522  0.91741  1.0000
  N   N151      1.0  0.56454  0.49218  0.83955  1.0000
  C   C1811     1.0  0.56423  0.48751  0.86737  1.0000
  C   C1812     1.0  0.56793  0.50410  0.82822  1.0000
  C   C1813     1.0  0.56794  0.49477  0.88423  1.0000
  C   C1814     1.0  0.57155  0.51164  0.84457  1.0000
  C   C1815     1.0  0.57171  0.50691  0.87261  1.0000
  C   C1816     1.0  0.56093  0.48430  0.82220  1.0000
  H   H1813     1.0  0.56135  0.47808  0.87645  1.0000
  H   H1814     1.0  0.56823  0.50787  0.80613  1.0000
  H   H1815     1.0  0.56808  0.49096  0.90597  1.0000
  H   H1816     1.0  0.51060  0.44712  0.49429  1.0000
  H   H1817     1.0  0.57495  0.51264  0.88511  1.0000
  H   H1818     1.0  0.56491  0.47671  0.82534  1.0000
  H   H1819     1.0  0.55124  0.48093  0.82841  1.0000
  H   H1820     1.0  0.56392  0.48881  0.79903  1.0000
  H   H1821     1.0  0.55470  0.61114  0.73481  1.0000
  H   H1822     1.0  0.64045  0.51261  0.53643  1.0000
  C   C1817     1.0  0.51840  0.62159  0.57610  1.0000
  H   H1823     1.0  0.72471  0.39330  0.73502  1.0000
  H   H1824     1.0  0.53357  0.42452  0.48373  1.0000
  S   S611      1.0  0.52917  0.43632  0.95803  1.0000
  C   C1818     1.0  0.74257  0.40503  0.76057  1.0000
  C   C1819     1.0  0.56541  0.56607  0.63823  1.0000
  H   H1825     1.0  0.51760  0.46177  0.77641  1.0000
  H   H1826     1.0  0.62026  0.34068  0.51545  1.0000
  Fe  Fe307     1.0  0.52857  0.46642  0.58824  1.0000
  C   C1820     1.0  0.74555  0.41134  0.77993  1.0000
  H   H1827     1.0  0.64494  0.52719  0.87579  1.0000
  C   C1821     1.0  0.59405  0.35397  0.53575  1.0000
  Fe  Fe308     1.0  0.52919  0.46427  0.65180  1.0000
  H   H1828     1.0  0.55929  0.48692  0.63522  1.0000
  H   H1829     1.0  0.66398  0.44732  0.73984  1.0000
  H   H1830     1.0  0.64854  0.51591  0.89929  1.0000
  C   C1822     1.0  0.72271  0.44069  0.56454  1.0000
  S   S612      1.0  0.51558  0.45665  0.63086  1.0000
  C   C1823     1.0  0.57381  0.49713  0.67966  1.0000
  H   H1831     1.0  0.51696  0.57429  0.64677  1.0000
  S   S613      1.0  0.70087  0.44673  0.49654  1.0000
  S   S614      1.0  0.53768  0.46032  0.55066  1.0000
  H   H1832     1.0  0.56815  0.57584  0.63077  1.0000
  S   S615      1.0  0.53699  0.45494  0.68552  1.0000
  C   C1824     1.0  0.50825  0.56946  0.64795  1.0000
  C   C1825     1.0  0.57496  0.51527  0.54165  1.0000
  C   C1826     1.0  0.53558  0.45592  0.72128  1.0000
  C   C1827     1.0  0.53379  0.45581  0.52112  1.0000
  C   C1828     1.0  0.53361  0.41974  0.81489  1.0000
  C   C1829     1.0  0.61174  0.34933  0.54460  1.0000
  H   H1833     1.0  0.58396  0.48215  0.52002  1.0000
  C   C1830     1.0  0.53239  0.45467  0.78029  1.0000
  H   H1834     1.0  0.54304  0.48048  0.67915  1.0000
  C   C1831     1.0  0.73124  0.42211  0.77160  1.0000
  C   C1832     1.0  0.53143  0.55358  0.69555  1.0000
  C   C1833     1.0  0.55359  0.48761  0.70463  1.0000
  H   H1835     1.0  0.72953  0.40707  0.70750  1.0000
  C   C1834     1.0  0.54623  0.56902  0.65913  1.0000
  C   C1835     1.0  0.67190  0.43787  0.79910  1.0000
  C   C1836     1.0  0.55906  0.39836  0.87821  1.0000
  H   H1836     1.0  0.65554  0.47471  0.95124  1.0000
  S   S616      1.0  0.57886  0.46434  0.85631  1.0000
  H   H1837     1.0  0.56621  0.49589  0.72405  1.0000
  H   H1838     1.0  0.62257  0.33804  0.59956  1.0000
  C   C1837     1.0  0.72317  0.44683  0.58545  1.0000
  N   N152      1.0  0.50691  0.51642  0.60452  1.0000
  H   H1839     1.0  0.55619  0.40420  0.91666  1.0000
  N   N153      1.0  0.52723  0.42440  0.76378  1.0000
  C   C1838     1.0  0.61430  0.35202  0.77711  1.0000
  H   H1840     1.0  0.50500  0.60126  0.55945  1.0000
  C   C1839     1.0  0.53901  0.36559  0.91332  1.0000
  H   H1841     1.0  0.57940  0.51460  0.55919  1.0000
  C   C1840     1.0  0.54266  0.45446  0.49952  1.0000
  C   C1841     1.0  0.74715  0.36432  0.60726  1.0000
  C   C1842     1.0  0.58012  0.49783  0.53023  1.0000
  N   N154      1.0  0.57172  0.50378  0.53567  1.0000
  C   C1843     1.0  0.54330  0.45182  0.73620  1.0000
  C   C1844     1.0  0.54176  0.45123  0.76550  1.0000
  C   C1845     1.0  0.56885  0.59020  0.75219  1.0000
  H   H1842     1.0  0.54763  0.44784  0.77679  1.0000
  C   C1846     1.0  0.58685  0.60700  0.71065  1.0000
  H   H1843     1.0  0.54261  0.34875  0.88761  1.0000
  C   C1847     1.0  0.58880  0.59631  0.72314  1.0000
  S   S617      1.0  0.58550  0.48209  0.96455  1.0000
  N   N155      1.0  0.56695  0.60065  0.73957  1.0000
  C   C1848     1.0  0.66274  0.44652  0.76306  1.0000
  C   C1849     1.0  0.67042  0.50643  0.49599  1.0000
  H   H1844     1.0  0.50382  0.50925  0.56997  1.0000
  H   H1845     1.0  0.63050  0.37573  0.51186  1.0000
  H   H1846     1.0  0.66306  0.42637  0.74847  1.0000
  H   H1847     1.0  0.65328  0.44487  0.77352  1.0000
  S   S618      1.0  0.50271  0.60604  0.77261  1.0000
  C   C1850     1.0  0.57578  0.60903  0.71909  1.0000
  C   C1851     1.0  0.50059  0.61591  0.84700  1.0000
  C   C1852     1.0  0.51328  0.50791  0.61439  1.0000
  C   C1853     1.0  0.73072  0.46536  0.49823  1.0000
  C   C1854     1.0  0.67629  0.42886  0.81212  1.0000
  C   C1855     1.0  0.56735  0.38126  0.88066  1.0000
  S   S619      1.0  0.59960  0.35829  0.90819  1.0000
  C   C1856     1.0  0.65904  0.50625  0.51011  1.0000
  C   C1857     1.0  0.62394  0.37620  0.49994  1.0000
  N   N156      1.0  0.65339  0.51404  0.49852  1.0000
  H   H1848     1.0  0.59716  0.59437  0.71587  1.0000
  C   C1858     1.0  0.55934  0.39790  0.90647  1.0000
  H   H1849     1.0  0.57419  0.61715  0.70836  1.0000
  H   H1850     1.0  0.54525  0.45950  0.94787  1.0000
  C   C1859     1.0  0.50273  0.51603  0.58098  1.0000
  H   H1851     1.0  0.73047  0.47459  0.54290  1.0000
  H   H1852     1.0  0.67050  0.41014  0.77095  1.0000
  H   H1853     1.0  0.54325  0.35922  0.96436  1.0000
  H   H1854     1.0  0.54849  0.48463  0.52820  1.0000
  C   C1860     1.0  0.72602  0.45910  0.57758  1.0000
  C   C1861     1.0  0.64131  0.51333  0.51334  1.0000
  C   C1862     1.0  0.73198  0.40135  0.72479  1.0000
  C   C1863     1.0  0.67578  0.41881  0.80202  1.0000
  H   H1855     1.0  0.66753  0.45518  0.76485  1.0000
  H   H1856     1.0  0.57472  0.52105  0.83500  1.0000
  H   H1857     1.0  0.67476  0.50004  0.50486  1.0000
  C   C1864     1.0  0.56588  0.48211  0.52346  1.0000
  C   C1865     1.0  0.57731  0.48688  0.52429  1.0000
  Fe  Fe309     1.0  0.62676  0.34807  0.64198  1.0000
  H   H1858     1.0  0.52927  0.57084  0.67947  1.0000
  C   C1866     1.0  0.53962  0.45714  0.96931  1.0000
  S   S620      1.0  0.50548  0.61775  0.63260  1.0000
  C   C1867     1.0  0.66670  0.42712  0.76648  1.0000
  C   C1868     1.0  0.55741  0.48830  0.52874  1.0000
  H   H1859     1.0  0.73095  0.34478  0.56753  1.0000
  H   H1860     1.0  0.63842  0.52125  0.50467  1.0000
  H   H1861     1.0  0.53634  0.53728  0.70742  1.0000
  C   C1869     1.0  0.60586  0.52373  0.54854  1.0000
  C   C1870     1.0  0.56687  0.43678  0.97060  1.0000
  H   H1862     1.0  0.56560  0.56237  0.61943  1.0000
  H   H1863     1.0  0.58104  0.52178  0.52227  1.0000
  H   H1864     1.0  0.54193  0.37277  0.92327  1.0000
  H   H1865     1.0  0.59696  0.48205  0.86362  1.0000
  H   H1866     1.0  0.62295  0.35106  0.77803  1.0000
  C   C1871     1.0  0.60596  0.38103  0.49433  1.0000
  H   H1867     1.0  0.51086  0.50498  0.63811  1.0000
  H   H1868     1.0  0.59858  0.38438  0.50221  1.0000
  H   H1869     1.0  0.53617  0.41800  0.83474  1.0000
  H   H1870     1.0  0.58341  0.35547  0.77345  1.0000
  H   H1871     1.0  0.50892  0.52535  0.63687  1.0000
  C   C1872     1.0  0.53088  0.44655  0.97910  1.0000
  C   C1873     1.0  0.54388  0.35277  0.95208  1.0000
  H   H1872     1.0  0.73770  0.35722  0.66301  1.0000
  H   H1873     1.0  0.51887  0.42601  0.83211  1.0000
  N   N157      1.0  0.54249  0.35497  0.92495  1.0000
  C   C1874     1.0  0.54668  0.34242  0.96392  1.0000
  H   H1874     1.0  0.72836  0.47391  0.49587  1.0000
  H   H1875     1.0  0.73985  0.39884  0.71427  1.0000
  H   H1876     1.0  0.74701  0.39831  0.75647  1.0000
  N   N158      1.0  0.74576  0.46688  0.81769  1.0000
  C   C1875     1.0  0.50548  0.52495  0.61844  1.0000
  C   C1876     1.0  0.74771  0.43743  0.69841  1.0000
  H   H1877     1.0  0.50829  0.64525  0.79420  1.0000
  C   C1877     1.0  0.49997  0.62647  0.55311  1.0000
  C   C1878     1.0  0.73994  0.42005  0.78514  1.0000
  C   C1879     1.0  0.54642  0.33653  0.92039  1.0000
  S   S621      1.0  0.60595  0.33721  0.97435  1.0000
  H   H1878     1.0  0.74023  0.46700  0.48811  1.0000
  C   C1880     1.0  0.74902  0.45009  0.73061  1.0000
  H   H1879     1.0  0.54820  0.47263  0.97989  1.0000
  H   H1880     1.0  0.55077  0.41615  0.48448  1.0000
  S   S622      1.0  0.50533  0.94276  0.43123  1.0000
  C   C1881     1.0  0.50963  0.90465  0.39230  1.0000
  C   C1882     1.0  0.53802  0.98489  0.43977  1.0000
  Fe  Fe310     1.0  0.54215  0.99344  0.14807  1.0000
  S   S623      1.0  0.52698  0.98443  0.18630  1.0000
  S   S624      1.0  0.54598  0.98671  0.10721  1.0000
  H   H1881     1.0  0.50797  0.98257  0.05183  1.0000
  H   H1882     1.0  0.53480  0.91236  0.38677  1.0000
  C   C1883     1.0  0.52787  0.96292  0.34041  1.0000
  Fe  Fe311     1.0  0.53857  0.98976  0.21413  1.0000
  S   S625      1.0  0.53671  0.97466  0.25318  1.0000
  C   C1884     1.0  0.54692  0.97930  0.43294  1.0000
  C   C1885     1.0  0.54623  0.96126  0.14410  1.0000
  S   S626      1.0  0.55448  0.99745  0.17597  1.0000
  H   H1883     1.0  0.52186  0.97145  0.12413  1.0000
  C   C1886     1.0  0.50597  0.92691  0.37780  1.0000
  C   C1887     1.0  0.51925  0.96514  0.08727  1.0000
  H   H1884     1.0  0.52963  0.95725  0.22226  1.0000
  N   N159      1.0  0.55176  0.96624  0.16180  1.0000
  H   H1885     1.0  0.51080  0.89006  0.47733  1.0000
  C   C1888     1.0  0.52566  0.97183  0.10210  1.0000
  Fe  Fe312     1.0  0.51441  0.95198  0.99780  1.0000
  S   S627      1.0  0.52953  0.97292  0.38616  1.0000
  N   N160      1.0  0.51736  0.91414  0.39501  1.0000
  H   H1886     1.0  0.53334  0.98739  0.42398  1.0000
  H   H1887     1.0  0.52793  0.95553  0.30415  1.0000
  H   H1888     1.0  0.51940  0.94827  0.19016  1.0000
  S   S628      1.0  0.50771  0.96512  0.46005  1.0000
  H   H1889     1.0  0.56786  0.97568  0.16744  1.0000
  C   C1889     1.0  0.53708  0.97877  0.08872  1.0000
  C   C1890     1.0  0.54190  0.97888  0.06013  1.0000
  C   C1891     1.0  0.53540  0.97239  0.04507  1.0000
  H   H1890     1.0  0.56380  0.98210  0.13596  1.0000
  H   H1891     1.0  0.51084  0.89587  0.39849  1.0000
  H   H1892     1.0  0.55075  0.98410  0.04941  1.0000
  S   S629      1.0  0.52711  0.94990  0.46085  1.0000
  C   C1892     1.0  0.53382  0.97445  0.29019  1.0000
  C   C1893     1.0  0.53612  0.98473  0.29938  1.0000
  C   C1894     1.0  0.53458  0.98409  0.32878  1.0000
  C   C1895     1.0  0.53047  0.97320  0.34952  1.0000
  H   H1893     1.0  0.51672  0.67500  0.44258  1.0000
  H   H1894     1.0  0.53941  0.99318  0.28379  1.0000
  H   H1895     1.0  0.53670  0.99210  0.33544  1.0000
  H   H1896     1.0  0.50214  0.97254  0.13457  1.0000
  C   C1896     1.0  0.52769  0.91247  0.40488  1.0000
  H   H1897     1.0  0.56935  0.96918  0.13775  1.0000
  C   C1897     1.0  0.51574  0.92519  0.38751  1.0000
  H   H1898     1.0  0.53929  0.97275  0.02308  1.0000
  C   C1898     1.0  0.51084  0.67149  0.46386  1.0000
  C   C1899     1.0  0.52398  0.96542  0.05849  1.0000
  H   H1899     1.0  0.51922  0.99113  0.46078  1.0000
  C   C1900     1.0  0.50233  0.90371  0.46473  1.0000
  C   C1901     1.0  0.54592  0.96477  0.18962  1.0000
  H   H1900     1.0  0.52547  0.90412  0.42188  1.0000
  C   C1902     1.0  0.52967  0.96355  0.31095  1.0000
  Fe  Fe313     1.0  0.51922  0.95890  0.42755  1.0000
  H   H1901     1.0  0.54900  0.97744  0.41220  1.0000
  H   H1902     1.0  0.52481  0.95449  0.35597  1.0000
  S   S630      1.0  0.51517  0.95696  0.04067  1.0000
  H   H1903     1.0  0.52192  0.93273  0.38945  1.0000
  H   H1904     1.0  0.51052  0.95969  0.09826  1.0000
  H   H1905     1.0  0.50142  0.97149  0.02082  1.0000
  S   S631      1.0  0.51321  0.91495  0.46992  1.0000
  H   H1906     1.0  0.53095  0.91958  0.41473  1.0000
  H   H1907     1.0  0.55976  0.97148  0.44821  1.0000
  H   H1908     1.0  0.55016  0.96894  0.20360  1.0000
  C   C1903     1.0  0.53456  0.95465  0.15405  1.0000
  H   H1909     1.0  0.55070  0.96283  0.12173  1.0000
  C   C1904     1.0  0.50431  0.98758  0.15219  1.0000
  C   C1905     1.0  0.56380  0.97364  0.15028  1.0000
  N   N161      1.0  0.53517  0.98705  0.46605  1.0000
  H   H1910     1.0  0.50461  0.93568  0.37237  1.0000
  H   H1911     1.0  0.53013  0.95107  0.13958  1.0000
  C   C1906     1.0  0.52589  0.99300  0.47281  1.0000
  H   H1912     1.0  0.50711  0.88638  0.98757  1.0000
  C   C1907     1.0  0.55017  0.97845  0.47963  1.0000
  C   C1908     1.0  0.52854  0.95313  0.18235  1.0000
  C   C1909     1.0  0.55296  0.97597  0.45312  1.0000
  C   C1910     1.0  0.53427  0.95814  0.20035  1.0000
  Fe  Fe314     1.0  0.52370  0.00226  0.18262  1.0000
  H   H1913     1.0  0.51350  0.98844  0.15019  1.0000
  Fe  Fe315     1.0  0.51207  0.93395  0.46657  1.0000
  C   C1911     1.0  0.50098  0.67571  0.47165  1.0000
  C   C1912     1.0  0.50357  0.89211  0.46931  1.0000
  C   C1913     1.0  0.49977  0.90606  0.38263  1.0000
  H   H1914     1.0  0.51179  0.97965  0.56826  1.0000
  S   S632      1.0  0.53213  0.96932  0.88981  1.0000
  S   S633      1.0  0.51610  0.96518  0.52929  1.0000
  Fe  Fe316     1.0  0.54099  0.99312  0.65204  1.0000
  S   S634      1.0  0.52554  0.98613  0.69010  1.0000
  S   S635      1.0  0.54352  0.98220  0.61867  1.0000
  H   H1915     1.0  0.53997  0.95177  0.69525  1.0000
  H   H1916     1.0  0.53377  0.91939  0.93752  1.0000
  C   C1914     1.0  0.54828  0.94672  0.89573  1.0000
  Fe  Fe317     1.0  0.53731  0.99093  0.71786  1.0000
  S   S636      1.0  0.53234  0.97536  0.75793  1.0000
  C   C1915     1.0  0.52306  0.95802  0.66609  1.0000
  Fe  Fe318     1.0  0.51465  0.95526  0.49393  1.0000
  S   S637      1.0  0.55336  0.99696  0.67988  1.0000
  S   S638      1.0  0.52637  0.94575  0.96565  1.0000
  C   C1916     1.0  0.51633  0.95764  0.71491  1.0000
  H   H1917     1.0  0.53711  0.96037  0.54651  1.0000
  N   N162      1.0  0.53069  0.92735  0.89800  1.0000
  N   N163      1.0  0.52528  0.95858  0.69180  1.0000
  C   C1917     1.0  0.53379  0.96607  0.55857  1.0000
  H   H1918     1.0  0.51895  0.95757  0.80915  1.0000
  H   H1919     1.0  0.53014  0.95866  0.64786  1.0000
  Fe  Fe319     1.0  0.51065  0.93102  0.96861  1.0000
  S   S639      1.0  0.50899  0.96338  0.96323  1.0000
  C   C1918     1.0  0.54258  0.94691  0.87396  1.0000
  H   H1920     1.0  0.51810  0.95817  0.73528  1.0000
  C   C1919     1.0  0.53735  0.96014  0.69438  1.0000
  H   H1921     1.0  0.53838  0.96305  0.71383  1.0000
  H   H1922     1.0  0.54942  0.93653  0.93583  1.0000
  C   C1920     1.0  0.53563  0.97753  0.59416  1.0000
  C   C1921     1.0  0.53969  0.97007  0.57808  1.0000
  C   C1922     1.0  0.54520  0.93670  0.91850  1.0000
  C   C1923     1.0  0.52366  0.96946  0.55474  1.0000
  C   C1924     1.0  0.52549  0.98089  0.59037  1.0000
  H   H1923     1.0  0.54750  0.96735  0.58069  1.0000
  C   C1925     1.0  0.53365  0.93715  0.87562  1.0000
  C   C1926     1.0  0.53149  0.97451  0.79482  1.0000
  C   C1927     1.0  0.53834  0.98319  0.80373  1.0000
  C   C1928     1.0  0.53821  0.98157  0.83290  1.0000
  C   C1929     1.0  0.53103  0.97143  0.85374  1.0000
  C   C1930     1.0  0.53630  0.92704  0.91937  1.0000
  H   H1924     1.0  0.54403  0.99099  0.78806  1.0000
  H   H1925     1.0  0.54382  0.98820  0.83931  1.0000
  H   H1926     1.0  0.52126  0.90920  0.91452  1.0000
  H   H1927     1.0  0.50253  0.97609  0.63388  1.0000
  C   C1931     1.0  0.52390  0.96291  0.84495  1.0000
  S   S640      1.0  0.50541  0.94132  0.93229  1.0000
  H   H1928     1.0  0.51830  0.95507  0.86062  1.0000
  H   H1929     1.0  0.55485  0.95446  0.89521  1.0000
  Fe  Fe320     1.0  0.52002  0.95642  0.93127  1.0000
  C   C1932     1.0  0.52097  0.91744  0.89983  1.0000
  C   C1933     1.0  0.50431  0.99002  0.65527  1.0000
  H   H1930     1.0  0.52899  0.93757  0.85910  1.0000
  H   H1931     1.0  0.51008  0.95697  0.64194  1.0000
  H   H1932     1.0  0.54479  0.95476  0.85644  1.0000
  C   C1934     1.0  0.52427  0.96437  0.81569  1.0000
  C   C1935     1.0  0.51957  0.97689  0.57091  1.0000
  H   H1933     1.0  0.51252  0.91941  0.90825  1.0000
  H   H1934     1.0  0.54345  0.96710  0.67581  1.0000
  H   H1935     1.0  0.51375  0.99260  0.64805  1.0000
  H   H1936     1.0  0.52227  0.98669  0.60224  1.0000
  S   S641      1.0  0.50043  0.93858  0.50197  1.0000
  S   S642      1.0  0.51069  0.91160  0.97376  1.0000
  C   C1936     1.0  0.50488  0.95665  0.71220  1.0000
  C   C1937     1.0  0.51172  0.95701  0.66264  1.0000
  H   H1937     1.0  0.52123  0.91570  0.87859  1.0000
  H   H1938     1.0  0.52118  0.98980  0.49588  1.0000
  C   C1938     1.0  0.54130  0.98416  0.48562  1.0000
  H   H1939     1.0  0.53919  0.98608  0.50625  1.0000
  H   H1940     1.0  0.55477  0.97591  0.49557  1.0000
  C   C1939     1.0  0.50096  0.88844  0.97546  1.0000
  C   C1940     1.0  0.50053  0.90023  0.96652  1.0000
  C   C1941     1.0  0.50259  0.95638  0.68585  1.0000
  C   C1942     1.0  0.77596  0.32299  0.32879  1.0000
  C   C1943     1.0  0.77152  0.29645  0.41502  1.0000
  C   C1944     1.0  0.77192  0.33180  0.36806  1.0000
  C   C1945     1.0  0.77287  0.33273  0.07354  1.0000
  H   H1941     1.0  0.76070  0.31849  0.29186  1.0000
  H   H1942     1.0  0.78314  0.32003  0.36540  1.0000
  H   H1943     1.0  0.76298  0.31189  0.48003  1.0000
  C   C1946     1.0  0.76920  0.30644  0.42294  1.0000
  C   C1947     1.0  0.76285  0.28823  0.40928  1.0000
  H   H1944     1.0  0.75577  0.31566  0.43122  1.0000
  S   S643      1.0  0.78114  0.31637  0.42922  1.0000
  H   H1945     1.0  0.78019  0.29503  0.41316  1.0000
  H   H1946     1.0  0.76501  0.28064  0.40312  1.0000
  N   N164      1.0  0.76088  0.32948  0.08145  1.0000
  C   C1948     1.0  0.76738  0.32687  0.28827  1.0000
  H   H1947     1.0  0.78038  0.31729  0.31885  1.0000
  C   C1949     1.0  0.75779  0.30801  0.42520  1.0000
  C   C1950     1.0  0.76091  0.32941  0.12997  1.0000
  C   C1951     1.0  0.77755  0.32448  0.35509  1.0000
  H   H1948     1.0  0.77578  0.32664  0.27426  1.0000
  H   H1949     1.0  0.77762  0.33457  0.05130  1.0000
  H   H1950     1.0  0.76458  0.33422  0.27626  1.0000
  H   H1951     1.0  0.75989  0.32820  0.03946  1.0000
  H   H1952     1.0  0.77323  0.33316  0.38826  1.0000
  N   N165      1.0  0.76906  0.32874  0.31561  1.0000
  C   C1952     1.0  0.75490  0.32776  0.10923  1.0000
  C   C1953     1.0  0.77313  0.33283  0.12206  1.0000
  Fe  Fe321     1.0  0.78634  0.33481  0.43656  1.0000
  C   C1954     1.0  0.75428  0.32858  0.05994  1.0000
  H   H1953     1.0  0.75611  0.32827  0.15187  1.0000
  C   C1955     1.0  0.77917  0.33439  0.09375  1.0000
  H   H1954     1.0  0.77793  0.33461  0.13762  1.0000
  C   C1956     1.0  0.75145  0.28956  0.41170  1.0000
  H   H1955     1.0  0.79381  0.32711  0.81984  1.0000
  C   C1957     1.0  0.77814  0.33208  0.85713  1.0000
  C   C1958     1.0  0.75038  0.29107  0.91406  1.0000
  C   C1959     1.0  0.75633  0.31055  0.92326  1.0000
  H   H1956     1.0  0.76343  0.32337  0.51590  1.0000
  N   N166      1.0  0.77816  0.33285  0.82919  1.0000
  C   C1960     1.0  0.78584  0.32743  0.81211  1.0000
  H   H1957     1.0  0.78107  0.31835  0.81328  1.0000
  H   H1958     1.0  0.75699  0.32410  0.56416  1.0000
  C   C1961     1.0  0.76987  0.29834  0.92060  1.0000
  S   S644      1.0  0.77900  0.31943  0.93080  1.0000
  H   H1959     1.0  0.77834  0.29685  0.92155  1.0000
  C   C1962     1.0  0.75626  0.31561  0.52014  1.0000
  C   C1963     1.0  0.75602  0.30920  0.49962  1.0000
  H   H1960     1.0  0.76370  0.28157  0.91248  1.0000
  C   C1964     1.0  0.76150  0.28962  0.91537  1.0000
  C   C1965     1.0  0.76748  0.30891  0.92460  1.0000
  H   H1961     1.0  0.75423  0.31859  0.92642  1.0000
  H   H1962     1.0  0.78373  0.32745  0.86696  1.0000
  H   H1963     1.0  0.78894  0.33268  0.78940  1.0000
  C   C1966     1.0  0.94949  0.56932  0.46564  1.0000
  S   S645      1.0  0.79238  0.36740  0.44346  1.0000
  C   C1967     1.0  0.84738  0.43372  0.43253  1.0000
  C   C1968     1.0  0.99194  0.59303  0.11019  1.0000
  S   S646      1.0  0.92890  0.54322  0.46780  1.0000
  H   H1964     1.0  0.83392  0.44596  0.40917  1.0000
  Fe  Fe322     1.0  0.93774  0.53450  0.43603  1.0000
  S   S647      1.0  0.95303  0.54282  0.39583  1.0000
  H   H1965     1.0  0.90046  0.45456  0.48150  1.0000
  S   S648      1.0  0.94267  0.53542  0.04041  1.0000
  S   S649      1.0  0.92149  0.52033  0.44148  1.0000
  C   C1969     1.0  0.76412  0.46388  0.31652  1.0000
  Fe  Fe323     1.0  0.88839  0.44436  0.44644  1.0000
  H   H1966     1.0  0.76964  0.47071  0.41740  1.0000
  C   C1970     1.0  0.85853  0.46543  0.43026  1.0000
  Fe  Fe324     1.0  0.90268  0.43215  0.40916  1.0000
  S   S650      1.0  0.89714  0.41550  0.44563  1.0000
  S   S651      1.0  0.91787  0.43855  0.36801  1.0000
  Fe  Fe325     1.0  0.87870  0.41837  0.45162  1.0000
  S   S652      1.0  0.85947  0.40696  0.46173  1.0000
  H   H1967     1.0  0.94976  0.57640  0.42173  1.0000
  C   C1971     1.0  0.86695  0.51192  0.04757  1.0000
  S   S653      1.0  0.88436  0.43458  0.41430  1.0000
  S   S654      1.0  0.90695  0.44342  0.43853  1.0000
  Fe  Fe326     1.0  0.97212  0.55938  0.22193  1.0000
  S   S655      1.0  0.97985  0.57437  0.18162  1.0000
  S   S656      1.0  0.95811  0.55910  0.26135  1.0000
  Fe  Fe327     1.0  0.98295  0.54284  0.19341  1.0000
  S   S657      1.0  0.99158  0.55635  0.15199  1.0000
  S   S658      1.0  0.98456  0.52434  0.19913  1.0000
  H   H1968     1.0  0.79845  0.34881  0.30663  1.0000
  C   C1972     1.0  0.76475  0.33750  0.35472  1.0000
  Fe  Fe328     1.0  0.97426  0.56100  0.15730  1.0000
  S   S659      1.0  0.96513  0.56459  0.12078  1.0000
  S   S660      1.0  0.98908  0.55416  0.22087  1.0000
  S   S661      1.0  0.96545  0.54678  0.19765  1.0000
  Fe  Fe329     1.0  0.93829  0.45002  0.19595  1.0000
  S   S662      1.0  0.92674  0.43651  0.23711  1.0000
  Fe  Fe330     1.0  0.94582  0.47552  0.16179  1.0000
  S   S663      1.0  0.95615  0.47182  0.12327  1.0000
  S   S664      1.0  0.94528  0.49435  0.15822  1.0000
  Fe  Fe331     1.0  0.94091  0.45617  0.13009  1.0000
  S   S665      1.0  0.93187  0.45434  0.09324  1.0000
  S   S666      1.0  0.93008  0.46086  0.16703  1.0000
  S   S667      1.0  0.95310  0.46513  0.19372  1.0000
  H   H1969     1.0  0.85885  0.51287  0.04099  1.0000
  H   H1970     1.0  0.86828  0.53084  0.98770  1.0000
  S   S668      1.0  0.76002  0.38958  0.20984  1.0000
  Fe  Fe332     1.0  0.83141  0.48606  0.46865  1.0000
  Fe  Fe333     1.0  0.92688  0.51019  0.47764  1.0000
  S   S669      1.0  0.85157  0.49290  0.45589  1.0000
  H   H1971     1.0  0.88911  0.51068  0.03635  1.0000
  C   C1973     1.0  0.98651  0.57492  0.05875  1.0000
  H   H1972     1.0  0.75081  0.33646  0.05538  1.0000
  S   S670      1.0  0.75876  0.36256  0.17495  1.0000
  C   C1974     1.0  0.76958  0.46443  0.12735  1.0000
  Fe  Fe334     1.0  0.81464  0.46695  0.45268  1.0000
  S   S671      1.0  0.81209  0.45398  0.42559  1.0000
  H   H1973     1.0  0.91846  0.43070  0.13298  1.0000
  S   S672      1.0  0.82109  0.48651  0.43521  1.0000
  Fe  Fe335     1.0  0.77807  0.45284  0.24970  1.0000
  S   S673      1.0  0.79236  0.46942  0.23822  1.0000
  S   S674      1.0  0.77395  0.34440  0.19883  1.0000
  Fe  Fe336     1.0  0.79463  0.43752  0.25455  1.0000
  S   S675      1.0  0.81054  0.45277  0.24368  1.0000
  S   S676      1.0  0.79534  0.41857  0.26340  1.0000
  Fe  Fe337     1.0  0.79903  0.46018  0.27337  1.0000
  S   S677      1.0  0.80468  0.47158  0.30199  1.0000
  Fe  Fe338     1.0  0.80266  0.46080  0.20952  1.0000
  S   S678      1.0  0.81321  0.47129  0.16482  1.0000
  S   S679      1.0  0.78378  0.44420  0.28708  1.0000
  S   S680      1.0  0.78774  0.44503  0.21800  1.0000
  C   C1975     1.0  0.81006  0.45885  0.39116  1.0000
  C   C1976     1.0  0.80509  0.45062  0.37775  1.0000
  C   C1977     1.0  0.80348  0.45432  0.35024  1.0000
  C   C1978     1.0  0.80697  0.46628  0.33588  1.0000
  C   C1979     1.0  0.81211  0.47445  0.34914  1.0000
  C   C1980     1.0  0.81363  0.47077  0.37664  1.0000
  H   H1974     1.0  0.80241  0.44136  0.38874  1.0000
  H   H1975     1.0  0.79956  0.44794  0.34018  1.0000
  H   H1976     1.0  0.81507  0.48368  0.33787  1.0000
  H   H1977     1.0  0.81780  0.47712  0.38632  1.0000
  H   H1978     1.0  0.85020  0.43015  0.45183  1.0000
  C   C1981     1.0  0.95381  0.43624  0.25179  1.0000
  C   C1982     1.0  0.81699  0.47370  0.10721  1.0000
  C   C1983     1.0  0.81096  0.46647  0.13459  1.0000
  C   C1984     1.0  0.80287  0.45591  0.13726  1.0000
  C   C1985     1.0  0.80070  0.45271  0.11276  1.0000
  C   C1986     1.0  0.79249  0.35430  0.31014  1.0000
  H   H1979     1.0  0.82325  0.48188  0.10499  1.0000
  H   H1980     1.0  0.79821  0.45027  0.15813  1.0000
  H   H1981     1.0  0.79435  0.44459  0.11496  1.0000
  C   C1987     1.0  0.76917  0.39710  0.22721  1.0000
  C   C1988     1.0  0.76799  0.40805  0.23115  1.0000
  C   C1989     1.0  0.77560  0.41436  0.24380  1.0000
  C   C1990     1.0  0.78470  0.40998  0.25154  1.0000
  C   C1991     1.0  0.78563  0.39886  0.24850  1.0000
  C   C1992     1.0  0.77779  0.39239  0.23665  1.0000
  H   H1982     1.0  0.76132  0.41175  0.22403  1.0000
  H   H1983     1.0  0.77444  0.42262  0.24746  1.0000
  H   H1984     1.0  0.79254  0.39533  0.25476  1.0000
  H   H1985     1.0  0.77854  0.38381  0.23461  1.0000
  H   H1986     1.0  0.77115  0.37388  0.32322  1.0000
  H   H1987     1.0  0.95555  0.49497  0.09226  1.0000
  C   C1993     1.0  0.84091  0.45135  0.41509  1.0000
  C   C1994     1.0  0.89465  0.43599  0.19050  1.0000
  H   H1988     1.0  0.86547  0.47089  0.43620  1.0000
  C   C1995     1.0  0.76024  0.48309  0.42972  1.0000
  C   C1996     1.0  0.76025  0.49202  0.44391  1.0000
  C   C1997     1.0  0.76970  0.49574  0.45540  1.0000
  C   C1998     1.0  0.77909  0.49042  0.45344  1.0000
  C   C1999     1.0  0.77868  0.48096  0.44094  1.0000
  C   C2000     1.0  0.76943  0.47750  0.42866  1.0000
  S   S681      1.0  0.98286  0.46323  0.14565  1.0000
  C   C2001     1.0  0.76594  0.46250  0.15702  1.0000
  H   H1989     1.0  0.78578  0.47671  0.43938  1.0000
  H   H1990     1.0  0.79302  0.36241  0.02010  1.0000
  C   C2002     1.0  0.97487  0.51636  0.18380  1.0000
  C   C2003     1.0  0.96801  0.52184  0.16868  1.0000
  C   C2004     1.0  0.95915  0.51508  0.16002  1.0000
  C   C2005     1.0  0.95737  0.50287  0.16571  1.0000
  C   C2006     1.0  0.96482  0.49754  0.17900  1.0000
  C   C2007     1.0  0.97345  0.50424  0.18834  1.0000
  H   H1991     1.0  0.96934  0.53125  0.16404  1.0000
  H   H1992     1.0  0.95355  0.51931  0.14938  1.0000
  H   H1993     1.0  0.96374  0.48822  0.18292  1.0000
  H   H1994     1.0  0.97881  0.49995  0.19974  1.0000
  C   C2008     1.0  0.89565  0.46975  0.46069  1.0000
  H   H1995     1.0  0.95159  0.42852  0.21703  1.0000
  C   C2009     1.0  0.99341  0.47377  0.15438  1.0000
  S   S682      1.0  0.76924  0.35644  0.01335  1.0000
  H   H1996     1.0  0.75778  0.35734  0.06941  1.0000
  H   H1997     1.0  0.76363  0.46035  0.11646  1.0000
  H   H1998     1.0  0.97759  0.45645  0.25164  1.0000
  S   S683      1.0  0.75944  0.45403  0.25533  1.0000
  H   H1999     1.0  0.75149  0.45717  0.39795  1.0000
  C   C2010     1.0  0.84209  0.46349  0.40960  1.0000
  C   C2011     1.0  0.85025  0.39603  0.45044  1.0000
  C   C2012     1.0  0.85471  0.38910  0.43361  1.0000
  H   H2000     1.0  0.82440  0.37251  0.36739  1.0000
  C   C2013     1.0  0.86844  0.48495  0.02170  1.0000
  H   H2001     1.0  0.86409  0.39058  0.42599  1.0000
  H   H2002     1.0  0.76059  0.34344  0.36437  1.0000
  C   C2014     1.0  0.91713  0.43364  0.03251  1.0000
  C   C2015     1.0  0.91586  0.44497  0.03244  1.0000
  C   C2016     1.0  0.92071  0.45126  0.05037  1.0000
  C   C2017     1.0  0.92682  0.44632  0.06914  1.0000
  C   C2018     1.0  0.92810  0.43497  0.06922  1.0000
  C   C2019     1.0  0.92328  0.42871  0.05119  1.0000
  S   S684      1.0  0.91088  0.42510  0.01077  1.0000
  H   H2003     1.0  0.91954  0.45998  0.04995  1.0000
  H   H2004     1.0  0.93277  0.43095  0.08323  1.0000
  H   H2005     1.0  0.92436  0.41996  0.05165  1.0000
  C   C2020     1.0  0.91897  0.43858  0.33141  1.0000
  C   C2021     1.0  0.92743  0.44766  0.30984  1.0000
  C   C2022     1.0  0.92953  0.44746  0.28081  1.0000
  C   C2023     1.0  0.92341  0.43797  0.27293  1.0000
  C   C2024     1.0  0.91488  0.42895  0.29442  1.0000
  C   C2025     1.0  0.91259  0.42929  0.32338  1.0000
  H   H2006     1.0  0.93243  0.45489  0.31571  1.0000
  H   H2007     1.0  0.93606  0.45451  0.26462  1.0000
  H   H2008     1.0  0.91012  0.42151  0.28875  1.0000
  H   H2009     1.0  0.90618  0.42214  0.33962  1.0000
  H   H2010     1.0  0.98456  0.45335  0.20386  1.0000
  C   C2026     1.0  0.78691  0.36200  0.03987  1.0000
  Fe  Fe339     1.0  0.77806  0.35610  0.22734  1.0000
  C   C2027     1.0  0.86296  0.50295  0.46337  1.0000
  C   C2028     1.0  0.87472  0.50320  0.45165  1.0000
  C   C2029     1.0  0.88407  0.51064  0.45761  1.0000
  C   C2030     1.0  0.78663  0.35763  0.28946  1.0000
  H   H2011     1.0  0.94337  0.57399  0.47420  1.0000
  H   H2012     1.0  0.87663  0.49754  0.43791  1.0000
  H   H2013     1.0  0.89302  0.51066  0.44837  1.0000
  C   C2031     1.0  0.95399  0.54648  0.35851  1.0000
  C   C2032     1.0  0.96503  0.54888  0.33901  1.0000
  C   C2033     1.0  0.96642  0.55247  0.30925  1.0000
  C   C2034     1.0  0.95680  0.55393  0.29858  1.0000
  C   C2035     1.0  0.94575  0.55144  0.31807  1.0000
  C   C2036     1.0  0.94432  0.54764  0.34781  1.0000
  H   H2014     1.0  0.97259  0.54808  0.34697  1.0000
  H   H2015     1.0  0.97499  0.55443  0.29463  1.0000
  H   H2016     1.0  0.93825  0.55260  0.31013  1.0000
  H   H2017     1.0  0.93579  0.54592  0.36246  1.0000
  C   C2037     1.0  0.94883  0.54372  0.06260  1.0000
  C   C2038     1.0  0.94824  0.55531  0.06159  1.0000
  C   C2039     1.0  0.95314  0.56143  0.07967  1.0000
  C   C2040     1.0  0.95873  0.55613  0.09922  1.0000
  C   C2041     1.0  0.95938  0.54455  0.10018  1.0000
  C   C2042     1.0  0.95449  0.53843  0.08206  1.0000
  H   H2018     1.0  0.94395  0.55958  0.04690  1.0000
  H   H2019     1.0  0.95253  0.57036  0.07855  1.0000
  H   H2020     1.0  0.96372  0.54031  0.11475  1.0000
  H   H2021     1.0  0.95520  0.52956  0.08296  1.0000
  S   S685      1.0  0.77238  0.34429  0.44333  1.0000
  C   C2043     1.0  0.79514  0.42033  0.17764  1.0000
  C   C2044     1.0  0.78465  0.47468  0.15577  1.0000
  C   C2045     1.0  0.81319  0.38410  0.37359  1.0000
  H   H2022     1.0  0.77445  0.36746  0.27831  1.0000
  C   C2046     1.0  0.77140  0.46185  0.33458  1.0000
  Fe  Fe340     1.0  0.80578  0.48696  0.46961  1.0000
  Fe  Fe341     1.0  0.91283  0.52793  0.47544  1.0000
  H   H2023     1.0  0.77245  0.45782  0.37826  1.0000
  H   H2024     1.0  0.98025  0.55086  0.44238  1.0000
  N   N167      1.0  0.95356  0.52457  0.26142  1.0000
  C   C2047     1.0  0.94435  0.52954  0.26073  1.0000
  C   C2048     1.0  0.95504  0.51615  0.24717  1.0000
  C   C2049     1.0  0.93634  0.52613  0.24537  1.0000
  C   C2050     1.0  0.94705  0.51235  0.23214  1.0000
  C   C2051     1.0  0.93772  0.51747  0.23099  1.0000
  C   C2052     1.0  0.96208  0.52870  0.27669  1.0000
  H   H2025     1.0  0.94327  0.53634  0.27170  1.0000
  H   H2026     1.0  0.96252  0.51242  0.24698  1.0000
  H   H2027     1.0  0.92920  0.53029  0.24440  1.0000
  H   H2028     1.0  0.94822  0.50564  0.22095  1.0000
  H   H2029     1.0  0.93166  0.51480  0.21873  1.0000
  H   H2030     1.0  0.96833  0.52313  0.27843  1.0000
  H   H2031     1.0  0.96720  0.53783  0.26516  1.0000
  H   H2032     1.0  0.95751  0.52868  0.29864  1.0000
  N   N168      1.0  0.80422  0.38970  0.33562  1.0000
  C   C2053     1.0  0.80988  0.38333  0.32023  1.0000
  C   C2054     1.0  0.80587  0.39022  0.36188  1.0000
  C   C2055     1.0  0.81720  0.37703  0.33139  1.0000
  C   C2056     1.0  0.81885  0.37743  0.35826  1.0000
  C   C2057     1.0  0.79655  0.39625  0.32381  1.0000
  H   H2033     1.0  0.80850  0.38282  0.29952  1.0000
  H   H2034     1.0  0.82142  0.37174  0.31944  1.0000
  H   H2035     1.0  0.78833  0.39508  0.34039  1.0000
  H   H2036     1.0  0.80109  0.40577  0.31556  1.0000
  H   H2037     1.0  0.79386  0.39307  0.30604  1.0000
  N   N169      1.0  0.93184  0.50402  0.08061  1.0000
  C   C2058     1.0  0.92847  0.49700  0.06372  1.0000
  C   C2059     1.0  0.94145  0.50332  0.09072  1.0000
  C   C2060     1.0  0.93471  0.48890  0.05687  1.0000
  C   C2061     1.0  0.94798  0.49546  0.08397  1.0000
  C   C2062     1.0  0.94449  0.48808  0.06726  1.0000
  C   C2063     1.0  0.92461  0.51170  0.08963  1.0000
  H   H2038     1.0  0.92089  0.49756  0.05554  1.0000
  H   H2039     1.0  0.94404  0.50875  0.10446  1.0000
  H   H2040     1.0  0.93194  0.48322  0.04377  1.0000
  H   H2041     1.0  0.93134  0.43971  0.41494  1.0000
  H   H2042     1.0  0.94925  0.48166  0.06258  1.0000
  C   C2064     1.0  0.96861  0.44062  0.20739  1.0000
  H   H2043     1.0  0.92138  0.51590  0.07175  1.0000
  H   H2044     1.0  0.76772  0.46568  0.29366  1.0000
  C   C2065     1.0  0.85092  0.47054  0.41736  1.0000
  H   H2045     1.0  0.83610  0.46739  0.39959  1.0000
  H   H2046     1.0  0.85188  0.47996  0.41340  1.0000
  H   H2047     1.0  0.80130  0.39520  0.37413  1.0000
  N   N170      1.0  0.79423  0.49910  0.37814  1.0000
  C   C2066     1.0  0.79003  0.49272  0.36088  1.0000
  C   C2067     1.0  0.78856  0.50690  0.38757  1.0000
  C   C2068     1.0  0.77983  0.49399  0.35280  1.0000
  C   C2069     1.0  0.77835  0.50840  0.37985  1.0000
  C   C2070     1.0  0.77396  0.50187  0.36243  1.0000
  C   C2071     1.0  0.80467  0.49722  0.38714  1.0000
  H   H2048     1.0  0.79445  0.48646  0.35360  1.0000
  H   H2049     1.0  0.79167  0.51168  0.40201  1.0000
  H   H2050     1.0  0.77636  0.48873  0.33965  1.0000
  H   H2051     1.0  0.77364  0.51426  0.38820  1.0000
  H   H2052     1.0  0.76579  0.50262  0.35722  1.0000
  H   H2053     1.0  0.81222  0.49911  0.36824  1.0000
  H   H2054     1.0  0.80716  0.50291  0.40114  1.0000
  H   H2055     1.0  0.80291  0.48797  0.39965  1.0000
  H   H2056     1.0  0.96340  0.56540  0.40282  1.0000
  H   H2057     1.0  0.83818  0.42871  0.43582  1.0000
  Fe  Fe342     1.0  0.96292  0.46081  0.15523  1.0000
  C   C2072     1.0  0.77120  0.36068  0.09162  1.0000
  H   H2058     1.0  0.92145  0.43039  0.18111  1.0000
  H   H2059     1.0  0.92978  0.51903  0.09598  1.0000
  C   C2073     1.0  0.79570  0.40314  0.15994  1.0000
  H   H2060     1.0  0.81936  0.47622  0.06169  1.0000
  C   C2074     1.0  0.95309  0.57070  0.43625  1.0000
  H   H2061     1.0  0.91096  0.44878  0.01881  1.0000
  C   C2075     1.0  0.96084  0.56445  0.42568  1.0000
  C   C2076     1.0  0.78538  0.42129  0.16728  1.0000
  H   H2062     1.0  0.89228  0.48642  0.44423  1.0000
  C   C2077     1.0  0.91156  0.47256  0.98254  1.0000
  H   H2063     1.0  0.88382  0.47875  0.00940  1.0000
  Fe  Fe343     1.0  0.92417  0.51183  0.98354  1.0000
  C   C2078     1.0  0.84703  0.38001  0.42717  1.0000
  H   H2064     1.0  0.77308  0.41355  0.14641  1.0000
  H   H2065     1.0  0.93558  0.47629  0.43551  1.0000
  H   H2066     1.0  0.94170  0.43420  0.43179  1.0000
  S   S686      1.0  0.78876  0.36405  0.11969  1.0000
  S   S687      1.0  0.88455  0.46161  0.44940  1.0000
  S   S688      1.0  0.94379  0.52352  0.46984  1.0000
  C   C2079     1.0  0.89761  0.48197  0.45539  1.0000
  C   C2080     1.0  0.93660  0.46784  0.44611  1.0000
  C   C2081     1.0  0.85719  0.45327  0.43519  1.0000
  C   C2082     1.0  0.75514  0.45899  0.37507  1.0000
  S   S689      1.0  0.75073  0.48069  0.40736  1.0000
  S   S690      1.0  0.94855  0.44449  0.15936  1.0000
  C   C2083     1.0  0.78090  0.41300  0.15359  1.0000
  C   C2084     1.0  0.93369  0.43744  0.43559  1.0000
  N   N171      1.0  0.84837  0.44638  0.42796  1.0000
  H   H2067     1.0  0.86325  0.44936  0.44480  1.0000
  C   C2085     1.0  0.80658  0.46004  0.08542  1.0000
  C   C2086     1.0  0.81478  0.47053  0.08268  1.0000
  C   C2087     1.0  0.90658  0.48848  0.46415  1.0000
  H   H2068     1.0  0.90471  0.42859  0.10417  1.0000
  C   C2088     1.0  0.93928  0.46634  0.47247  1.0000
  H   H2069     1.0  0.81440  0.38438  0.39457  1.0000
  H   H2070     1.0  0.85303  0.43204  0.41384  1.0000
  H   H2071     1.0  0.97612  0.55331  0.40920  1.0000
  H   H2072     1.0  0.90797  0.49785  0.46003  1.0000
  C   C2089     1.0  0.77490  0.35966  0.04184  1.0000
  H   H2073     1.0  0.94910  0.43906  0.30301  1.0000
  C   C2090     1.0  0.77709  0.36838  0.31970  1.0000
  H   H2074     1.0  0.91661  0.46833  0.99506  1.0000
  N   N172      1.0  0.78048  0.47135  0.11229  1.0000
  N   N173      1.0  0.78613  0.40414  0.14982  1.0000
  C   C2091     1.0  0.99029  0.47914  0.17635  1.0000
  H   H2075     1.0  0.96778  0.54081  0.43788  1.0000
  C   C2092     1.0  0.95746  0.43448  0.22468  1.0000
  H   H2076     1.0  0.78234  0.46484  0.07526  1.0000
  C   C2093     1.0  0.80031  0.41118  0.17409  1.0000
  H   H2077     1.0  0.75341  0.49662  0.44429  1.0000
  C   C2094     1.0  0.77897  0.36476  0.29420  1.0000
  Fe  Fe344     1.0  0.81072  0.46837  0.01099  1.0000
  S   S691      1.0  0.82558  0.36546  0.42980  1.0000
  H   H2078     1.0  0.85069  0.37463  0.41455  1.0000
  H   H2079     1.0  0.82089  0.38318  0.46147  1.0000
  S   S692      1.0  0.78334  0.37248  0.19158  1.0000
  H   H2080     1.0  0.79977  0.39603  0.15737  1.0000
  N   N174      1.0  0.87156  0.50285  0.03674  1.0000
  N   N175      1.0  0.90146  0.43378  0.14325  1.0000
  H   H2081     1.0  0.86498  0.50965  0.07122  1.0000
  H   H2082     1.0  0.88521  0.43774  0.15828  1.0000
  H   H2083     1.0  0.87341  0.52067  0.03860  1.0000
  Fe  Fe345     1.0  0.99664  0.56840  0.17956  1.0000
  H   H2084     1.0  0.98118  0.47733  0.18771  1.0000
  H   H2085     1.0  0.90282  0.44325  0.10118  1.0000
  C   C2095     1.0  0.78114  0.39554  0.13562  1.0000
  C   C2096     1.0  0.97193  0.45013  0.24440  1.0000
  H   H2086     1.0  0.89038  0.43053  0.11571  1.0000
  H   H2087     1.0  0.92634  0.43018  0.45041  1.0000
  H   H2088     1.0  0.86259  0.47800  0.01673  1.0000
  H   H2089     1.0  0.91710  0.50656  0.10801  1.0000
  C   C2097     1.0  0.96124  0.55549  0.47276  1.0000
  H   H2090     1.0  0.97155  0.43948  0.18611  1.0000
  C   C2098     1.0  0.78397  0.47336  0.08116  1.0000
  H   H2091     1.0  0.99711  0.50535  0.13416  1.0000
  H   H2092     1.0  0.94509  0.43147  0.26496  1.0000
  H   H2093     1.0  0.79507  0.35507  0.35121  1.0000
  S   S693      1.0  0.75957  0.35694  0.24266  1.0000
  H   H2094     1.0  0.88803  0.43773  0.20640  1.0000
  H   H2095     1.0  0.79074  0.47857  0.16666  1.0000
  C   C2099     1.0  0.86415  0.49375  0.03161  1.0000
  H   H2096     1.0  0.77900  0.47905  0.07099  1.0000
  Fe  Fe346     1.0  0.78548  0.35957  0.41056  1.0000
  S   S694      1.0  0.91575  0.52034  0.01515  1.0000
  H   H2097     1.0  0.97828  0.57744  0.05678  1.0000
  C   C2100     1.0  0.76688  0.45942  0.36404  1.0000
  S   S695      1.0  0.80300  0.45605  0.05539  1.0000
  H   H2098     1.0  0.90616  0.43389  0.21801  1.0000
  C   C2101     1.0  0.77358  0.46758  0.17130  1.0000
  H   H2099     1.0  0.85493  0.49343  0.03430  1.0000
  C   C2102     1.0  0.79104  0.36366  0.06369  1.0000
  S   S696      1.0  0.78877  0.35224  0.25878  1.0000
  C   C2103     1.0  0.89311  0.43597  0.16330  1.0000
  H   H2100     1.0  0.77996  0.40008  0.11491  1.0000
  H   H2101     1.0  0.79852  0.42649  0.18902  1.0000
  C   C2104     1.0  0.75134  0.44675  0.23569  1.0000
  H   H2102     1.0  0.98763  0.59843  0.12157  1.0000
  C   C2105     1.0  0.91162  0.43196  0.14924  1.0000
  H   H2103     1.0  0.77092  0.46605  0.19435  1.0000
  C   C2106     1.0  0.83026  0.38478  0.45347  1.0000
  C   C2107     1.0  0.91365  0.48281  0.47813  1.0000
  C   C2108     1.0  0.78273  0.36475  0.34077  1.0000
  H   H2104     1.0  0.95463  0.45462  0.28673  1.0000
  C   C2109     1.0  0.90235  0.46404  0.47586  1.0000
  Fe  Fe347     1.0  0.76451  0.37269  0.20519  1.0000
  C   C2110     1.0  0.78792  0.47660  0.12606  1.0000
  C   C2111     1.0  0.83475  0.37768  0.43714  1.0000
  C   C2112     1.0  0.93817  0.44594  0.47400  1.0000
  H   H2105     1.0  0.78687  0.38960  0.13100  1.0000
  S   S697      1.0  0.78001  0.36912  0.37303  1.0000
  C   C2113     1.0  0.88034  0.48542  0.01745  1.0000
  C   C2114     1.0  0.78321  0.36286  0.08975  1.0000
  C   C2115     1.0  0.76341  0.33585  0.32833  1.0000
  H   H2106     1.0  0.77249  0.39000  0.14948  1.0000
  H   H2107     1.0  0.80034  0.36537  0.06205  1.0000
  C   C2116     1.0  0.79051  0.35779  0.33566  1.0000
  H   H2108     1.0  0.79655  0.48214  0.11422  1.0000
  C   C2117     1.0  0.83795  0.39381  0.46013  1.0000
  C   C2118     1.0  0.97592  0.44845  0.21734  1.0000
  C   C2119     1.0  0.93482  0.45827  0.43409  1.0000
  N   N176      1.0  0.96484  0.55699  0.44390  1.0000
  C   C2120     1.0  0.97268  0.55019  0.43282  1.0000
  C   C2121     1.0  0.76709  0.35915  0.06770  1.0000
  Fe  Fe348     1.0  0.77726  0.36100  0.16429  1.0000
  C   C2122     1.0  0.91341  0.43184  0.17629  1.0000
  Fe  Fe349     1.0  0.90042  0.42737  0.47530  1.0000
  S   S698      1.0  0.79939  0.34998  0.40282  1.0000
  N   N177      1.0  0.93562  0.44749  0.44808  1.0000
  Fe  Fe350     1.0  0.80577  0.35696  0.43742  1.0000
  S   S699      1.0  0.81520  0.48805  0.00175  1.0000
  H   H2109     1.0  0.76360  0.43677  0.22365  1.0000
  Fe  Fe351     1.0  0.93327  0.53364  0.00427  1.0000
  H   H2110     1.0  0.78047  0.46205  0.32577  1.0000
  H   H2111     1.0  0.76508  0.36002  0.11154  1.0000
  Fe  Fe352     1.0  0.75573  0.34660  0.21131  1.0000
  C   C2123     1.0  0.89974  0.43406  0.11472  1.0000
  H   H2112     1.0  0.97851  0.58923  0.08861  1.0000
  C   C2124     1.0  0.90484  0.43385  0.19702  1.0000
  C   C2125     1.0  0.75548  0.43883  0.22170  1.0000
  H   H2113     1.0  0.96391  0.44618  0.30109  1.0000
  H   H2114     1.0  0.80774  0.41022  0.18265  1.0000
  S   S700      1.0  0.79183  0.49680  0.46316  1.0000
  C   C2126     1.0  0.98685  0.58783  0.09141  1.0000
  H   H2115     1.0  0.78114  0.42821  0.17055  1.0000
  H   H2116     1.0  0.93253  0.45947  0.41381  1.0000
  H   H2117     1.0  0.75725  0.45710  0.16885  1.0000
  N   N178      1.0  0.96104  0.44396  0.26136  1.0000
  C   C2127     1.0  0.88322  0.50334  0.03279  1.0000
  C   C2128     1.0  0.99901  0.48659  0.18428  1.0000
  C   C2129     1.0  0.88779  0.49465  0.02310  1.0000
  S   S701      1.0  0.92123  0.49225  0.99693  1.0000
  C   C2130     1.0  0.88183  0.51813  0.47515  1.0000
  H   H2118     1.0  0.89709  0.49520  0.01948  1.0000
  C   C2131     1.0  0.95698  0.44606  0.28942  1.0000
  H   H2119     1.0  0.79349  0.47763  0.07201  1.0000
  H   H2120     1.0  0.75809  0.34057  0.31771  1.0000
  H   H2121     1.0  0.74998  0.47053  0.28664  1.0000
  N   N179      1.0  0.99202  0.58064  0.07782  1.0000
  S   S702      1.0  0.79450  0.34036  0.47063  1.0000
  H   H2122     1.0  0.99257  0.57734  0.03707  1.0000
  Fe  Fe353     1.0  0.78099  0.35070  0.47541  1.0000
  H   H2123     1.0  0.75226  0.42745  0.19417  1.0000
  N   N180      1.0  0.75264  0.46354  0.32752  1.0000
  H   H2124     1.0  0.98407  0.56521  0.06754  1.0000
  H   H2125     1.0  0.83431  0.39902  0.47326  1.0000
  H   H2126     1.0  0.99647  0.49043  0.20175  1.0000
  H   H2127     1.0  0.76995  0.50310  0.46489  1.0000
  H   H2128     1.0  0.78866  0.33744  0.08721  1.0000
  C   C2132     1.0  0.86070  0.51037  0.48106  1.0000
  N   N181      1.0  0.93629  0.49595  0.56623  1.0000
  H   H2129     1.0  0.94135  0.51255  0.57533  1.0000
  H   H2130     1.0  0.90580  0.49903  0.96218  1.0000
  C   C2133     1.0  0.89871  0.47183  0.95090  1.0000
  S   S703      1.0  0.92882  0.54539  0.96791  1.0000
  S   S704      1.0  0.89107  0.46428  0.93087  1.0000
  Fe  Fe354     1.0  0.93664  0.53503  0.93891  1.0000
  S   S705      1.0  0.95137  0.54091  0.89730  1.0000
  C   C2134     1.0  0.80841  0.43373  0.68725  1.0000
  S   S706      1.0  0.94481  0.53387  0.53580  1.0000
  S   S707      1.0  0.91962  0.52172  0.94572  1.0000
  C   C2135     1.0  0.81777  0.44365  0.63773  1.0000
  Fe  Fe355     1.0  0.89387  0.44613  0.93527  1.0000
  C   C2136     1.0  0.86721  0.46604  0.51383  1.0000
  H   H2131     1.0  0.88830  0.49604  0.54714  1.0000
  Fe  Fe356     1.0  0.90615  0.43035  0.90703  1.0000
  S   S708      1.0  0.89818  0.41511  0.94668  1.0000
  S   S709      1.0  0.91835  0.42732  0.86853  1.0000
  Fe  Fe357     1.0  0.88107  0.42014  0.94673  1.0000
  S   S710      1.0  0.86201  0.40929  0.95204  1.0000
  C   C2137     1.0  0.81049  0.43493  0.62986  1.0000
  S   S711      1.0  0.91149  0.42555  0.50866  1.0000
  S   S712      1.0  0.88901  0.43485  0.90648  1.0000
  S   S713      1.0  0.91171  0.44295  0.93257  1.0000
  Fe  Fe358     1.0  0.97024  0.55608  0.72487  1.0000
  S   S714      1.0  0.97764  0.57129  0.68496  1.0000
  S   S715      1.0  0.95514  0.55497  0.76293  1.0000
  Fe  Fe359     1.0  0.98275  0.54053  0.69589  1.0000
  Fe  Fe360     1.0  0.78095  0.35583  0.97161  1.0000
  S   S716      1.0  0.98487  0.52225  0.70120  1.0000
  C   C2138     1.0  0.90483  0.46623  0.96812  1.0000
  C   C2139     1.0  0.77550  0.35366  0.59470  1.0000
  Fe  Fe361     1.0  0.97297  0.55791  0.66002  1.0000
  S   S717      1.0  0.96216  0.56028  0.62662  1.0000
  S   S718      1.0  0.98764  0.55192  0.72424  1.0000
  S   S719      1.0  0.96489  0.54331  0.69984  1.0000
  Fe  Fe362     1.0  0.94256  0.45118  0.69095  1.0000
  S   S720      1.0  0.93699  0.43654  0.73267  1.0000
  Fe  Fe363     1.0  0.94496  0.47648  0.66218  1.0000
  S   S721      1.0  0.95466  0.47547  0.61937  1.0000
  S   S722      1.0  0.94208  0.49392  0.66750  1.0000
  Fe  Fe364     1.0  0.94137  0.45803  0.62740  1.0000
  S   S723      1.0  0.93130  0.45492  0.59268  1.0000
  S   S724      1.0  0.93086  0.46001  0.66903  1.0000
  S   S725      1.0  0.95589  0.46782  0.68677  1.0000
  C   C2140     1.0  0.94214  0.50053  0.53571  1.0000
  S   S726      1.0  0.94180  0.52410  0.97469  1.0000
  S   S727      1.0  0.76367  0.39437  0.69772  1.0000
  Fe  Fe365     1.0  0.83138  0.48784  0.96917  1.0000
  S   S728      1.0  0.88470  0.43208  0.97571  1.0000
  S   S729      1.0  0.85136  0.49445  0.96211  1.0000
  Fe  Fe366     1.0  0.80552  0.48683  0.96729  1.0000
  Fe  Fe367     1.0  0.78502  0.33824  0.93623  1.0000
  C   C2141     1.0  0.75697  0.47229  0.80154  1.0000
  H   H2132     1.0  0.75870  0.47632  0.77889  1.0000
  H   H2133     1.0  0.93940  0.55021  0.66334  1.0000
  Fe  Fe368     1.0  0.81718  0.46894  0.94725  1.0000
  S   S730      1.0  0.81975  0.45863  0.91401  1.0000
  H   H2134     1.0  0.80704  0.40318  0.89821  1.0000
  S   S731      1.0  0.82212  0.48864  0.93372  1.0000
  Fe  Fe369     1.0  0.77479  0.45578  0.75016  1.0000
  S   S732      1.0  0.78894  0.47221  0.74186  1.0000
  S   S733      1.0  0.99073  0.55428  0.65471  1.0000
  Fe  Fe370     1.0  0.79102  0.44016  0.75941  1.0000
  S   S734      1.0  0.80668  0.45534  0.75187  1.0000
  S   S735      1.0  0.79189  0.42126  0.76886  1.0000
  Fe  Fe371     1.0  0.79403  0.46251  0.77940  1.0000
  S   S736      1.0  0.79555  0.47196  0.81424  1.0000
  Fe  Fe372     1.0  0.80016  0.46363  0.71509  1.0000
  S   S737      1.0  0.81142  0.47345  0.67047  1.0000
  S   S738      1.0  0.77890  0.44666  0.78955  1.0000
  S   S739      1.0  0.78559  0.44797  0.72068  1.0000
  C   C2142     1.0  0.81236  0.46142  0.88713  1.0000
  C   C2143     1.0  0.81519  0.45756  0.86228  1.0000
  C   C2144     1.0  0.80973  0.46027  0.84011  1.0000
  C   C2145     1.0  0.80134  0.46675  0.84291  1.0000
  C   C2146     1.0  0.79813  0.47007  0.86837  1.0000
  C   C2147     1.0  0.80375  0.46759  0.89016  1.0000
  H   H2135     1.0  0.82182  0.45273  0.85986  1.0000
  H   H2136     1.0  0.81227  0.45767  0.82059  1.0000
  H   H2137     1.0  0.79139  0.47473  0.87120  1.0000
  H   H2138     1.0  0.80145  0.47045  0.90938  1.0000
  H   H2139     1.0  0.78591  0.41348  0.65723  1.0000
  H   H2140     1.0  0.92040  0.48414  0.64652  1.0000
  C   C2148     1.0  0.81603  0.47546  0.61276  1.0000
  C   C2149     1.0  0.80872  0.46917  0.63988  1.0000
  C   C2150     1.0  0.79949  0.45961  0.64203  1.0000
  C   C2151     1.0  0.79775  0.45619  0.61749  1.0000
  C   C2152     1.0  0.79581  0.35943  0.80383  1.0000
  H   H2141     1.0  0.82317  0.48291  0.61083  1.0000
  H   H2142     1.0  0.79376  0.45470  0.66254  1.0000
  H   H2143     1.0  0.79066  0.44869  0.61946  1.0000
  C   C2153     1.0  0.77100  0.40134  0.71913  1.0000
  C   C2154     1.0  0.76918  0.41207  0.72302  1.0000
  C   C2155     1.0  0.77491  0.41772  0.74020  1.0000
  C   C2156     1.0  0.78305  0.41306  0.75210  1.0000
  C   C2157     1.0  0.78473  0.40220  0.74865  1.0000
  C   C2158     1.0  0.77865  0.39631  0.73228  1.0000
  H   H2144     1.0  0.76323  0.41598  0.71298  1.0000
  H   H2145     1.0  0.77296  0.42564  0.74436  1.0000
  H   H2146     1.0  0.79092  0.39846  0.75801  1.0000
  H   H2147     1.0  0.78005  0.38798  0.72949  1.0000
  H   H2148     1.0  0.99035  0.44781  0.65254  1.0000
  C   C2159     1.0  0.90277  0.39650  0.89571  1.0000
  C   C2160     1.0  0.89557  0.41398  0.83296  1.0000
  H   H2149     1.0  0.76260  0.44204  0.71513  1.0000
  N   N182      1.0  0.80230  0.42590  0.65027  1.0000
  S   S740      1.0  0.88173  0.42874  0.48415  1.0000
  H   H2150     1.0  0.93860  0.51906  0.88975  1.0000
  C   C2161     1.0  0.76876  0.49430  0.95360  1.0000
  C   C2162     1.0  0.77858  0.48959  0.95067  1.0000
  C   C2163     1.0  0.77887  0.48078  0.93619  1.0000
  C   C2164     1.0  0.76974  0.47712  0.92374  1.0000
  H   H2151     1.0  0.75232  0.40962  0.79040  1.0000
  C   C2165     1.0  0.86067  0.51523  0.97593  1.0000
  H   H2152     1.0  0.78637  0.47713  0.93360  1.0000
  Fe  Fe373     1.0  0.78219  0.36108  0.71950  1.0000
  C   C2166     1.0  0.97327  0.51431  0.69108  1.0000
  C   C2167     1.0  0.96848  0.52001  0.67049  1.0000
  C   C2168     1.0  0.95894  0.51371  0.66314  1.0000
  C   C2169     1.0  0.95415  0.50172  0.67645  1.0000
  C   C2170     1.0  0.95890  0.49608  0.69714  1.0000
  C   C2171     1.0  0.96857  0.50231  0.70412  1.0000
  H   H2153     1.0  0.97220  0.52926  0.66001  1.0000
  H   H2154     1.0  0.95534  0.51812  0.64703  1.0000
  H   H2155     1.0  0.95489  0.48700  0.70854  1.0000
  H   H2156     1.0  0.97216  0.49791  0.72028  1.0000
  H   H2157     1.0  0.77750  0.37188  0.77141  1.0000
  C   C2172     1.0  0.89899  0.48367  0.94901  1.0000
  H   H2158     1.0  0.77121  0.35012  0.61722  1.0000
  H   H2159     1.0  0.93543  0.55737  0.73333  1.0000
  C   C2173     1.0  0.90567  0.48996  0.96362  1.0000
  Fe  Fe374     1.0  0.81067  0.46879  0.51503  1.0000
  S   S741      1.0  0.95252  0.44821  0.64989  1.0000
  C   C2174     1.0  0.88499  0.47326  0.52679  1.0000
  C   C2175     1.0  0.87007  0.51795  0.48670  1.0000
  H   H2160     1.0  0.90721  0.44696  0.52540  1.0000
  C   C2176     1.0  0.85202  0.39745  0.94514  1.0000
  C   C2177     1.0  0.78581  0.36272  0.58585  1.0000
  H   H2161     1.0  0.79768  0.35993  0.84577  1.0000
  H   H2162     1.0  0.80743  0.43316  0.70982  1.0000
  C   C2178     1.0  0.93594  0.52463  0.72849  1.0000
  Fe  Fe375     1.0  0.93433  0.53142  0.50202  1.0000
  C   C2179     1.0  0.91645  0.43363  0.53284  1.0000
  C   C2180     1.0  0.91329  0.44393  0.53646  1.0000
  C   C2181     1.0  0.91793  0.45030  0.55457  1.0000
  C   C2182     1.0  0.92565  0.44641  0.57001  1.0000
  C   C2183     1.0  0.92867  0.43601  0.56668  1.0000
  C   C2184     1.0  0.92416  0.42974  0.54827  1.0000
  S   S742      1.0  0.79330  0.34412  0.96994  1.0000
  H   H2163     1.0  0.91539  0.45825  0.55682  1.0000
  H   H2164     1.0  0.93453  0.43277  0.57828  1.0000
  H   H2165     1.0  0.92668  0.42177  0.54604  1.0000
  C   C2185     1.0  0.92354  0.43123  0.83040  1.0000
  C   C2186     1.0  0.93031  0.42439  0.81856  1.0000
  C   C2187     1.0  0.93429  0.42632  0.78890  1.0000
  C   C2188     1.0  0.93194  0.43539  0.77000  1.0000
  C   C2189     1.0  0.92534  0.44253  0.78154  1.0000
  C   C2190     1.0  0.92102  0.44035  0.81170  1.0000
  H   H2166     1.0  0.93239  0.41737  0.83252  1.0000
  H   H2167     1.0  0.93928  0.42069  0.78050  1.0000
  H   H2168     1.0  0.92334  0.44951  0.76729  1.0000
  H   H2169     1.0  0.91580  0.44573  0.82042  1.0000
  H   H2170     1.0  0.95774  0.44635  0.74946  1.0000
  H   H2171     1.0  0.80214  0.35432  0.80029  1.0000
  H   H2172     1.0  0.77090  0.33907  0.79504  1.0000
  C   C2191     1.0  0.86278  0.50566  0.96560  1.0000
  C   C2192     1.0  0.77082  0.33839  0.81726  1.0000
  H   H2173     1.0  0.97500  0.44300  0.65732  1.0000
  H   H2174     1.0  0.79153  0.39673  0.81989  1.0000
  C   C2193     1.0  0.75289  0.46174  0.85916  1.0000
  H   H2175     1.0  0.77328  0.46607  0.68984  1.0000
  H   H2176     1.0  0.77527  0.47667  0.80079  1.0000
  C   C2194     1.0  0.95199  0.54434  0.86011  1.0000
  C   C2195     1.0  0.96274  0.54591  0.84022  1.0000
  C   C2196     1.0  0.96381  0.54891  0.81052  1.0000
  C   C2197     1.0  0.95414  0.55053  0.80024  1.0000
  C   C2198     1.0  0.94334  0.54882  0.82014  1.0000
  C   C2199     1.0  0.94223  0.54566  0.84987  1.0000
  H   H2177     1.0  0.97035  0.54494  0.84782  1.0000
  H   H2178     1.0  0.97218  0.55023  0.79560  1.0000
  H   H2179     1.0  0.93581  0.55011  0.81252  1.0000
  H   H2180     1.0  0.93392  0.54458  0.86481  1.0000
  C   C2200     1.0  0.94914  0.54102  0.56194  1.0000
  C   C2201     1.0  0.95697  0.53701  0.57680  1.0000
  C   C2202     1.0  0.96089  0.54258  0.59695  1.0000
  C   C2203     1.0  0.95717  0.55241  0.60238  1.0000
  C   C2204     1.0  0.94922  0.55630  0.58782  1.0000
  C   C2205     1.0  0.94517  0.55064  0.56801  1.0000
  H   H2181     1.0  0.96013  0.52958  0.57256  1.0000
  H   H2182     1.0  0.96695  0.53938  0.60789  1.0000
  H   H2183     1.0  0.94620  0.56384  0.59181  1.0000
  H   H2184     1.0  0.93902  0.55378  0.55736  1.0000
  C   C2206     1.0  0.84616  0.45515  0.93427  1.0000
  H   H2185     1.0  0.82247  0.49976  0.86793  1.0000
  Fe  Fe376     1.0  0.90248  0.42837  0.97244  1.0000
  H   H2186     1.0  0.82184  0.45009  0.67299  1.0000
  S   S743      1.0  0.81663  0.48853  0.50165  1.0000
  H   H2187     1.0  0.90987  0.40278  0.90015  1.0000
  Fe  Fe377     1.0  0.80565  0.35972  0.93512  1.0000
  S   S744      1.0  0.77793  0.34872  0.69235  1.0000
  C   C2207     1.0  0.88667  0.40582  0.89167  1.0000
  H   H2188     1.0  0.85082  0.37431  0.91458  1.0000
  H   H2189     1.0  0.89680  0.39091  0.91643  1.0000
  S   S745      1.0  0.80272  0.45745  0.56055  1.0000
  S   S746      1.0  0.79090  0.49593  0.96203  1.0000
  H   H2190     1.0  0.81364  0.38191  0.82350  1.0000
  H   H2191     1.0  0.79412  0.48847  0.62777  1.0000
  H   H2192     1.0  0.86131  0.45908  0.50899  1.0000
  H   H2193     1.0  0.79100  0.36609  0.51369  1.0000
  C   C2208     1.0  0.92460  0.48751  0.62382  1.0000
  H   H2194     1.0  0.82818  0.35315  0.48804  1.0000
  H   H2195     1.0  0.76389  0.45943  0.65602  1.0000
  C   C2209     1.0  0.76000  0.48194  0.92630  1.0000
  H   H2196     1.0  0.81643  0.34532  0.51911  1.0000
  H   H2197     1.0  0.81121  0.43565  0.60732  1.0000
  N   N183      1.0  0.88306  0.48424  0.52296  1.0000
  C   C2210     1.0  0.92143  0.50206  0.88636  1.0000
  C   C2211     1.0  0.93008  0.48442  0.57682  1.0000
  C   C2212     1.0  0.75945  0.49042  0.94177  1.0000
  C   C2213     1.0  0.81659  0.44312  0.66662  1.0000
  H   H2198     1.0  0.79344  0.42015  0.62049  1.0000
  N   N184      1.0  0.85575  0.45810  0.94446  1.0000
  H   H2199     1.0  0.82394  0.45105  0.62152  1.0000
  C   C2214     1.0  0.80513  0.46238  0.59046  1.0000
  C   C2215     1.0  0.86041  0.47034  0.94458  1.0000
  C   C2216     1.0  0.93859  0.51038  0.90159  1.0000
  C   C2217     1.0  0.93038  0.48971  0.91676  1.0000
  C   C2218     1.0  0.94683  0.50937  0.91741  1.0000
  C   C2219     1.0  0.93846  0.48839  0.93296  1.0000
  C   C2220     1.0  0.94668  0.49830  0.93341  1.0000
  C   C2221     1.0  0.77094  0.46561  0.63892  1.0000
  N   N185      1.0  0.77897  0.47395  0.64477  1.0000
  H   H2200     1.0  0.92383  0.48198  0.91717  1.0000
  H   H2201     1.0  0.95315  0.51717  0.91767  1.0000
  H   H2202     1.0  0.93809  0.47977  0.94581  1.0000
  H   H2203     1.0  0.95279  0.49745  0.94646  1.0000
  C   C2222     1.0  0.87438  0.50459  0.95871  1.0000
  C   C2223     1.0  0.86507  0.47713  0.51112  1.0000
  N   N186      1.0  0.93047  0.50063  0.90152  1.0000
  H   H2204     1.0  0.78191  0.47191  0.56687  1.0000
  N   N187      1.0  0.79129  0.50144  0.86288  1.0000
  C   C2224     1.0  0.79540  0.50462  0.88465  1.0000
  C   C2225     1.0  0.79835  0.49818  0.84218  1.0000
  C   C2226     1.0  0.80667  0.50411  0.88673  1.0000
  C   C2227     1.0  0.80971  0.49766  0.84347  1.0000
  C   C2228     1.0  0.81383  0.50051  0.86612  1.0000
  C   C2229     1.0  0.77922  0.50127  0.86176  1.0000
  H   H2205     1.0  0.78989  0.50731  0.90103  1.0000
  H   H2206     1.0  0.79508  0.49549  0.82509  1.0000
  H   H2207     1.0  0.80969  0.50626  0.90466  1.0000
  H   H2208     1.0  0.81507  0.49455  0.82767  1.0000
  H   H2209     1.0  0.99458  0.50985  0.65984  1.0000
  H   H2210     1.0  0.77434  0.50382  0.88015  1.0000
  H   H2211     1.0  0.77916  0.50743  0.84178  1.0000
  H   H2212     1.0  0.77435  0.49223  0.86269  1.0000
  C   C2230     1.0  0.96651  0.44889  0.73524  1.0000
  S   S747      1.0  0.91768  0.51710  0.51187  1.0000
  H   H2213     1.0  0.81674  0.37052  0.58143  1.0000
  S   S748      1.0  0.78150  0.37304  0.86737  1.0000
  H   H2214     1.0  0.80225  0.39153  0.79879  1.0000
  Fe  Fe378     1.0  0.99497  0.56628  0.68301  1.0000
  H   H2215     1.0  0.93595  0.50372  0.52428  1.0000
  H   H2216     1.0  0.87616  0.49728  0.95058  1.0000
  C   C2231     1.0  0.81423  0.47211  0.58807  1.0000
  C   C2232     1.0  0.77805  0.47465  0.67431  1.0000
  H   H2217     1.0  0.79517  0.41776  0.69468  1.0000
  H   H2218     1.0  0.75822  0.34870  0.82307  1.0000
  H   H2219     1.0  0.91485  0.50564  0.89871  1.0000
  C   C2233     1.0  0.93914  0.55716  0.71099  1.0000
  H   H2220     1.0  0.91956  0.47079  0.61434  1.0000
  C   C2234     1.0  0.81527  0.39036  0.88398  1.0000
  C   C2235     1.0  0.93820  0.54302  0.68186  1.0000
  S   S749      1.0  0.79890  0.35233  0.90133  1.0000
  H   H2221     1.0  0.79922  0.37432  0.54950  1.0000
  C   C2236     1.0  0.80141  0.42508  0.67860  1.0000
  C   C2237     1.0  0.79476  0.41674  0.64190  1.0000
  H   H2222     1.0  0.92978  0.47851  0.56298  1.0000
  C   C2238     1.0  0.92420  0.48002  0.60581  1.0000
  C   C2239     1.0  0.77182  0.46477  0.61083  1.0000
  H   H2223     1.0  0.77037  0.47067  0.91156  1.0000
  H   H2224     1.0  0.93862  0.53024  0.65703  1.0000
  H   H2225     1.0  0.89416  0.48802  0.93597  1.0000
  H   H2226     1.0  0.87897  0.45546  0.52384  1.0000
  H   H2227     1.0  0.83636  0.38480  0.56123  1.0000
  Fe  Fe379     1.0  0.96503  0.46592  0.64458  1.0000
  C   C2240     1.0  0.79005  0.36262  0.78277  1.0000
  H   H2228     1.0  0.93480  0.56222  0.69698  1.0000
  C   C2241     1.0  0.83642  0.36990  0.50993  1.0000
  H   H2229     1.0  0.93114  0.50519  0.62651  1.0000
  H   H2230     1.0  0.94173  0.45396  0.50756  1.0000
  C   C2242     1.0  0.93774  0.53172  0.67816  1.0000
  C   C2243     1.0  0.88368  0.51274  0.96283  1.0000
  C   C2244     1.0  0.86068  0.44960  0.95593  1.0000
  H   H2231     1.0  0.83663  0.40203  0.96570  1.0000
  S   S750      1.0  0.79260  0.35734  0.75191  1.0000
  H   H2232     1.0  0.89944  0.41749  0.81014  1.0000
  C   C2245     1.0  0.83548  0.37902  0.93469  1.0000
  H   H2233     1.0  0.93639  0.51369  0.69902  1.0000
  C   C2246     1.0  0.78878  0.48138  0.59476  1.0000
  H   H2234     1.0  0.79872  0.40918  0.64151  1.0000
  C   C2247     1.0  0.84046  0.37815  0.52419  1.0000
  C   C2248     1.0  0.81230  0.38673  0.83960  1.0000
  H   H2235     1.0  0.87014  0.47278  0.93838  1.0000
  C   C2249     1.0  0.82105  0.35420  0.50482  1.0000
  H   H2236     1.0  0.76286  0.34207  0.58135  1.0000
  C   C2250     1.0  0.99325  0.48350  0.66698  1.0000
  C   C2251     1.0  0.80402  0.40080  0.85804  1.0000
  H   H2237     1.0  0.75433  0.34079  0.65995  1.0000
  C   C2252     1.0  0.85621  0.43782  0.95674  1.0000
  N   N188      1.0  0.80590  0.39492  0.83736  1.0000
  C   C2253     1.0  0.93652  0.50341  0.58366  1.0000
  H   H2238     1.0  0.76110  0.37076  0.56821  1.0000
  H   H2239     1.0  0.90025  0.49210  0.52567  1.0000
  C   C2254     1.0  0.77637  0.35349  0.54510  1.0000
  C   C2255     1.0  0.88541  0.41664  0.84616  1.0000
  C   C2256     1.0  0.79322  0.36253  0.82980  1.0000
  H   H2240     1.0  0.77322  0.37775  0.81685  1.0000
  H   H2241     1.0  0.75865  0.34802  0.87342  1.0000
  C   C2257     1.0  0.78196  0.36932  0.78749  1.0000
  H   H2242     1.0  0.81996  0.47696  0.56729  1.0000
  Fe  Fe380     1.0  0.75985  0.35136  0.70412  1.0000
  H   H2243     1.0  0.86503  0.39000  0.92411  1.0000
  C   C2258     1.0  0.85582  0.38944  0.93081  1.0000
  C   C2259     1.0  0.84766  0.38040  0.92557  1.0000
  C   C2260     1.0  0.80110  0.39762  0.81263  1.0000
  H   H2244     1.0  0.82191  0.37763  0.86523  1.0000
  H   H2245     1.0  0.85741  0.47885  0.50455  1.0000
  H   H2246     1.0  0.93539  0.51757  0.74672  1.0000
  C   C2261     1.0  0.87711  0.46400  0.52222  1.0000
  S   S751      1.0  0.82568  0.36735  0.92694  1.0000
  C   C2262     1.0  0.93067  0.49931  0.61263  1.0000
  H   H2247     1.0  0.90673  0.39065  0.88429  1.0000
  C   C2263     1.0  0.82239  0.37038  0.56140  1.0000
  H   H2248     1.0  0.92540  0.50822  0.86481  1.0000
  H   H2249     1.0  0.94865  0.56163  0.70495  1.0000
  H   H2250     1.0  0.93653  0.53778  0.75204  1.0000
  C   C2264     1.0  0.78497  0.36902  0.83484  1.0000
  C   C2265     1.0  0.93650  0.53606  0.73138  1.0000
  N   N189      1.0  0.93758  0.54507  0.70821  1.0000
  C   C2266     1.0  0.81703  0.38429  0.86302  1.0000
  C   C2267     1.0  0.90099  0.40708  0.84956  1.0000
  H   H2251     1.0  0.85759  0.47660  0.92920  1.0000
  C   C2268     1.0  0.93657  0.52247  0.70168  1.0000
  Fe  Fe381     1.0  0.78149  0.36502  0.65655  1.0000
  H   H2252     1.0  0.84207  0.46184  0.92572  1.0000
  H   H2253     1.0  0.77161  0.46718  0.85257  1.0000
  H   H2254     1.0  0.98419  0.48152  0.67889  1.0000
  H   H2255     1.0  0.91679  0.49355  0.88358  1.0000
  C   C2269     1.0  0.81861  0.36231  0.54645  1.0000
  C   C2270     1.0  0.98202  0.44268  0.66859  1.0000
  C   C2271     1.0  0.88085  0.41246  0.87568  1.0000
  S   S752      1.0  0.75654  0.45744  0.75112  1.0000
  H   H2256     1.0  0.86017  0.43110  0.96572  1.0000
  C   C2272     1.0  0.80867  0.39863  0.88164  1.0000
  C   C2273     1.0  0.88156  0.52220  0.97364  1.0000
  H   H2257     1.0  0.94995  0.50797  0.53182  1.0000
  H   H2258     1.0  0.87138  0.49475  0.51398  1.0000
  H   H2259     1.0  0.82233  0.38606  0.95666  1.0000
  H   H2260     1.0  0.85722  0.47155  0.96618  1.0000
  H   H2261     1.0  0.94510  0.49361  0.52654  1.0000
  N   N190      1.0  0.89651  0.40307  0.87853  1.0000
  H   H2262     1.0  0.79879  0.40714  0.85643  1.0000
  S   S753      1.0  0.76300  0.36675  0.66651  1.0000
  H   H2263     1.0  0.98242  0.43343  0.67579  1.0000
  S   S754      1.0  0.78758  0.37718  0.68258  1.0000
  Fe  Fe382     1.0  0.76878  0.37758  0.69528  1.0000
  C   C2274     1.0  0.98869  0.45538  0.69811  1.0000
  S   S755      1.0  0.79900  0.46748  0.48534  1.0000
  S   S756      1.0  0.79336  0.37147  0.93809  1.0000
  C   C2275     1.0  0.79136  0.36716  0.55654  1.0000
  H   H2264     1.0  0.77131  0.33706  0.89529  1.0000
  H   H2265     1.0  0.96175  0.43822  0.70761  1.0000
  C   C2276     1.0  0.91132  0.47056  0.48450  1.0000
  C   C2277     1.0  0.77951  0.37259  0.81335  1.0000
  S   S757      1.0  0.98525  0.47071  0.63027  1.0000
  C   C2278     1.0  0.87307  0.48614  0.51617  1.0000
  S   S758      1.0  0.79218  0.36846  0.61073  1.0000
  H   H2266     1.0  0.80542  0.40677  0.79957  1.0000
  H   H2267     1.0  0.90908  0.40535  0.83929  1.0000
  H   H2268     1.0  0.87303  0.41456  0.88636  1.0000
  C   C2279     1.0  0.77083  0.34906  0.57437  1.0000
  C   C2280     1.0  0.83338  0.37838  0.55008  1.0000
  H   H2269     1.0  0.91644  0.46612  0.49627  1.0000
  H   H2270     1.0  0.88332  0.40300  0.91471  1.0000
  H   H2271     1.0  0.83379  0.44119  0.92674  1.0000
  C   C2281     1.0  0.84143  0.44344  0.93480  1.0000
  C   C2282     1.0  0.89158  0.49404  0.52652  1.0000
  C   C2283     1.0  0.84655  0.43474  0.94599  1.0000
  H   H2272     1.0  0.84894  0.38448  0.51485  1.0000
  H   H2273     1.0  0.78691  0.47704  0.67803  1.0000
  Fe  Fe383     1.0  0.78610  0.36331  0.90622  1.0000
  N   N191      1.0  0.82559  0.36217  0.52101  1.0000
  C   C2284     1.0  0.83162  0.38697  0.94915  1.0000
  H   H2274     1.0  0.97373  0.46060  0.75835  1.0000
  C   C2285     1.0  0.78086  0.47267  0.58867  1.0000
  H   H2275     1.0  0.95071  0.56036  0.50694  1.0000
  N   N192      1.0  0.97978  0.44771  0.69311  1.0000
  H   H2276     1.0  0.88118  0.42209  0.83360  1.0000
  C   C2286     1.0  0.97548  0.45688  0.74023  1.0000
  H   H2277     1.0  0.89247  0.51164  0.95788  1.0000
  S   S759      1.0  0.76380  0.36238  0.73395  1.0000
  Fe  Fe384     1.0  0.91190  0.53101  0.97689  1.0000
  H   H2278     1.0  0.76566  0.45793  0.60631  1.0000
  H   H2279     1.0  0.84193  0.36993  0.48960  1.0000
  C   C2287     1.0  0.83981  0.39608  0.95428  1.0000
  S   S760      1.0  0.77213  0.34915  0.94009  1.0000
  H   H2280     1.0  0.99737  0.45816  0.68343  1.0000
  H   H2281     1.0  0.75070  0.35821  0.54249  1.0000
  C   C2288     1.0  0.76362  0.34385  0.83301  1.0000
  H   H2282     1.0  0.77331  0.48133  0.67889  1.0000
  H   H2283     1.0  0.99372  0.46642  0.72509  1.0000
  H   H2284     1.0  0.81485  0.35780  0.49400  1.0000
  C   C2289     1.0  0.76641  0.47250  0.81381  1.0000
  C   C2290     1.0  0.78770  0.48190  0.62311  1.0000
  C   C2291     1.0  0.78672  0.36251  0.53623  1.0000
  C   C2292     1.0  0.76435  0.46716  0.84281  1.0000
  S   S761      1.0  0.76977  0.34802  0.52022  1.0000
  H   H2285     1.0  0.79597  0.48741  0.57772  1.0000
  H   H2286     1.0  0.81882  0.38847  0.90234  1.0000
  C   C2293     1.0  0.75400  0.44314  0.71470  1.0000
  C   C2294     1.0  0.99605  0.47973  0.64207  1.0000
  H   H2287     1.0  0.75218  0.49444  0.94334  1.0000
  C   C2295     1.0  0.98668  0.46011  0.72167  1.0000
  H   H2288     1.0  0.89288  0.47170  0.53231  1.0000
  H   H2289     1.0  0.86815  0.45190  0.96449  1.0000
  H   H2290     1.0  0.90450  0.45704  0.97017  1.0000
  C   C2296     1.0  0.76386  0.34348  0.86119  1.0000
  H   H2291     1.0  0.75183  0.36973  0.61840  1.0000
  H   H2292     1.0  0.99148  0.51843  0.62991  1.0000
  H   H2293     1.0  0.80998  0.35624  0.55519  1.0000
  C   C2297     1.0  0.96883  0.44434  0.71146  1.0000
  H   H2294     1.0  0.75153  0.43199  0.68626  1.0000
  H   H2295     1.0  0.89307  0.50205  0.50889  1.0000
  H   H2296     1.0  0.85185  0.51627  0.98111  1.0000
  S   S762      1.0  0.92529  0.49074  0.48827  1.0000
  H   H2297     1.0  0.86818  0.52369  0.50023  1.0000
  H   H2298     1.0  0.84305  0.42561  0.94650  1.0000
  S   S763      1.0  0.74988  0.47853  0.90593  1.0000
  C   C2298     1.0  0.75240  0.36502  0.57879  1.0000
  H   H2299     1.0  0.75116  0.45773  0.88184  1.0000
  S   S764      1.0  0.82576  0.46621  0.48392  1.0000
  H   H2300     1.0  0.85174  0.51035  0.49025  1.0000
  H   H2301     1.0  0.93842  0.43731  0.48551  1.0000
  H   H2302     1.0  0.76849  0.50123  0.96443  1.0000
  H   H2303     1.0  0.96415  0.54935  0.48731  1.0000
  C   C2299     1.0  0.95359  0.56168  0.48403  1.0000
  S   S765      1.0  0.89331  0.52763  0.48375  1.0000
  C   C2300     1.0  0.77107  0.33746  0.87341  1.0000
  C   C2301     1.0  0.91211  0.48444  0.98007  1.0000
  S   S766      1.0  0.80022  0.46718  0.97864  1.0000
  C   C2302     1.0  0.99874  0.51609  0.63846  1.0000
  C   C2303     1.0  0.94005  0.45533  0.48658  1.0000
  C   C2304     1.0  0.87003  0.52350  0.97964  1.0000
  S   S767      1.0  0.82716  0.46802  0.98073  1.0000
  H   H2304     1.0  0.94036  0.47361  0.48234  1.0000
  S   S768      1.0  0.89281  0.53205  0.98196  1.0000
