data_image0
_chemical_formula_structural       FeSHFeS2FeSFeS3FeS2FeS2FeSFeS3H3C2HC3H2C3H2CH2C6H7C4HCH3C3H3C3HCHSH3CHNCHC2NC2HCHCHNHC2HS2HCH3C2H4C2HSHC2FeHC3NC3H2CH3S3CFeH2SC3HCHCH3FeSH2SFeSFeS2FeSFeSC2FeCS2C2HC7HC3H4SCH2CHCHCNCFeH6CNHC2HC2SH5CHC2SCHC2H2SHC3HCHCFeS2HCFeS3HSCFeCFeCH3CHNC2SHSCH2C2SH2CHCHC2H2CNC2H3CHCHCHCHC2HC2H2FeNHC2FeC3H2CH4CHC2H4C2H3C2HC3H4S2CHC4HCHNCH4C2FeCSFeS2FeS2FeSFeS3FeS2FeSHFeSFeCS2C2H2C3H2C6H4C2H5C2NH2CH2C4N2HC4HCSH2CHCHC2H3C4HCHCHNC3SC2H3CH2CH2CH3CNH2CFeS2FeSNFeSFeS3FeS2FeS2FeSFeS3NC2H2C2H2CNC2H3CHC7H4CHCHC3HCHC3HC3HC2H4C3H2CNC3H5C2H7CHC2H2SH2C2H2C2HNHC2H3C3HC2HCH4CFeS2CHSCNH4C2HSHC2HCH4C3HCHCH2CHSCHCH2NCFeSCFeSCFeS3FeSFeS2FeH2S2C2HC2H2CH3CSCH2C3HC5HC2HCHC3H2CHFeH3NH3C2NC2HCFeH3S3CSHFeSFeC2FeS2FeHFeHS3HSHC3FeCNCSC4HCHC3H3CSH2CH2C3HCHCH4NCH2CH2C2HCHCFeH2SCHCHC3H2NH2C2H2C2NCH4SH2C2NCHCH2CH4CH2CHC3HCHSC2H2C2HFeS2FeS2FeSFeS3FeSHFeS2FeSFeS3H2C4H3C6H8CHC3HC2HCHC4NHC4H3CH2C2H2CH2SH5CH2NC2NH2C6HC2HCH
_chemical_formula_sum              "Fe64 S128 H384 C384 N32"
_cell_length_a       38.6207
_cell_length_b       40.89
_cell_length_c       39.7283
_cell_angle_alpha    89.9382
_cell_angle_beta     89.876
_cell_angle_gamma    89.6199

_space_group_name_H-M_alt    "P 1"
_space_group_IT_number       1

loop_
  _space_group_symop_operation_xyz
  'x, y, z'

loop_
  _atom_site_type_symbol
  _atom_site_label
  _atom_site_symmetry_multiplicity
  _atom_site_fract_x
  _atom_site_fract_y
  _atom_site_fract_z
  _atom_site_occupancy
  Fe  Fe1       1.0  0.18260  0.16058  0.45760  1.0000
  S   S1        1.0  0.22803  0.13154  0.43830  1.0000
  H   H1        1.0  0.34367  0.24423  0.45478  1.0000
  Fe  Fe2       1.0  0.12996  0.12083  0.41682  1.0000
  S   S2        1.0  0.17220  0.08978  0.39364  1.0000
  S   S3        1.0  0.07486  0.10624  0.40255  1.0000
  Fe  Fe3       1.0  0.19381  0.08747  0.44621  1.0000
  S   S4        1.0  0.21229  0.03699  0.46309  1.0000
  Fe  Fe4       1.0  0.20277  0.13594  0.38727  1.0000
  S   S5        1.0  0.23500  0.15700  0.34379  1.0000
  S   S6        1.0  0.15018  0.11612  0.46969  1.0000
  S   S7        1.0  0.15864  0.16739  0.40633  1.0000
  Fe  Fe5       1.0  0.31626  0.15828  0.09893  1.0000
  S   S8        1.0  0.29895  0.10643  0.10858  1.0000
  S   S9        1.0  0.27419  0.19407  0.08097  1.0000
  Fe  Fe6       1.0  0.38614  0.14574  0.13376  1.0000
  S   S10       1.0  0.37218  0.09409  0.14670  1.0000
  S   S11       1.0  0.43817  0.16470  0.15248  1.0000
  Fe  Fe7       1.0  0.35287  0.09133  0.09337  1.0000
  S   S12       1.0  0.37530  0.04873  0.06289  1.0000
  Fe  Fe8       1.0  0.31966  0.11367  0.16113  1.0000
  S   S13       1.0  0.28824  0.09306  0.20543  1.0000
  S   S14       1.0  0.36904  0.14272  0.07976  1.0000
  S   S15       1.0  0.33477  0.16580  0.15227  1.0000
  H   H2        1.0  0.47240  0.04005  0.07105  1.0000
  H   H3        1.0  0.42891  0.06039  0.11175  1.0000
  H   H4        1.0  0.25765  0.18585  0.49593  1.0000
  C   C1        1.0  0.27603  0.21283  0.41090  1.0000
  C   C2        1.0  0.21577  0.15168  0.12449  1.0000
  H   H5        1.0  0.31713  0.20532  0.02078  1.0000
  C   C3        1.0  0.47832  0.15526  0.13304  1.0000
  C   C4        1.0  0.48002  0.14075  0.10124  1.0000
  C   C5        1.0  0.04814  0.07480  0.48223  1.0000
  H   H6        1.0  0.45635  0.13533  0.08786  1.0000
  H   H7        1.0  0.26518  0.31883  0.01734  1.0000
  C   C6        1.0  0.29364  0.21973  0.01863  1.0000
  C   C7        1.0  0.26876  0.21844  0.04422  1.0000
  C   C8        1.0  0.29334  0.26662  0.44972  1.0000
  H   H8        1.0  0.20707  0.08680  0.07186  1.0000
  H   H9        1.0  0.44808  0.08447  0.16612  1.0000
  C   C9        1.0  0.23834  0.23735  0.04094  1.0000
  H   H10       1.0  0.29953  0.28730  0.46573  1.0000
  H   H11       1.0  0.05733  0.06137  0.45951  1.0000
  C   C10       1.0  0.25013  0.13834  0.30584  1.0000
  C   C11       1.0  0.27105  0.15661  0.28373  1.0000
  C   C12       1.0  0.28347  0.14307  0.25326  1.0000
  C   C13       1.0  0.27495  0.11100  0.24436  1.0000
  C   C14       1.0  0.25402  0.09274  0.26645  1.0000
  C   C15       1.0  0.24173  0.10624  0.29700  1.0000
  H   H12       1.0  0.27782  0.18143  0.29025  1.0000
  H   H13       1.0  0.29963  0.15745  0.23670  1.0000
  H   H14       1.0  0.24725  0.06791  0.25993  1.0000
  H   H15       1.0  0.22573  0.09180  0.31366  1.0000
  H   H16       1.0  0.21817  0.17809  0.12357  1.0000
  H   H17       1.0  0.24064  0.28180  0.44189  1.0000
  H   H18       1.0  0.25413  0.15866  0.18663  1.0000
  C   C16       1.0  0.48081  0.04992  0.09501  1.0000
  C   C17       1.0  0.03550  0.12537  0.41435  1.0000
  C   C18       1.0  0.03440  0.15625  0.42940  1.0000
  C   C19       1.0  0.31808  0.24229  0.44373  1.0000
  H   H19       1.0  0.05828  0.16906  0.43444  1.0000
  C   C20       1.0  0.21702  0.23433  0.40286  1.0000
  H   H20       1.0  0.26946  0.19154  0.39597  1.0000
  H   H21       1.0  0.19850  0.22838  0.42336  1.0000
  H   H22       1.0  0.20897  0.25766  0.39080  1.0000
  C   C21       1.0  0.21231  0.08401  0.12585  1.0000
  C   C22       1.0  0.21696  0.10199  0.15543  1.0000
  C   C23       1.0  0.45624  0.06138  0.11795  1.0000
  H   H23       1.0  0.21811  0.14013  0.20810  1.0000
  H   H24       1.0  0.22025  0.08899  0.17906  1.0000
  H   H25       1.0  0.21207  0.05749  0.12667  1.0000
  C   C24       1.0  0.26012  0.26337  0.43620  1.0000
  C   C25       1.0  0.35259  0.01872  0.03949  1.0000
  C   C26       1.0  0.21126  0.13451  0.09440  1.0000
  H   H26       1.0  0.01316  0.16652  0.35129  1.0000
  C   C27       1.0  0.20953  0.10044  0.09514  1.0000
  H   H27       1.0  0.21891  0.23655  0.06056  1.0000
  S   S16       1.0  0.18490  0.20610  0.49095  1.0000
  H   H28       1.0  0.21172  0.17763  0.18539  1.0000
  H   H29       1.0  0.05944  0.09970  0.48035  1.0000
  H   H30       1.0  0.32827  0.19586  0.41971  1.0000
  C   C28       1.0  0.30941  0.21515  0.42428  1.0000
  H   H31       1.0  0.21542  0.21490  0.38332  1.0000
  N   N1        1.0  0.25203  0.23698  0.41665  1.0000
  C   C29       1.0  0.23278  0.25736  0.01248  1.0000
  H   H32       1.0  0.21055  0.14763  0.07062  1.0000
  C   C30       1.0  0.31649  0.01912  0.03648  1.0000
  C   C31       1.0  0.22586  0.15390  0.18517  1.0000
  N   N2        1.0  0.21852  0.13541  0.15446  1.0000
  C   C32       1.0  0.19645  0.01682  0.49940  1.0000
  C   C33       1.0  0.46700  0.07458  0.14853  1.0000
  H   H33       1.0  0.30157  0.03815  0.04876  1.0000
  C   C34       1.0  0.50239  0.07605  0.15578  1.0000
  H   H34       1.0  0.20928  0.27175  0.01034  1.0000
  C   C35       1.0  0.50934  0.16224  0.15005  1.0000
  H   H35       1.0  0.50820  0.17353  0.17467  1.0000
  N   N3        1.0  0.01017  0.07606  0.48342  1.0000
  H   H36       1.0  0.05845  0.06253  0.50508  1.0000
  C   C36       1.0  0.22252  0.22562  0.50638  1.0000
  C   C37       1.0  0.25497  0.21025  0.50618  1.0000
  H   H37       1.0  0.24588  0.29799  0.54325  1.0000
  S   S17       1.0  0.31852  0.27742  0.54889  1.0000
  S   S18       1.0  0.28373  0.33105  0.70016  1.0000
  H   H38       1.0  0.48122  0.31922  0.67646  1.0000
  C   C38       1.0  0.04222  0.33256  0.91267  1.0000
  H   H39       1.0  0.31145  0.21471  0.59268  1.0000
  H   H40       1.0  0.22970  0.30384  0.65746  1.0000
  H   H41       1.0  0.25854  0.30334  0.76193  1.0000
  C   C39       1.0  0.21950  0.25730  0.51992  1.0000
  C   C40       1.0  0.23384  0.28243  0.64173  1.0000
  H   H42       1.0  0.17886  0.03054  0.58229  1.0000
  H   H43       1.0  0.44842  0.32165  0.60093  1.0000
  H   H44       1.0  0.18945  0.06051  0.52882  1.0000
  H   H45       1.0  0.50588  0.29474  0.59333  1.0000
  C   C41       1.0  0.20655  0.26906  0.62350  1.0000
  C   C42       1.0  0.25773  0.25876  0.98695  1.0000
  H   H46       1.0  0.31113  0.20956  0.63812  1.0000
  S   S19       1.0  0.18297  0.31835  0.88755  1.0000
  H   H47       1.0  0.32739  0.24654  0.61865  1.0000
  C   C43       1.0  0.24857  0.27357  0.53304  1.0000
  C   C44       1.0  0.28098  0.25813  0.53300  1.0000
  Fe  Fe9       1.0  0.20998  0.32129  0.93782  1.0000
  H   H48       1.0  0.30897  0.21426  0.51939  1.0000
  C   C45       1.0  0.18317  0.01700  0.55925  1.0000
  C   C46       1.0  0.27533  0.00623  0.53030  1.0000
  C   C47       1.0  0.18898  0.03405  0.52895  1.0000
  N   N4        1.0  0.27251  0.24171  0.61916  1.0000
  C   C48       1.0  0.24570  0.22785  0.60193  1.0000
  C   C49       1.0  0.26682  0.26826  0.63936  1.0000
  C   C50       1.0  0.21239  0.24145  0.60360  1.0000
  H   H49       1.0  0.30761  0.24074  0.97062  1.0000
  H   H50       1.0  0.18099  0.28016  0.62473  1.0000
  C   C51       1.0  0.30728  0.22722  0.61721  1.0000
  H   H51       1.0  0.25012  0.20673  0.58594  1.0000
  H   H52       1.0  0.28791  0.27885  0.65357  1.0000
  H   H53       1.0  0.19149  0.23101  0.58895  1.0000
  S   S20       1.0  0.16127  0.33483  0.96568  1.0000
  S   S21       1.0  0.25317  0.28506  0.95152  1.0000
  S   S22       1.0  0.35066  0.32155  0.62880  1.0000
  C   C52       1.0  0.28398  0.22638  0.51961  1.0000
  Fe  Fe10      1.0  0.32085  0.32441  0.58008  1.0000
  H   H54       1.0  0.31487  0.31986  0.98263  1.0000
  H   H55       1.0  0.27427  0.03261  0.52729  1.0000
  S   S23       1.0  0.08283  0.31458  0.90198  1.0000
  C   C53       1.0  0.28813  0.23984  0.99021  1.0000
  C   C54       1.0  0.50447  0.32074  0.59822  1.0000
  C   C55       1.0  0.50514  0.33169  0.68248  1.0000
  H   H56       1.0  0.01306  0.29581  0.88637  1.0000
  C   C56       1.0  0.25468  0.32951  0.76369  1.0000
  H   H57       1.0  0.19447  0.26937  0.52023  1.0000
  C   C57       1.0  0.01153  0.31802  0.90110  1.0000
  H   H58       1.0  0.26366  0.00726  0.58340  1.0000
  H   H59       1.0  0.23215  0.32701  0.81365  1.0000
  H   H60       1.0  0.12933  0.31992  0.82721  1.0000
  Fe  Fe11      1.0  0.37309  0.64408  0.41984  1.0000
  S   S24       1.0  0.35143  0.60247  0.38948  1.0000
  H   H61       1.0  0.28355  0.54855  0.30543  1.0000
  H   H62       1.0  0.31216  0.52095  0.32702  1.0000
  S   S25       1.0  0.28189  0.60901  0.43625  1.0000
  Fe  Fe12      1.0  0.33321  0.58335  0.43980  1.0000
  S   S26       1.0  0.34316  0.52928  0.45022  1.0000
  Fe  Fe13      1.0  0.30173  0.63152  0.38812  1.0000
  S   S27       1.0  0.26100  0.63791  0.34647  1.0000
  S   S28       1.0  0.35788  0.62322  0.47016  1.0000
  Fe  Fe14      1.0  0.21665  0.61704  0.14739  1.0000
  S   S29       1.0  0.25679  0.60662  0.18868  1.0000
  Fe  Fe15      1.0  0.20166  0.59705  0.07365  1.0000
  S   S30       1.0  0.16124  0.63650  0.06701  1.0000
  C   C58       1.0  0.20405  0.52511  0.02124  1.0000
  C   C59       1.0  0.25982  0.52511  0.41434  1.0000
  Fe  Fe16      1.0  0.14264  0.62126  0.11835  1.0000
  C   C60       1.0  0.28217  0.52606  0.38660  1.0000
  S   S31       1.0  0.24028  0.63091  0.09742  1.0000
  S   S32       1.0  0.18148  0.57984  0.12349  1.0000
  C   C61       1.0  0.04633  0.62337  0.12131  1.0000
  C   C62       1.0  0.22813  0.54159  0.41287  1.0000
  H   H63       1.0  0.04948  0.58863  0.06360  1.0000
  C   C63       1.0  0.06940  0.59266  0.04483  1.0000
  C   C64       1.0  0.26087  0.62987  0.30241  1.0000
  C   C65       1.0  0.28993  0.61768  0.28539  1.0000
  C   C66       1.0  0.12198  0.57665  0.01841  1.0000
  C   C67       1.0  0.25711  0.61533  0.23256  1.0000
  C   C68       1.0  0.22823  0.62806  0.24944  1.0000
  C   C69       1.0  0.23010  0.63511  0.28418  1.0000
  H   H64       1.0  0.20438  0.63228  0.23579  1.0000
  C   C70       1.0  0.29721  0.54412  0.32965  1.0000
  C   C71       1.0  0.46672  0.64791  0.41559  1.0000
  C   C72       1.0  0.46972  0.61574  0.42734  1.0000
  H   H65       1.0  0.31556  0.56449  0.33393  1.0000
  H   H66       1.0  0.44661  0.60187  0.43269  1.0000
  H   H67       1.0  0.30129  0.65454  0.14329  1.0000
  H   H68       1.0  0.31969  0.65036  0.18399  1.0000
  S   S33       1.0  0.08729  0.60545  0.13080  1.0000
  C   C73       1.0  0.17350  0.47591  0.03801  1.0000
  H   H69       1.0  0.21102  0.54172  0.43457  1.0000
  H   H70       1.0  0.22218  0.34756  0.05286  1.0000
  C   C74       1.0  0.21902  0.55852  0.38366  1.0000
  H   H71       1.0  0.20742  0.64457  0.29703  1.0000
  C   C75       1.0  0.49712  0.66554  0.40865  1.0000
  H   H72       1.0  0.19486  0.57216  0.38240  1.0000
  C   C76       1.0  0.32521  0.50615  0.48357  1.0000
  N   N5        1.0  0.27282  0.54233  0.35789  1.0000
  C   C77       1.0  0.33767  0.47426  0.48921  1.0000
  Fe  Fe17      1.0  0.30759  0.65091  0.46312  1.0000
  H   H73       1.0  0.30727  0.51408  0.38841  1.0000
  H   H74       1.0  0.31397  0.61407  0.29885  1.0000
  H   H75       1.0  0.23467  0.57218  0.33379  1.0000
  H   H76       1.0  0.15863  0.46271  0.05665  1.0000
  H   H77       1.0  0.26752  0.51234  0.43712  1.0000
  H   H78       1.0  0.17901  0.51891  0.06921  1.0000
  C   C78       1.0  0.28793  0.61016  0.25078  1.0000
  N   N6        1.0  0.09669  0.57135  0.04189  1.0000
  H   H79       1.0  0.10908  0.52142  0.05198  1.0000
  C   C79       1.0  0.18495  0.50777  0.04519  1.0000
  C   C80       1.0  0.04302  0.65236  0.10280  1.0000
  H   H80       1.0  0.31053  0.60055  0.23793  1.0000
  C   C81       1.0  0.50273  0.60144  0.43197  1.0000
  C   C82       1.0  0.10022  0.54384  0.06535  1.0000
  S   S34       1.0  0.17666  0.65723  0.14585  1.0000
  H   H81       1.0  0.28920  0.54317  0.50029  1.0000
  H   H82       1.0  0.01837  0.58417  0.14515  1.0000
  H   H83       1.0  0.11934  0.55013  0.08515  1.0000
  H   H84       1.0  0.35784  0.46438  0.47316  1.0000
  H   H85       1.0  0.50470  0.57652  0.44090  1.0000
  C   C83       1.0  0.24175  0.55852  0.35620  1.0000
  H   H86       1.0  0.07534  0.53828  0.07817  1.0000
  C   C84       1.0  0.23974  0.36141  0.03706  1.0000
  C   C85       1.0  0.01613  0.60665  0.13090  1.0000
  S   S35       1.0  0.21691  0.56606  0.02824  1.0000
  C   C86       1.0  0.06722  0.62042  0.02431  1.0000
  H   H87       1.0  0.04593  0.63763  0.02745  1.0000
  C   C87       1.0  0.26397  0.34527  0.01671  1.0000
  C   C88       1.0  0.29905  0.51865  0.50439  1.0000
  H   H88       1.0  0.14378  0.56003  0.01630  1.0000
  H   H89       1.0  0.06598  0.66548  0.09516  1.0000
  S   S36       1.0  0.42571  0.66698  0.40902  1.0000
  H   H90       1.0  0.21856  0.40829  0.05137  1.0000
  C   C89       1.0  0.23774  0.39546  0.03623  1.0000
  C   C90       1.0  0.18110  0.46102  0.00695  1.0000
  C   C91       1.0  0.00985  0.66435  0.09403  1.0000
  H   H91       1.0  0.25722  0.43936  0.01324  1.0000
  C   C92       1.0  0.25948  0.41292  0.01476  1.0000
  H   H92       1.0  0.39575  0.54623  0.50120  1.0000
  C   C93       1.0  0.21198  0.51009  0.99031  1.0000
  Fe  Fe18      1.0  0.37493  0.36910  0.61321  1.0000
  S   S37       1.0  0.33345  0.39893  0.63933  1.0000
  S   S38       1.0  0.42980  0.38916  0.61887  1.0000
  H   H93       1.0  0.49910  0.41348  0.61683  1.0000
  C   C94       1.0  0.24476  0.39682  0.76893  1.0000
  Fe  Fe19      1.0  0.30607  0.39719  0.58941  1.0000
  S   S39       1.0  0.28132  0.44441  0.57045  1.0000
  S   S40       1.0  0.34862  0.36992  0.56276  1.0000
  S   S41       1.0  0.22636  0.37367  0.93016  1.0000
  H   H94       1.0  0.35891  0.56128  0.52332  1.0000
  S   S42       1.0  0.14695  0.38948  0.90561  1.0000
  C   C95       1.0  0.05785  0.38795  0.84790  1.0000
  Fe  Fe20      1.0  0.19657  0.37120  0.88142  1.0000
  C   C96       1.0  0.38193  0.46320  0.58470  1.0000
  Fe  Fe21      1.0  0.17575  0.38723  0.95475  1.0000
  C   C97       1.0  0.20060  0.47816  0.98315  1.0000
  H   H95       1.0  0.34079  0.53622  0.57622  1.0000
  H   H96       1.0  0.24104  0.42300  0.77076  1.0000
  H   H97       1.0  0.33443  0.43065  0.51981  1.0000
  C   C98       1.0  0.35966  0.51696  0.57156  1.0000
  H   H98       1.0  0.03267  0.38247  0.85866  1.0000
  N   N7        1.0  0.38366  0.52013  0.54639  1.0000
  C   C99       1.0  0.38521  0.55059  0.52691  1.0000
  C   C100      1.0  0.29818  0.46742  0.53641  1.0000
  S   S43       1.0  0.21519  0.39499  0.83231  1.0000
  H   H99       1.0  0.06939  0.33780  0.83638  1.0000
  S   S44       1.0  0.27594  0.35171  0.60294  1.0000
  C   C101      1.0  0.46973  0.36939  0.60957  1.0000
  H   H100      1.0  0.33501  0.35809  0.97244  1.0000
  H   H101      1.0  0.14144  0.60853  0.97955  1.0000
  C   C102      1.0  0.10256  0.42650  0.83364  1.0000
  C   C103      1.0  0.23461  0.37670  0.79598  1.0000
  S   S45       1.0  0.16588  0.42092  0.99952  1.0000
  H   H102      1.0  0.16120  0.34835  0.81339  1.0000
  H   H103      1.0  0.06321  0.37279  0.94069  1.0000
  C   C104      1.0  0.35829  0.48839  0.59094  1.0000
  H   H104      1.0  0.40173  0.56870  0.53996  1.0000
  C   C105      1.0  0.28542  0.49922  0.53052  1.0000
  H   H105      1.0  0.48018  0.37838  0.68991  1.0000
  C   C106      1.0  0.25995  0.38345  0.73953  1.0000
  C   C107      1.0  0.40714  0.49559  0.54028  1.0000
  H   H106      1.0  0.12723  0.33643  0.78482  1.0000
  H   H107      1.0  0.26511  0.50897  0.54651  1.0000
  C   C108      1.0  0.07884  0.36272  0.83539  1.0000
  N   N8        1.0  0.11130  0.36913  0.82332  1.0000
  C   C109      1.0  0.30980  0.34527  0.97374  1.0000
  C   C110      1.0  0.50458  0.36497  0.69005  1.0000
  H   H108      1.0  0.22669  0.52339  0.97161  1.0000
  H   H109      1.0  0.14812  0.40590  0.81081  1.0000
  H   H110      1.0  0.11242  0.45128  0.83306  1.0000
  C   C111      1.0  0.50047  0.38758  0.61141  1.0000
  H   H111      1.0  0.20662  0.46696  0.95916  1.0000
  C   C112      1.0  0.40659  0.46674  0.55931  1.0000
  H   H112      1.0  0.26769  0.39933  0.71910  1.0000
  C   C113      1.0  0.32444  0.45506  0.51564  1.0000
  H   H113      1.0  0.42615  0.49809  0.52034  1.0000
  C   C114      1.0  0.12064  0.60408  0.99738  1.0000
  H   H114      1.0  0.38097  0.44079  0.59929  1.0000
  C   C115      1.0  0.07001  0.41999  0.84734  1.0000
  C   C116      1.0  0.12283  0.40064  0.82133  1.0000
  H   H115      1.0  0.33833  0.48534  0.60997  1.0000
  C   C117      1.0  0.03985  0.36130  0.93163  1.0000
  C   C118      1.0  0.26506  0.34964  0.73671  1.0000
  H   H116      1.0  0.05427  0.43965  0.85764  1.0000
  H   H117      1.0  0.42489  0.44703  0.55437  1.0000
  Fe  Fe22      1.0  0.13529  0.33661  0.91503  1.0000
  N   N9        1.0  0.28551  0.36256  0.99600  1.0000
  H   H118      1.0  0.29935  0.40961  0.97719  1.0000
  C   C119      1.0  0.28322  0.39595  0.99451  1.0000
  C   C120      1.0  0.09315  0.62621  0.00055  1.0000
  Fe  Fe23      1.0  0.30686  0.35152  0.65112  1.0000
  C   C121      1.0  0.23964  0.34288  0.79312  1.0000
  C   C122      1.0  0.47184  0.33594  0.60247  1.0000
  C   C123      1.0  0.13326  0.34213  0.81144  1.0000
  H   H119      1.0  0.29860  0.34354  0.94804  1.0000
  H   H120      1.0  0.09224  0.64803  0.98501  1.0000
  C   C124      1.0  0.25801  0.70287  0.15846  1.0000
  H   H121      1.0  0.49507  0.69042  0.39957  1.0000
  H   H122      1.0  0.38295  0.77993  0.03877  1.0000
  H   H123      1.0  0.21177  0.73254  0.15420  1.0000
  H   H124      1.0  0.35004  0.75055  0.02878  1.0000
  C   C125      1.0  0.27678  0.69019  0.21385  1.0000
  H   H125      1.0  0.33098  0.68549  0.15837  1.0000
  C   C126      1.0  0.23741  0.73548  0.04739  1.0000
  C   C127      1.0  0.24537  0.76890  0.04422  1.0000
  H   H126      1.0  0.18973  0.68376  0.49405  1.0000
  H   H127      1.0  0.26129  0.70104  0.13139  1.0000
  H   H128      1.0  0.22982  0.76862  0.44423  1.0000
  H   H129      1.0  0.23603  0.78597  0.06300  1.0000
  C   C128      1.0  0.22996  0.72081  0.17126  1.0000
  C   C129      1.0  0.24961  0.71373  0.02286  1.0000
  H   H130      1.0  0.22533  0.70816  0.44872  1.0000
  H   H131      1.0  0.30458  0.73388  0.48030  1.0000
  H   H132      1.0  0.29485  0.67818  0.23076  1.0000
  C   C130      1.0  0.24877  0.70754  0.22752  1.0000
  C   C131      1.0  0.29969  0.99482  0.01744  1.0000
  H   H133      1.0  0.20185  0.96894  0.47731  1.0000
  C   C132      1.0  0.26494  0.78056  0.01669  1.0000
  C   C133      1.0  0.22514  0.72281  0.20600  1.0000
  C   C134      1.0  0.19610  0.98243  0.50008  1.0000
  H   H134      1.0  0.27051  0.80637  0.01445  1.0000
  H   H135      1.0  0.20305  0.73605  0.21617  1.0000
  H   H136      1.0  0.24519  0.70861  0.25461  1.0000
  H   H137      1.0  0.19903  0.80387  0.48537  1.0000
  S   S46       1.0  0.32436  0.67501  0.41498  1.0000
  S   S47       1.0  0.21205  0.72214  0.08220  1.0000
  C   C135      1.0  0.28868  0.73941  0.50206  1.0000
  H   H138      1.0  0.28194  0.93701  0.48383  1.0000
  C   C136      1.0  0.19037  0.71013  0.49101  1.0000
  C   C137      1.0  0.21045  0.72386  0.46551  1.0000
  C   C138      1.0  0.19549  0.77757  0.48634  1.0000
  C   C139      1.0  0.37158  0.99377  0.02331  1.0000
  H   H139      1.0  0.24367  0.68797  0.02487  1.0000
  C   C140      1.0  0.21303  0.75780  0.46306  1.0000
  H   H140      1.0  0.27178  0.99534  0.01525  1.0000
  N   N10       1.0  0.28062  0.68740  0.17971  1.0000
  C   C141      1.0  0.36496  0.77163  0.01881  1.0000
  H   H141      1.0  0.29466  0.79169  0.49741  1.0000
  H   H142      1.0  0.28319  0.99724  0.47745  1.0000
  H   H143      1.0  0.34610  0.79156  0.01326  1.0000
  H   H144      1.0  0.39948  0.99322  0.02551  1.0000
  C   C142      1.0  0.28036  0.98629  0.50222  1.0000
  C   C143      1.0  0.27927  0.95228  0.50599  1.0000
  Fe  Fe24      1.0  0.19866  0.66907  0.09435  1.0000
  C   C144      1.0  0.30978  0.66873  0.16566  1.0000
  S   S48       1.0  0.27616  0.67251  0.50679  1.0000
  Fe  Fe25      1.0  0.18398  0.90754  0.60743  1.0000
  S   S49       1.0  0.17004  0.86954  0.56923  1.0000
  S   S50       1.0  0.18271  0.96264  0.59977  1.0000
  Fe  Fe26      1.0  0.19823  0.85699  0.66322  1.0000
  S   S51       1.0  0.18561  0.81494  0.62847  1.0000
  S   S52       1.0  0.20378  0.84791  0.72008  1.0000
  Fe  Fe27      1.0  0.21617  0.84168  0.58911  1.0000
  S   S53       1.0  0.25268  0.82164  0.54873  1.0000
  Fe  Fe28      1.0  0.14030  0.84563  0.61118  1.0000
  S   S54       1.0  0.08960  0.81876  0.60263  1.0000
  S   S55       1.0  0.23244  0.88174  0.62493  1.0000
  S   S56       1.0  0.15063  0.88569  0.64817  1.0000
  Fe  Fe29      1.0  0.39020  0.86035  0.93530  1.0000
  S   S57       1.0  0.36351  0.90344  0.91100  1.0000
  S   S58       1.0  0.44610  0.86109  0.95468  1.0000
  Fe  Fe30      1.0  0.32162  0.82268  0.94290  1.0000
  S   S59       1.0  0.29022  0.86316  0.91919  1.0000
  H   H145      1.0  0.17831  0.79284  0.55496  1.0000
  Fe  Fe31      1.0  0.33307  0.86635  0.88100  1.0000
  S   S60       1.0  0.32685  0.87609  0.82432  1.0000
  Fe  Fe32      1.0  0.32280  0.89713  0.95081  1.0000
  C   C145      1.0  0.07550  0.87254  0.71499  1.0000
  S   S61       1.0  0.36312  0.82363  0.90261  1.0000
  S   S62       1.0  0.35083  0.85625  0.97721  1.0000
  C   C146      1.0  0.10157  0.84894  0.71075  1.0000
  C   C147      1.0  0.25789  0.93834  0.89628  1.0000
  H   H146      1.0  0.21681  0.91028  0.87414  1.0000
  H   H147      1.0  0.28203  0.89413  0.56417  1.0000
  C   C148      1.0  0.48627  0.85122  0.93516  1.0000
  C   C149      1.0  0.17299  0.73063  0.51375  1.0000
  C   C150      1.0  0.29404  0.95179  0.79624  1.0000
  H   H148      1.0  0.12187  0.78639  0.66477  1.0000
  H   H149      1.0  0.46569  0.84160  0.88588  1.0000
  C   C151      1.0  0.23893  0.85485  0.74834  1.0000
  C   C152      1.0  0.23501  0.84656  0.78259  1.0000
  C   C153      1.0  0.26185  0.85203  0.80604  1.0000
  C   C154      1.0  0.29305  0.86603  0.79556  1.0000
  C   C155      1.0  0.29704  0.87412  0.76129  1.0000
  C   C156      1.0  0.27021  0.86866  0.73784  1.0000
  H   H150      1.0  0.21106  0.83570  0.79105  1.0000
  H   H151      1.0  0.25831  0.84555  0.83223  1.0000
  H   H152      1.0  0.32108  0.88477  0.75277  1.0000
  H   H153      1.0  0.27380  0.87504  0.71164  1.0000
  C   C157      1.0  0.26169  0.77989  0.53955  1.0000
  C   C158      1.0  0.29976  0.95960  0.85695  1.0000
  H   H154      1.0  0.12778  0.85463  0.71859  1.0000
  H   H155      1.0  0.27777  0.70838  0.97617  1.0000
  H   H156      1.0  0.23094  0.75986  0.57973  1.0000
  H   H157      1.0  0.15842  0.71972  0.53417  1.0000
  H   H158      1.0  0.24898  0.93478  0.92198  1.0000
  C   C159      1.0  0.04814  0.83740  0.60716  1.0000
  C   C160      1.0  0.04434  0.86985  0.61772  1.0000
  N   N11       1.0  0.27366  0.93855  0.53696  1.0000
  H   H159      1.0  0.06705  0.88465  0.62187  1.0000
  H   H160      1.0  0.36974  0.95037  0.99218  1.0000
  C   C161      1.0  0.03446  0.83511  0.69084  1.0000
  H   H161      1.0  0.02088  0.79344  0.59376  1.0000
  H   H162      1.0  0.35210  0.72187  0.97711  1.0000
  C   C162      1.0  0.18436  0.98264  0.56022  1.0000
  C   C163      1.0  0.18985  0.96537  0.53030  1.0000
  C   C164      1.0  0.41776  0.74882  0.92783  1.0000
  C   C165      1.0  0.27659  0.75886  0.99186  1.0000
  N   N12       1.0  0.38392  0.76299  0.98801  1.0000
  N   N13       1.0  0.28146  0.94676  0.83070  1.0000
  H   H163      1.0  0.13727  0.77270  0.54943  1.0000
  C   C166      1.0  0.04176  0.86553  0.70487  1.0000
  C   C167      1.0  0.26899  0.72540  0.99525  1.0000
  C   C168      1.0  0.37399  0.73658  0.96930  1.0000
  C   C169      1.0  0.15884  0.78515  0.53609  1.0000
  H   H164      1.0  0.32367  0.97262  0.85238  1.0000
  C   C170      1.0  0.39059  0.72921  0.93888  1.0000
  S   S63       1.0  0.30108  0.77197  0.95639  1.0000
  H   H165      1.0  0.26203  0.94715  0.58877  1.0000
  H   H166      1.0  0.24092  0.70210  0.56262  1.0000
  C   C171      1.0  0.12171  0.79494  0.69134  1.0000
  H   H167      1.0  0.14782  0.80499  0.69677  1.0000
  C   C172      1.0  0.31871  0.96984  0.00135  1.0000
  H   H168      1.0  0.44864  0.79121  0.93855  1.0000
  C   C173      1.0  0.27040  0.90300  0.54024  1.0000
  C   C174      1.0  0.01105  0.88297  0.62383  1.0000
  H   H169      1.0  0.38182  0.70888  0.92367  1.0000
  H   H170      1.0  0.19056  0.93894  0.53066  1.0000
  H   H171      1.0  0.11742  0.77378  0.70833  1.0000
  C   C175      1.0  0.48885  0.84296  0.90109  1.0000
  C   C176      1.0  0.01826  0.81857  0.60193  1.0000
  C   C177      1.0  0.27325  0.71394  0.52008  1.0000
  C   C178      1.0  0.25278  0.72164  0.54838  1.0000
  H   H172      1.0  0.23788  0.91834  0.81588  1.0000
  C   C179      1.0  0.23978  0.92472  0.86945  1.0000
  H   H173      1.0  0.29565  0.97831  0.79056  1.0000
  C   C180      1.0  0.25191  0.92932  0.83658  1.0000
  H   H174      1.0  0.27682  0.94029  0.77730  1.0000
  N   N14       1.0  0.09430  0.81946  0.69619  1.0000
  C   C181      1.0  0.42785  0.77555  0.94714  1.0000
  C   C182      1.0  0.24697  0.75439  0.55808  1.0000
  C   C183      1.0  0.28813  0.95582  0.89007  1.0000
  S   S64       1.0  0.29642  0.93994  0.97743  1.0000
  C   C184      1.0  0.41030  0.78257  0.97715  1.0000
  C   C185      1.0  0.06126  0.81233  0.68639  1.0000
  H   H175      1.0  0.43061  0.74370  0.90408  1.0000
  H   H176      1.0  0.30274  0.96592  0.91090  1.0000
  H   H177      1.0  0.08159  0.89624  0.72559  1.0000
  C   C186      1.0  0.26940  0.99203  0.56172  1.0000
  H   H178      1.0  0.47637  0.93228  0.96261  1.0000
  H   H179      1.0  0.32011  0.94039  0.79334  1.0000
  C   C187      1.0  0.26844  0.95794  0.56458  1.0000
  H   H180      1.0  0.24262  0.89610  0.53991  1.0000
  H   H181      1.0  0.05569  0.78932  0.67401  1.0000
  C   C188      1.0  0.35479  0.96944  0.00438  1.0000
  H   H182      1.0  0.14768  0.80737  0.52404  1.0000
  H   H183      1.0  0.49538  0.92229  0.90417  1.0000
  H   H184      1.0  0.41759  0.80408  0.99141  1.0000
  C   C189      1.0  0.50381  0.93237  0.95645  1.0000
  N   N15       1.0  0.17545  0.76391  0.51100  1.0000
  H   H185      1.0  0.28387  0.88974  0.51954  1.0000
  H   H186      1.0  0.02137  0.88380  0.70719  1.0000
  C   C190      1.0  0.28294  0.77219  0.51181  1.0000
  Fe  Fe33      1.0  0.87946  0.14895  0.43380  1.0000
  S   S65       1.0  0.87203  0.10687  0.39891  1.0000
  S   S66       1.0  0.93124  0.17435  0.43983  1.0000
  Fe  Fe34      1.0  0.80334  0.14883  0.45592  1.0000
  S   S67       1.0  0.79079  0.10565  0.42242  1.0000
  N   N16       1.0  0.81396  0.18397  0.04146  1.0000
  Fe  Fe35      1.0  0.84143  0.08457  0.44153  1.0000
  S   S68       1.0  0.85971  0.03343  0.45674  1.0000
  Fe  Fe36      1.0  0.82242  0.13166  0.38287  1.0000
  S   S69       1.0  0.81455  0.14397  0.32693  1.0000
  S   S70       1.0  0.85162  0.12585  0.47735  1.0000
  S   S71       1.0  0.83200  0.17581  0.41547  1.0000
  Fe  Fe37      1.0  0.69383  0.12428  0.15932  1.0000
  S   S72       1.0  0.66360  0.16772  0.13950  1.0000
  S   S73       1.0  0.69844  0.11298  0.21589  1.0000
  Fe  Fe38      1.0  0.70667  0.09769  0.08764  1.0000
  S   S74       1.0  0.67843  0.13952  0.06316  1.0000
  S   S75       1.0  0.73483  0.06007  0.05501  1.0000
  Fe  Fe39      1.0  0.70579  0.17150  0.10011  1.0000
  S   S76       1.0  0.72968  0.22124  0.08831  1.0000
  Fe  Fe40      1.0  0.63843  0.13233  0.10394  1.0000
  S   S77       1.0  0.58310  0.12981  0.08401  1.0000
  S   S78       1.0  0.73741  0.13035  0.12231  1.0000
  S   S79       1.0  0.66524  0.08830  0.12615  1.0000
  N   N17       1.0  0.57709  0.21111  0.06347  1.0000
  C   C191      1.0  0.80705  0.01400  0.49996  1.0000
  C   C192      1.0  0.76442  0.21002  0.36657  1.0000
  H   H187      1.0  0.80625  0.22604  0.48707  1.0000
  H   H188      1.0  0.81195  0.22282  0.07705  1.0000
  C   C193      1.0  0.54333  0.13975  0.10389  1.0000
  C   C194      1.0  0.54174  0.15438  0.13565  1.0000
  H   H189      1.0  0.89930  0.20286  0.38031  1.0000
  H   H190      1.0  0.56539  0.15970  0.14908  1.0000
  C   C195      1.0  0.78947  0.12504  0.01627  1.0000
  N   N18       1.0  0.92591  0.17268  0.34520  1.0000
  C   C196      1.0  0.74284  0.23738  0.04876  1.0000
  C   C197      1.0  0.75818  0.26849  0.04766  1.0000
  H   H191      1.0  0.87190  0.18445  0.34938  1.0000
  H   H192      1.0  0.76052  0.28255  0.07060  1.0000
  H   H193      1.0  0.72812  0.19561  0.01930  1.0000
  C   C198      1.0  0.67741  0.02348  0.03679  1.0000
  H   H194      1.0  0.53505  0.04316  0.08494  1.0000
  C   C199      1.0  0.63625  0.23390  0.09533  1.0000
  C   C200      1.0  0.78219  0.13435  0.29638  1.0000
  C   C201      1.0  0.75337  0.11507  0.30393  1.0000
  C   C202      1.0  0.72816  0.10884  0.27901  1.0000
  C   C203      1.0  0.73144  0.12147  0.24612  1.0000
  C   C204      1.0  0.76038  0.14059  0.23855  1.0000
  C   C205      1.0  0.78546  0.14703  0.26354  1.0000
  H   H195      1.0  0.75052  0.10477  0.32885  1.0000
  H   H196      1.0  0.70600  0.09392  0.28517  1.0000
  H   H197      1.0  0.76334  0.15055  0.21348  1.0000
  H   H198      1.0  0.80757  0.16196  0.25727  1.0000
  C   C206      1.0  0.60445  0.23438  0.11209  1.0000
  H   H199      1.0  0.00497  0.08506  0.39641  1.0000
  C   C207      1.0  0.91900  0.14360  0.32962  1.0000
  H   H200      1.0  0.89253  0.13685  0.32371  1.0000
  C   C208      1.0  0.97106  0.15462  0.43064  1.0000
  C   C209      1.0  0.97224  0.12347  0.41618  1.0000
  C   C210      1.0  0.71329  0.02740  0.03445  1.0000
  H   H201      1.0  0.94848  0.11063  0.41101  1.0000
  C   C211      1.0  0.77132  0.28134  0.01725  1.0000
  H   H202      1.0  0.96458  0.20377  0.36581  1.0000
  C   C212      1.0  0.51236  0.13309  0.08676  1.0000
  C   C213      1.0  0.73984  0.21957  0.01888  1.0000
  C   C214      1.0  0.95531  0.04978  0.47511  1.0000
  H   H203      1.0  0.94037  0.02878  0.46704  1.0000
  C   C215      1.0  0.57490  0.22293  0.09564  1.0000
  C   C216      1.0  0.84135  0.00958  0.48946  1.0000
  C   C217      1.0  0.60829  0.21000  0.04710  1.0000
  H   H204      1.0  0.00471  0.02760  0.46443  1.0000
  C   C218      1.0  0.94593  0.12190  0.32149  1.0000
  C   C219      1.0  0.00226  0.17088  0.43730  1.0000
  H   H205      1.0  0.76042  0.00771  0.01318  1.0000
  H   H206      1.0  0.53955  0.21770  0.02508  1.0000
  H   H207      1.0  0.74519  0.16168  0.35810  1.0000
  H   H208      1.0  0.94030  0.09861  0.30971  1.0000
  C   C220      1.0  0.74468  0.18260  0.37485  1.0000
  C   C221      1.0  0.82759  0.21464  0.05499  1.0000
  C   C222      1.0  0.76441  0.23694  0.38817  1.0000
  H   H209      1.0  0.80434  0.16388  0.09016  1.0000
  H   H210      1.0  0.56962  0.08891  0.15518  1.0000
  C   C223      1.0  0.51604  0.05178  0.10305  1.0000
  N   N19       1.0  0.72551  0.18199  0.40385  1.0000
  C   C224      1.0  0.72439  0.20872  0.42452  1.0000
  C   C225      1.0  0.74423  0.23636  0.41735  1.0000
  C   C226      1.0  0.70499  0.15308  0.41232  1.0000
  H   H211      1.0  0.70905  0.20831  0.44746  1.0000
  H   H212      1.0  0.74431  0.25688  0.43470  1.0000
  H   H213      1.0  0.67766  0.15693  0.40462  1.0000
  H   H214      1.0  0.71532  0.13078  0.39972  1.0000
  H   H215      1.0  0.70598  0.14824  0.43990  1.0000
  C   C227      1.0  0.98003  0.13032  0.32899  1.0000
  C   C228      1.0  0.63828  0.22148  0.06271  1.0000
  H   H216      1.0  0.78014  0.25811  0.38246  1.0000
  H   H217      1.0  0.78005  0.20997  0.34380  1.0000
  H   H218      1.0  0.78362  0.11083  0.06804  1.0000
  H   H219      1.0  0.55001  0.17552  0.03516  1.0000
  H   H220      1.0  0.57985  0.06574  0.11858  1.0000
  H   H221      1.0  0.94421  0.12679  0.50542  1.0000
  H   H222      1.0  0.65948  0.24252  0.10780  1.0000
  C   C229      1.0  0.95925  0.18112  0.35263  1.0000
  H   H223      1.0  0.85495  0.21122  0.06280  1.0000
  C   C230      1.0  0.99155  0.04934  0.47366  1.0000
  C   C231      1.0  0.80360  0.15993  0.06316  1.0000
  H   H224      1.0  0.66219  0.04058  0.05150  1.0000
  H   H225      1.0  0.60278  0.24332  0.13775  1.0000
  S   S80       1.0  0.75915  0.16995  0.48754  1.0000
  H   H226      1.0  0.89960  0.21768  0.33733  1.0000
  H   H227      1.0  0.78361  0.30505  0.01694  1.0000
  C   C232      1.0  0.75693  0.20970  0.50565  1.0000
  C   C233      1.0  0.93822  0.07764  0.48688  1.0000
  H   H228      1.0  0.55029  0.22327  0.10890  1.0000
  H   H229      1.0  0.82621  0.23470  0.03609  1.0000
  C   C234      1.0  0.89775  0.19554  0.35339  1.0000
  C   C235      1.0  0.54587  0.20041  0.04576  1.0000
  H   H230      1.0  0.51330  0.12183  0.06214  1.0000
  N   N20       1.0  0.52640  0.06493  0.13305  1.0000
  H   H231      1.0  0.00159  0.19499  0.44851  1.0000
  C   C236      1.0  0.56332  0.06596  0.14157  1.0000
  C   C237      1.0  0.79155  0.13005  0.05088  1.0000
  H   H232      1.0  0.91013  0.07827  0.48790  1.0000
  H   H233      1.0  0.57039  0.04467  0.15756  1.0000
  H   H234      1.0  0.52310  0.19896  0.06290  1.0000
  C   C238      1.0  0.78331  0.23260  0.50127  1.0000
  C   C239      1.0  0.00431  0.10902  0.40795  1.0000
  C   C240      1.0  0.99358  0.10339  0.49537  1.0000
  H   H235      1.0  0.61013  0.20000  0.02189  1.0000
  C   C241      1.0  0.95737  0.10468  0.49707  1.0000
  C   C242      1.0  0.73266  0.00493  0.01514  1.0000
  H   H236      1.0  0.66308  0.22049  0.04979  1.0000
  C   C243      1.0  0.98681  0.16019  0.34447  1.0000
  H   H237      1.0  0.00118  0.11351  0.32347  1.0000
  H   H238      1.0  0.00824  0.12473  0.50280  1.0000
  H   H239      1.0  0.79160  0.03357  0.48926  1.0000
  H   H240      1.0  0.51051  0.08689  0.17936  1.0000
  C   C244      1.0  0.81304  0.17894  0.00740  1.0000
  Fe  Fe41      1.0  0.81256  0.32625  0.93650  1.0000
  S   S81       1.0  0.74842  0.31293  0.55228  1.0000
  S   S82       1.0  0.67328  0.31354  0.62459  1.0000
  C   C245      1.0  0.78016  0.26404  0.51563  1.0000
  H   H241      1.0  0.79674  0.27645  0.86950  1.0000
  S   S83       1.0  0.78783  0.27678  0.94905  1.0000
  C   C246      1.0  0.77417  0.28646  0.85541  1.0000
  N   N21       1.0  0.77736  0.28069  0.81913  1.0000
  H   H242      1.0  0.75088  0.21832  0.96557  1.0000
  H   H243      1.0  0.77262  0.31315  0.86005  1.0000
  H   H244      1.0  0.72302  0.28517  0.81073  1.0000
  H   H245      1.0  0.60280  0.29813  0.70982  1.0000
  C   C247      1.0  0.75066  0.27305  0.53443  1.0000
  C   C248      1.0  0.78346  0.27414  0.74970  1.0000
  H   H246      1.0  0.95544  0.32017  0.89985  1.0000
  S   S84       1.0  0.57564  0.31791  0.59906  1.0000
  H   H247      1.0  0.53722  0.28943  0.67384  1.0000
  C   C249      1.0  0.72411  0.25024  0.53848  1.0000
  C   C250      1.0  0.53688  0.31502  0.68099  1.0000
  H   H248      1.0  0.83258  0.27941  0.82013  1.0000
  C   C251      1.0  0.76912  0.26321  0.98751  1.0000
  H   H249      1.0  0.77936  0.10210  0.00670  1.0000
  H   H250      1.0  0.72787  0.27912  0.74891  1.0000
  H   H251      1.0  0.70126  0.25678  0.55283  1.0000
  H   H252      1.0  0.75068  0.27469  0.86597  1.0000
  C   C252      1.0  0.74830  0.28112  0.79949  1.0000
  C   C253      1.0  0.75288  0.23248  0.98846  1.0000
  C   C254      1.0  0.81299  0.27421  0.76989  1.0000
  H   H253      1.0  0.79880  0.14598  0.96729  1.0000
  C   C255      1.0  0.75087  0.27773  0.76452  1.0000
  H   H254      1.0  0.78586  0.27240  0.72253  1.0000
  C   C256      1.0  0.80945  0.27770  0.80477  1.0000
  H   H255      1.0  0.83853  0.27273  0.75856  1.0000
  H   H256      1.0  0.80087  0.28147  0.51238  1.0000
  C   C257      1.0  0.72727  0.21878  0.52416  1.0000
  H   H257      1.0  0.60093  0.29615  0.66426  1.0000
  S   S85       1.0  0.85443  0.32339  0.89666  1.0000
  C   C258      1.0  0.80033  0.14960  0.99428  1.0000
  H   H258      1.0  0.70666  0.20130  0.52766  1.0000
  C   C259      1.0  0.97880  0.33178  0.90868  1.0000
  H   H259      1.0  0.82131  0.19800  0.99016  1.0000
  H   H260      1.0  0.62261  0.32927  0.68428  1.0000
  N   N22       1.0  0.56721  0.33106  0.68708  1.0000
  C   C260      1.0  0.59997  0.31274  0.68644  1.0000
  Fe  Fe42      1.0  0.70005  0.58595  0.43904  1.0000
  S   S86       1.0  0.66377  0.61625  0.47033  1.0000
  C   C261      1.0  0.79527  0.61861  0.27904  1.0000
  Fe  Fe43      1.0  0.69206  0.62992  0.37677  1.0000
  S   S87       1.0  0.70043  0.64027  0.32039  1.0000
  C   C262      1.0  0.83602  0.53233  0.18479  1.0000
  Fe  Fe44      1.0  0.62949  0.61755  0.42457  1.0000
  S   S88       1.0  0.57392  0.59946  0.43127  1.0000
  S   S89       1.0  0.73063  0.62917  0.41942  1.0000
  S   S90       1.0  0.66462  0.58468  0.39430  1.0000
  Fe  Fe45      1.0  0.83116  0.62574  0.15902  1.0000
  S   S91       1.0  0.82600  0.62036  0.21639  1.0000
  Fe  Fe46      1.0  0.83806  0.58269  0.09535  1.0000
  S   S92       1.0  0.85052  0.62544  0.06173  1.0000
  S   S93       1.0  0.84125  0.52788  0.08447  1.0000
  Fe  Fe47      1.0  0.88552  0.64180  0.10397  1.0000
  H   H261      1.0  0.82004  0.60922  0.28747  1.0000
  H   H262      1.0  0.84530  0.52950  0.15842  1.0000
  S   S94       1.0  0.87560  0.59763  0.13570  1.0000
  S   S95       1.0  0.79306  0.60785  0.12076  1.0000
  C   C263      1.0  0.72828  0.55324  0.18952  1.0000
  C   C264      1.0  0.97964  0.64760  0.10366  1.0000
  H   H263      1.0  0.73281  0.47036  0.47671  1.0000
  C   C265      1.0  0.61590  0.52763  0.46048  1.0000
  C   C266      1.0  0.73577  0.63441  0.29202  1.0000
  H   H264      1.0  0.94816  0.45557  0.05060  1.0000
  H   H265      1.0  0.96008  0.60552  0.12985  1.0000
  C   C267      1.0  0.79086  0.62688  0.24487  1.0000
  H   H266      1.0  0.82980  0.43003  0.01389  1.0000
  H   H267      1.0  0.63734  0.44985  0.47861  1.0000
  H   H268      1.0  0.85064  0.55305  0.19592  1.0000
  C   C268      1.0  0.90263  0.51896  0.01684  1.0000
  S   S96       1.0  0.72285  0.53688  0.45526  1.0000
  C   C269      1.0  0.53313  0.61906  0.42501  1.0000
  H   H269      1.0  0.80064  0.55401  0.23766  1.0000
  H   H270      1.0  0.70096  0.55955  0.19060  1.0000
  C   C270      1.0  0.83383  0.47328  0.04501  1.0000
  C   C271      1.0  0.82658  0.50692  0.04815  1.0000
  C   C272      1.0  0.76795  0.62226  0.30247  1.0000
  H   H271      1.0  0.89412  0.54371  0.02260  1.0000
  C   C273      1.0  0.74289  0.54133  0.15975  1.0000
  C   C274      1.0  0.80910  0.52296  0.02207  1.0000
  C   C275      1.0  0.82402  0.45586  0.01598  1.0000
  C   C276      1.0  0.78442  0.54989  0.21581  1.0000
  C   C277      1.0  0.93254  0.46935  0.03284  1.0000
  H   H272      1.0  0.80335  0.54882  0.02412  1.0000
  C   C278      1.0  0.98301  0.61864  0.12218  1.0000
  C   C279      1.0  0.62528  0.47377  0.48101  1.0000
  H   H273      1.0  0.55326  0.66511  0.40790  1.0000
  C   C280      1.0  0.74907  0.55731  0.21785  1.0000
  H   H274      1.0  0.77183  0.61564  0.32857  1.0000
  C   C281      1.0  0.73136  0.64274  0.25786  1.0000
  C   C282      1.0  0.75863  0.63891  0.23439  1.0000
  C   C283      1.0  0.77835  0.53409  0.15865  1.0000
  H   H275      1.0  0.84740  0.46066  0.06501  1.0000
  H   H276      1.0  0.63547  0.47792  0.40796  1.0000
  C   C284      1.0  0.65176  0.48974  0.42736  1.0000
  H   H277      1.0  0.61994  0.54624  0.44147  1.0000
  Fe  Fe48      1.0  0.80827  0.65228  0.09004  1.0000
  H   H278      1.0  0.72707  0.53821  0.13745  1.0000
  H   H279      1.0  0.84217  0.50959  0.19887  1.0000
  H   H280      1.0  0.73816  0.56699  0.24105  1.0000
  N   N23       1.0  0.79873  0.53910  0.18628  1.0000
  H   H281      1.0  0.78953  0.52518  0.13529  1.0000
  H   H282      1.0  0.67389  0.47347  0.43400  1.0000
  H   H283      1.0  0.66338  0.51224  0.41650  1.0000
  C   C285      1.0  0.59552  0.53520  0.48857  1.0000
  C   C286      1.0  0.92286  0.50161  0.03986  1.0000
  N   N24       1.0  0.63086  0.49739  0.45721  1.0000
  C   C287      1.0  0.53016  0.65125  0.41336  1.0000
  C   C288      1.0  0.71641  0.48225  0.49519  1.0000
  H   H284      1.0  0.93036  0.51302  0.06338  1.0000
  C   C289      1.0  0.70775  0.51550  0.49115  1.0000
  Fe  Fe49      1.0  0.69137  0.65965  0.44783  1.0000
  H   H285      1.0  0.75472  0.64525  0.20822  1.0000
  H   H286      1.0  0.70660  0.65215  0.24943  1.0000
  H   H287      1.0  0.58416  0.55946  0.49110  1.0000
  S   S97       1.0  0.65415  0.66307  0.40404  1.0000
  S   S98       1.0  0.93849  0.66347  0.09144  1.0000
  S   S99       1.0  0.71978  0.38030  0.61473  1.0000
  C   C290      1.0  0.97642  0.36027  0.92806  1.0000
  S   S100      1.0  0.63815  0.38584  0.63528  1.0000
  H   H288      1.0  0.55650  0.38659  0.60925  1.0000
  Fe  Fe50      1.0  0.67192  0.40369  0.59295  1.0000
  S   S101      1.0  0.66464  0.45781  0.58122  1.0000
  Fe  Fe51      1.0  0.68514  0.35888  0.65455  1.0000
  C   C291      1.0  0.53562  0.38112  0.69638  1.0000
  C   C292      1.0  0.72013  0.36257  0.77431  1.0000
  Fe  Fe52      1.0  0.81311  0.40120  0.93547  1.0000
  S   S102      1.0  0.84144  0.36399  0.96689  1.0000
  S   S103      1.0  0.79357  0.45116  0.95281  1.0000
  Fe  Fe53      1.0  0.82318  0.36210  0.86961  1.0000
  H   H289      1.0  0.68016  0.55630  0.51269  1.0000
  Fe  Fe54      1.0  0.88073  0.36423  0.92461  1.0000
  H   H290      1.0  0.72887  0.42697  0.72823  1.0000
  S   S104      1.0  0.78065  0.36375  0.90828  1.0000
  S   S105      1.0  0.85290  0.40257  0.89421  1.0000
  S   S106      1.0  0.68881  0.35913  0.71221  1.0000
  H   H291      1.0  0.87466  0.51676  0.97032  1.0000
  S   S107      1.0  0.93600  0.37849  0.93913  1.0000
  H   H292      1.0  0.81356  0.35338  0.74031  1.0000
  C   C293      1.0  0.73352  0.43661  0.70316  1.0000
  C   C294      1.0  0.72539  0.35898  0.73942  1.0000
  C   C295      1.0  0.68234  0.47936  0.54663  1.0000
  Fe  Fe55      1.0  0.62842  0.34229  0.60282  1.0000
  C   C296      1.0  0.88820  0.45519  0.95079  1.0000
  N   N25       1.0  0.90075  0.47173  0.98099  1.0000
  C   C297      1.0  0.67447  0.51278  0.54308  1.0000
  S   S108      1.0  0.81869  0.35779  0.81213  1.0000
  C   C298      1.0  0.75928  0.35572  0.72732  1.0000
  C   C299      1.0  0.78745  0.35609  0.74991  1.0000
  C   C300      1.0  0.78219  0.35949  0.78484  1.0000
  C   C301      1.0  0.59016  0.51146  0.51324  1.0000
  H   H293      1.0  0.92850  0.42950  0.99766  1.0000
  C   C302      1.0  0.89163  0.50353  0.98737  1.0000
  H   H294      1.0  0.69350  0.47967  0.64137  1.0000
  C   C303      1.0  0.53307  0.37240  0.60715  1.0000
  C   C304      1.0  0.71390  0.46622  0.65416  1.0000
  C   C305      1.0  0.76526  0.43118  0.68723  1.0000
  H   H295      1.0  0.78511  0.51798  0.97329  1.0000
  H   H296      1.0  0.77819  0.48023  0.60038  1.0000
  H   H297      1.0  0.60172  0.46203  0.52887  1.0000
  C   C306      1.0  0.70352  0.46413  0.52265  1.0000
  S   S109      1.0  0.65905  0.36170  0.55886  1.0000
  H   H298      1.0  0.65825  0.52483  0.56158  1.0000
  H   H299      1.0  0.74466  0.45276  0.58618  1.0000
  C   C307      1.0  0.75093  0.47257  0.60428  1.0000
  H   H300      1.0  0.74378  0.36572  0.82364  1.0000
  H   H301      1.0  0.79500  0.43834  0.64212  1.0000
  C   C308      1.0  0.80640  0.47187  0.98994  1.0000
  C   C309      1.0  0.77057  0.44334  0.65468  1.0000
  C   C310      1.0  0.74830  0.36288  0.79691  1.0000
  H   H302      1.0  0.70989  0.43843  0.52515  1.0000
  C   C311      1.0  0.70755  0.45402  0.68649  1.0000
  H   H303      1.0  0.91020  0.44885  0.93388  1.0000
  C   C312      1.0  0.79886  0.50542  0.99324  1.0000
  H   H304      1.0  0.57492  0.51721  0.53543  1.0000
  H   H305      1.0  0.68254  0.45776  0.69840  1.0000
  H   H306      1.0  0.78542  0.41726  0.69989  1.0000
  H   H307      1.0  0.73417  0.49404  0.59832  1.0000
  N   N26       1.0  0.74520  0.46100  0.63878  1.0000
  C   C313      1.0  0.60496  0.48045  0.50943  1.0000
  H   H308      1.0  0.87485  0.43228  0.95811  1.0000
  H   H309      1.0  0.86906  0.47026  0.93663  1.0000
  C   C314      1.0  0.53524  0.33879  0.60095  1.0000
  H   H310      1.0  0.69405  0.36533  0.78397  1.0000
  H   H311      1.0  0.76379  0.35282  0.70060  1.0000
  C   C315      1.0  0.68679  0.53069  0.51531  1.0000
  C   C316      1.0  0.92128  0.45474  0.00299  1.0000
  H   H312      1.0  0.00568  0.39698  0.95436  1.0000
  C   C317      1.0  0.56689  0.36362  0.69504  1.0000
  H   H313      1.0  0.59093  0.37633  0.69995  1.0000
  C   C318      1.0  0.00715  0.37498  0.93931  1.0000
  Fe  Fe56      1.0  0.70481  0.33640  0.58309  1.0000
  H   H314      1.0  0.53547  0.40712  0.70174  1.0000
  H   H315      1.0  0.73874  0.75369  0.10987  1.0000
  S   S110      1.0  0.69935  0.70589  0.47954  1.0000
  C   C319      1.0  0.66179  0.74627  0.37804  1.0000
  H   H316      1.0  0.83858  0.83544  0.49083  1.0000
  C   C320      1.0  0.66869  0.73417  0.34588  1.0000
  H   H317      1.0  0.79260  0.72975  0.11976  1.0000
  C   C321      1.0  0.72909  0.79479  0.07745  1.0000
  C   C322      1.0  0.76170  0.71252  0.03647  1.0000
  C   C323      1.0  0.72961  0.72678  0.02789  1.0000
  H   H318      1.0  0.00755  0.68683  0.07980  1.0000
  H   H319      1.0  0.63341  0.99460  0.02207  1.0000
  N   N27       1.0  0.80320  0.87584  0.49006  1.0000
  H   H320      1.0  0.77449  0.69698  0.46932  1.0000
  H   H321      1.0  0.73684  0.72390  0.41600  1.0000
  C   C324      1.0  0.77956  0.81774  0.05080  1.0000
  C   C325      1.0  0.74378  0.81758  0.05560  1.0000
  H   H322      1.0  0.64912  0.73559  0.32638  1.0000
  H   H323      1.0  0.68132  0.75164  0.42852  1.0000
  C   C326      1.0  0.70065  0.71917  0.33930  1.0000
  C   C327      1.0  0.75049  0.77220  0.09401  1.0000
  N   N28       1.0  0.72497  0.71604  0.36413  1.0000
  C   C328      1.0  0.80790  0.74858  0.10616  1.0000
  H   H324      1.0  0.70121  0.79384  0.08058  1.0000
  H   H325      1.0  0.77896  0.70793  0.37289  1.0000
  H   H326      1.0  0.72742  0.83441  0.04153  1.0000
  H   H327      1.0  0.81650  0.71302  0.02669  1.0000
  S   S111      1.0  0.76308  0.68279  0.06920  1.0000
  H   H328      1.0  0.77307  0.91957  0.48571  1.0000
  H   H329      1.0  0.82482  0.72752  0.49204  1.0000
  C   C329      1.0  0.82211  0.92394  0.46068  1.0000
  C   C330      1.0  0.68677  0.74314  0.40315  1.0000
  N   N29       1.0  0.78557  0.77247  0.08904  1.0000
  C   C331      1.0  0.85966  0.87671  0.46452  1.0000
  H   H330      1.0  0.82793  0.79465  0.06343  1.0000
  C   C332      1.0  0.71823  0.72747  0.39586  1.0000
  H   H331      1.0  0.88752  0.98022  0.49552  1.0000
  H   H332      1.0  0.82410  0.73521  0.08747  1.0000
  C   C333      1.0  0.83377  0.86037  0.48246  1.0000
  H   H333      1.0  0.82497  0.76100  0.12452  1.0000
  H   H334      1.0  0.87371  0.92196  0.44015  1.0000
  H   H335      1.0  0.70550  0.70918  0.31442  1.0000
  H   H336      1.0  0.63682  0.75727  0.38378  1.0000
  C   C334      1.0  0.77033  0.71698  0.48669  1.0000
  H   H337      1.0  0.81745  0.94905  0.45285  1.0000
  H   H338      1.0  0.70623  0.71803  0.03984  1.0000
  C   C335      1.0  0.85374  0.90874  0.45366  1.0000
  H   H339      1.0  0.76510  0.70060  0.33041  1.0000
  C   C336      1.0  0.79708  0.90712  0.47925  1.0000
  C   C337      1.0  0.80022  0.79494  0.06792  1.0000
  C   C338      1.0  0.66116  0.99736  0.02005  1.0000
  H   H340      1.0  0.88422  0.86464  0.45941  1.0000
  C   C339      1.0  0.75741  0.69840  0.35731  1.0000
  H   H341      1.0  0.75398  0.67200  0.36292  1.0000
  S   S112      1.0  0.84395  0.67162  0.13016  1.0000
  C   C340      1.0  0.79167  0.72392  0.02064  1.0000
  C   C341      1.0  0.79885  0.73435  0.49967  1.0000
  H   H342      1.0  0.75640  0.84904  0.49100  1.0000
  H   H343      1.0  0.52032  0.94065  0.00748  1.0000
  C   C342      1.0  0.86098  0.98390  0.50350  1.0000
  C   C343      1.0  0.73659  0.72558  0.49626  1.0000
  H   H344      1.0  0.79100  0.83463  0.03292  1.0000
  Fe  Fe57      1.0  0.81465  0.84797  0.64821  1.0000
  S   S113      1.0  0.85885  0.81652  0.62891  1.0000
  S   S114      1.0  0.77935  0.83352  0.69232  1.0000
  Fe  Fe58      1.0  0.81994  0.89491  0.58765  1.0000
  S   S115      1.0  0.86411  0.86728  0.56436  1.0000
  S   S116      1.0  0.79117  0.93797  0.56431  1.0000
  Fe  Fe59      1.0  0.83391  0.82190  0.57766  1.0000
  S   S117      1.0  0.83101  0.78182  0.53752  1.0000
  Fe  Fe60      1.0  0.88554  0.86415  0.61698  1.0000
  S   S118      1.0  0.94025  0.88099  0.63032  1.0000
  S   S119      1.0  0.78833  0.84991  0.59761  1.0000
  S   S120      1.0  0.84263  0.89524  0.63968  1.0000
  Fe  Fe61      1.0  0.67990  0.90119  0.94752  1.0000
  S   S121      1.0  0.66193  0.85029  0.96070  1.0000
  H   H345      1.0  0.70276  0.76394  0.99882  1.0000
  Fe  Fe62      1.0  0.71310  0.87788  0.88007  1.0000
  S   S122      1.0  0.69613  0.82618  0.88848  1.0000
  S   S123      1.0  0.74867  0.89529  0.83733  1.0000
  Fe  Fe63      1.0  0.64528  0.84809  0.90647  1.0000
  S   S124      1.0  0.59282  0.83216  0.88598  1.0000
  Fe  Fe64      1.0  0.71423  0.83287  0.94200  1.0000
  S   S125      1.0  0.75744  0.80016  0.96330  1.0000
  S   S126      1.0  0.66118  0.89943  0.89394  1.0000
  S   S127      1.0  0.73328  0.88421  0.93294  1.0000
  H   H346      1.0  0.71366  0.90080  0.72124  1.0000
  H   H347      1.0  0.74782  0.94915  0.73718  1.0000
  C   C344      1.0  0.70872  0.87347  0.66033  1.0000
  C   C345      1.0  0.73186  0.75160  0.51905  1.0000
  C   C346      1.0  0.54945  0.84710  0.93984  1.0000
  C   C347      1.0  0.55210  0.83899  0.90575  1.0000
  H   H348      1.0  0.81309  0.75912  0.98597  1.0000
  H   H349      1.0  0.57264  0.84880  0.95497  1.0000
  H   H350      1.0  0.60102  0.92874  0.93414  1.0000
  C   C348      1.0  0.77153  0.85111  0.73256  1.0000
  C   C349      1.0  0.74475  0.83836  0.75268  1.0000
  C   C350      1.0  0.73718  0.85165  0.78466  1.0000
  C   C351      1.0  0.75633  0.87798  0.79690  1.0000
  C   C352      1.0  0.78303  0.89083  0.77672  1.0000
  C   C353      1.0  0.79072  0.87742  0.74481  1.0000
  H   H351      1.0  0.72975  0.81797  0.74349  1.0000
  H   H352      1.0  0.71661  0.84145  0.79987  1.0000
  H   H353      1.0  0.79805  0.91117  0.78596  1.0000
  H   H354      1.0  0.81140  0.88749  0.72966  1.0000
  H   H355      1.0  0.75532  0.75560  0.84541  1.0000
  H   H356      1.0  0.86170  0.94268  0.53775  1.0000
  H   H357      1.0  0.54054  0.90481  0.86679  1.0000
  H   H358      1.0  0.79875  0.87082  0.88550  1.0000
  C   C354      1.0  0.78019  0.79712  0.86831  1.0000
  H   H359      1.0  0.76549  0.99553  0.53088  1.0000
  C   C355      1.0  0.98115  0.86403  0.61905  1.0000
  C   C356      1.0  0.98492  0.83182  0.60768  1.0000
  C   C357      1.0  0.76713  0.95720  0.68682  1.0000
  H   H360      1.0  0.96219  0.81691  0.60404  1.0000
  C   C358      1.0  0.79412  0.76020  0.52269  1.0000
  C   C359      1.0  0.71639  0.97876  0.99839  1.0000
  H   H361      1.0  0.51499  0.85892  0.98094  1.0000
  C   C360      1.0  0.76682  0.94612  0.65363  1.0000
  H   H362      1.0  0.73159  0.96167  0.98365  1.0000
  C   C361      1.0  0.81175  0.96635  0.53714  1.0000
  C   C362      1.0  0.52160  0.83659  0.88658  1.0000
  C   C363      1.0  0.74758  0.94100  0.71118  1.0000
  C   C364      1.0  0.75767  0.76500  0.98973  1.0000
  N   N30       1.0  0.80104  0.82366  0.86346  1.0000
  H   H363      1.0  0.76910  0.79211  0.89288  1.0000
  C   C365      1.0  0.81489  0.82990  0.83241  1.0000
  C   C366      1.0  0.77240  0.77623  0.84153  1.0000
  C   C367      1.0  0.80807  0.80925  0.80519  1.0000
  C   C368      1.0  0.78645  0.78242  0.80977  1.0000
  H   H364      1.0  0.68344  0.88104  0.64952  1.0000
  H   H365      1.0  0.78187  0.95853  0.63438  1.0000
  H   H366      1.0  0.83062  0.85144  0.82838  1.0000
  C   C369      1.0  0.80869  0.84587  0.89137  1.0000
  H   H367      1.0  0.81851  0.81466  0.78040  1.0000
  H   H368      1.0  0.78021  0.76678  0.78860  1.0000
  C   C370      1.0  0.76038  0.76864  0.53241  1.0000
  C   C371      1.0  0.51475  0.92658  0.92338  1.0000
  H   H369      1.0  0.75620  0.78818  0.55029  1.0000
  H   H370      1.0  0.78259  0.97823  0.69363  1.0000
  C   C372      1.0  0.84638  0.96254  0.52744  1.0000
  H   H371      1.0  0.79628  0.83791  0.91525  1.0000
  H   H372      1.0  0.78704  0.83745  0.52293  1.0000
  S   S128      1.0  0.65837  0.94247  0.98033  1.0000
  H   H373      1.0  0.58425  0.90327  0.88050  1.0000
  H   H374      1.0  0.58317  0.93902  0.99277  1.0000
  H   H375      1.0  0.72314  0.85822  0.64177  1.0000
  H   H376      1.0  0.74728  0.91016  0.61948  1.0000
  H   H377      1.0  0.70426  0.85734  0.68249  1.0000
  C   C373      1.0  0.74731  0.91858  0.64536  1.0000
  H   H378      1.0  0.70589  0.75840  0.52673  1.0000
  H   H379      1.0  0.83703  0.84697  0.89568  1.0000
  N   N31       1.0  0.72893  0.90232  0.66957  1.0000
  C   C374      1.0  0.72829  0.91358  0.70200  1.0000
  C   C375      1.0  0.56041  0.91866  0.88100  1.0000
  N   N32       1.0  0.54930  0.92478  0.91574  1.0000
  H   H380      1.0  0.56566  0.94215  0.86803  1.0000
  H   H381      1.0  0.52337  0.83015  0.86021  1.0000
  C   C376      1.0  0.57362  0.92975  0.94017  1.0000
  C   C377      1.0  0.78963  0.75006  0.99749  1.0000
  C   C378      1.0  0.52846  0.93676  0.98165  1.0000
  C   C379      1.0  0.51669  0.85275  0.95451  1.0000
  C   C380      1.0  0.77615  0.85851  0.50868  1.0000
  C   C381      1.0  0.56361  0.93565  0.97348  1.0000
  H   H382      1.0  0.76358  0.87506  0.52731  1.0000
  C   C382      1.0  0.79228  0.99233  0.52352  1.0000
  C   C383      1.0  0.68050  0.97485  0.00079  1.0000
  H   H383      1.0  0.00849  0.82978  0.68204  1.0000
  C   C384      1.0  0.72754  0.75284  0.00462  1.0000
  H   H384      1.0  0.00844  0.90790  0.63260  1.0000
