data_image0
_chemical_formula_structural       SFeS2FeS2FeSFeCS2FeS2FeSHFeSFeS4C5FeC2SH3CHCHCHCH2C6H4C6H5C6HC2HNH3CH2CH4C3HC2H6NC6H9C2NHSCHC3HSCHCH5C4NHSHFeSCFeS2HFeSCSCFeS2FeS2CFeHCSHCH2C2SC7SH2C3H2FeS2FeSFeSFeHS2FeS2FeSH2FeS3H2CHCH2C7HC3H4CH2CH6CHC3HNHCHC2HCH4CSNHC3HCHSCNHSCH3Fe2SNHCH5FeSHFeS2FeSFeS3CSHFeS2FeSHFeSFeHS2H2SCNCH2C2H2CH2SHC3H3C6H2CHC6H4CHCHC2H2SC4H2C2H3C2H2CH2CHCNC2NHNHC2NCSC3H3C3HC8H5CHCH3CNCH4C2H2C2H2CFeS2FeS2FeSFeS3FeS2FeS2FeHFeCS2C4H3C2HCNC2HC4H4C2HC7H4C2H2C2HC2HC2H3NH2CH3C4H4CNCHCHNHSHCH3CHCSC7H3NHCH2C2HC2HCH3SCHCHCHC3HFeS2CHFeSFeS3FeS2FeS2Fe2HS2C2HCHCH2C3HCH2C7H3C2HC5H2CHC2HC2HCHCH3NH2NC2HC4FeHCH4CHNH4CSCHCH2CSCHC3HSHCHCSHNCSCHC3HCHCHC2H2CHC3H2CH2CH2C2H2CH3C2NH2C2HCH2C3H4CSC2HNH2C2H11CH2C6HC3HCNCHCH3C2SHCH3CNC2H2CHCH2CHSHFeSFeCSFeS2FeS2FeSHSCHC2HSC6HCHNC6H4C3H3SNHC7H4CHNHCH2CHSH2CFeCFeCHC2FeSH3C2HCSCHCHC2HNCHC3H6C2HSH2SHFeSFeHSFeS2FeS2FeSFeS3H3CHC11H4C6H4C3HCH5C6HSHCH3FeHC3H2SH2CHCSCHNH2CFeC3H4NH2C5HCH2CN2H2C2HSCHC2H3CH2SFeS2FeS2FeSFeS3NFeS2FeHSFeHFeHS2HCH2C3H2C3HC7H5CNC6H4C2HC2H2CSCH7CH3CH2CH2C3H3C2NFeHCHC2SH3C4H2NC3H2CNCHCH4CHCHC4H3CH2SHC2FeS2FeSFeHS2FeS2FeHFeCHSHNH2C7FeH3C3H2CHFeS2HCFeSFeS3FeS2FeHSFeC2SHCH2CHC7SH2CHFeHC3H3SCHSH4CH4C3HC2H2S2C2NCH2CSNHSCH3CH4CSFeH2CNCFeS2FeS2FeSFeCS2HFeS2FeCFeCFeNS2CHCHS2C2H2CNC7H4C6H4C3H2C3H2CH2C3H3CH6CH2NCH2CSH6CHC2S2H2NSC3H6CHC
_chemical_formula_sum              "S192 Fe96 C576 H576 N48"
_cell_length_a       50.7192
_cell_length_b       51.0046
_cell_length_c       48.7487
_cell_angle_alpha    89.6899
_cell_angle_beta     90.2476
_cell_angle_gamma    119.7

_space_group_name_H-M_alt    "P 1"
_space_group_IT_number       1

loop_
  _space_group_symop_operation_xyz
  'x, y, z'

loop_
  _atom_site_type_symbol
  _atom_site_label
  _atom_site_symmetry_multiplicity
  _atom_site_fract_x
  _atom_site_fract_y
  _atom_site_fract_z
  _atom_site_occupancy
  S   S1        1.0  0.40787  0.37167  0.30790  1.0000
  Fe  Fe1       1.0  0.36450  0.40094  0.09272  1.0000
  S   S2        1.0  0.36924  0.44614  0.10365  1.0000
  S   S3        1.0  0.36267  0.39265  0.04617  1.0000
  Fe  Fe2       1.0  0.36032  0.38270  0.15406  1.0000
  S   S4        1.0  0.36474  0.42630  0.16816  1.0000
  S   S5        1.0  0.35479  0.34662  0.18529  1.0000
  Fe  Fe3       1.0  0.33175  0.42041  0.13434  1.0000
  S   S6        1.0  0.29591  0.43351  0.14592  1.0000
  Fe  Fe4       1.0  0.40128  0.44779  0.13632  1.0000
  C   C1        1.0  0.99627  0.35359  0.01631  1.0000
  S   S7        1.0  0.32491  0.37509  0.12172  1.0000
  S   S8        1.0  0.39891  0.40424  0.12393  1.0000
  Fe  Fe5       1.0  0.12218  0.39807  0.12360  1.0000
  S   S9        1.0  0.07167  0.36719  0.13120  1.0000
  S   S10       1.0  0.15518  0.38003  0.11698  1.0000
  Fe  Fe6       1.0  0.11502  0.45386  0.12010  1.0000
  S   S11       1.0  0.06501  0.42721  0.12675  1.0000
  H   H1        1.0  0.29220  0.46669  0.09780  1.0000
  Fe  Fe7       1.0  0.07536  0.40326  0.16050  1.0000
  S   S12       1.0  0.05319  0.40643  0.20069  1.0000
  Fe  Fe8       1.0  0.06513  0.39362  0.09697  1.0000
  S   S13       1.0  0.02646  0.37555  0.06522  1.0000
  S   S14       1.0  0.12615  0.43198  0.15498  1.0000
  S   S15       1.0  0.11490  0.42236  0.08798  1.0000
  S   S16       1.0  0.39751  0.04825  0.29120  1.0000
  C   C2        1.0  0.38286  0.02365  0.23908  1.0000
  C   C3        1.0  0.22146  0.44242  0.07551  1.0000
  C   C4        1.0  0.01596  0.37969  0.27705  1.0000
  C   C5        1.0  0.04873  0.36577  0.01611  1.0000
  C   C6        1.0  0.01457  0.35185  0.28115  1.0000
  Fe  Fe9       1.0  0.41606  0.05525  0.33534  1.0000
  C   C7        1.0  0.42719  0.13084  0.30457  1.0000
  C   C8        1.0  0.03862  0.38470  0.23141  1.0000
  S   S17       1.0  0.38021  0.00010  0.06063  1.0000
  H   H2        1.0  0.47028  0.38645  0.30282  1.0000
  H   H3        1.0  0.02421  0.31903  0.26302  1.0000
  H   H4        1.0  0.32495  0.00736  0.05948  1.0000
  C   C9        1.0  0.03717  0.35683  0.23551  1.0000
  H   H5        1.0  0.46715  0.44416  0.10088  1.0000
  C   C10       1.0  0.44492  0.18346  0.31360  1.0000
  H   H6        1.0  0.04529  0.34782  0.21969  1.0000
  C   C11       1.0  0.02390  0.36372  0.03044  1.0000
  H   H7        1.0  0.34049  0.40418  0.27347  1.0000
  C   C12       1.0  0.39965  0.12762  0.29549  1.0000
  H   H8        1.0  0.40873  0.37345  0.05129  1.0000
  H   H9        1.0  0.42391  0.42521  0.06845  1.0000
  C   C13       1.0  0.19376  0.39414  0.12690  1.0000
  C   C14       1.0  0.20947  0.37989  0.11683  1.0000
  C   C15       1.0  0.24050  0.39112  0.12289  1.0000
  C   C16       1.0  0.25625  0.41683  0.13919  1.0000
  C   C17       1.0  0.24044  0.43081  0.14963  1.0000
  C   C18       1.0  0.20943  0.41960  0.14352  1.0000
  H   H10       1.0  0.19758  0.36013  0.10400  1.0000
  H   H11       1.0  0.25225  0.38008  0.11464  1.0000
  H   H12       1.0  0.25232  0.45065  0.16234  1.0000
  H   H13       1.0  0.19769  0.43075  0.15154  1.0000
  C   C19       1.0  0.39459  0.36406  0.27328  1.0000
  C   C20       1.0  0.38036  0.33499  0.26213  1.0000
  C   C21       1.0  0.36883  0.33010  0.23503  1.0000
  C   C22       1.0  0.37186  0.35420  0.21853  1.0000
  C   C23       1.0  0.38667  0.38335  0.22951  1.0000
  C   C24       1.0  0.39754  0.38812  0.25677  1.0000
  H   H14       1.0  0.37767  0.31617  0.27454  1.0000
  H   H15       1.0  0.35734  0.30743  0.22685  1.0000
  H   H16       1.0  0.38907  0.40213  0.21723  1.0000
  H   H17       1.0  0.40811  0.41067  0.26515  1.0000
  H   H18       1.0  0.41354  0.21384  0.28262  1.0000
  C   C25       1.0  0.38216  0.38217  0.02195  1.0000
  C   C26       1.0  0.39415  0.02207  0.26517  1.0000
  C   C27       1.0  0.02785  0.39592  0.25236  1.0000
  C   C28       1.0  0.39529  0.15268  0.29570  1.0000
  C   C29       1.0  0.19635  0.44611  0.08045  1.0000
  C   C30       1.0  0.22796  0.48958  0.10821  1.0000
  H   H19       1.0  0.48407  0.46542  0.29907  1.0000
  C   C31       1.0  0.44112  0.44886  0.06834  1.0000
  C   C32       1.0  0.47577  0.44081  0.30052  1.0000
  H   H20       1.0  0.10751  0.48542  0.20905  1.0000
  N   N1        1.0  0.41777  0.18012  0.30476  1.0000
  H   H21       1.0  0.32486  0.35109  0.26194  1.0000
  H   H22       1.0  0.37380  0.15004  0.28863  1.0000
  H   H23       1.0  0.46260  0.20501  0.32128  1.0000
  C   C33       1.0  0.40224  0.99984  0.26973  1.0000
  H   H24       1.0  0.40166  0.04928  0.02205  1.0000
  H   H25       1.0  0.06038  0.43228  0.00722  1.0000
  C   C34       1.0  0.44995  0.15884  0.31382  1.0000
  H   H26       1.0  0.46249  0.43216  0.31980  1.0000
  H   H27       1.0  0.26840  0.43373  0.07851  1.0000
  H   H28       1.0  0.39054  0.20022  0.31334  1.0000
  H   H29       1.0  0.07008  0.37329  0.02667  1.0000
  C   C35       1.0  0.25265  0.48528  0.10281  1.0000
  C   C36       1.0  0.40365  0.37391  0.02979  1.0000
  C   C37       1.0  0.38217  0.00093  0.02412  1.0000
  H   H30       1.0  0.38189  0.10574  0.28840  1.0000
  C   C38       1.0  0.02515  0.34053  0.26017  1.0000
  C   C39       1.0  0.41831  0.36575  0.00975  1.0000
  H   H31       1.0  0.04668  0.45472  0.17609  1.0000
  H   H32       1.0  0.37646  0.04065  0.23522  1.0000
  H   H33       1.0  0.09768  0.46405  0.17787  1.0000
  H   H34       1.0  0.37092  0.00499  0.19805  1.0000
  H   H35       1.0  0.43077  0.11156  0.30448  1.0000
  H   H36       1.0  0.07890  0.48506  0.10263  1.0000
  N   N2        1.0  0.29531  0.36842  0.20698  1.0000
  C   C40       1.0  0.30244  0.35168  0.22434  1.0000
  C   C41       1.0  0.30318  0.39748  0.21345  1.0000
  C   C42       1.0  0.31840  0.36416  0.24867  1.0000
  C   C43       1.0  0.31958  0.41083  0.23741  1.0000
  C   C44       1.0  0.32730  0.39403  0.25506  1.0000
  C   C45       1.0  0.27814  0.35459  0.18185  1.0000
  H   H37       1.0  0.29666  0.32881  0.21900  1.0000
  H   H38       1.0  0.29731  0.41071  0.19982  1.0000
  H   H39       1.0  0.21839  0.42341  0.06327  1.0000
  H   H40       1.0  0.32649  0.43414  0.24206  1.0000
  H   H41       1.0  0.17428  0.42998  0.07224  1.0000
  H   H42       1.0  0.28691  0.34089  0.17180  1.0000
  H   H43       1.0  0.25373  0.33989  0.18675  1.0000
  H   H44       1.0  0.28023  0.37193  0.16672  1.0000
  H   H45       1.0  0.28647  0.47016  0.06157  1.0000
  C   C46       1.0  0.41284  0.20615  0.30408  1.0000
  C   C47       1.0  0.39350  0.02875  0.01028  1.0000
  N   N3        1.0  0.24910  0.46174  0.08684  1.0000
  H   H46       1.0  0.02884  0.41743  0.24950  1.0000
  S   S18       1.0  0.99852  0.32964  0.31138  1.0000
  C   C48       1.0  0.37967  0.00340  0.21789  1.0000
  H   H47       1.0  0.43026  0.22544  0.31622  1.0000
  C   C49       1.0  0.10609  0.48694  0.18642  1.0000
  C   C50       1.0  0.46576  0.45969  0.08644  1.0000
  C   C51       1.0  0.27535  0.45800  0.08077  1.0000
  H   H48       1.0  0.47114  0.16133  0.32166  1.0000
  S   S19       1.0  0.44777  0.48532  0.14887  1.0000
  C   C52       1.0  0.05553  0.47893  0.17479  1.0000
  H   H49       1.0  0.01204  0.47407  0.16385  1.0000
  C   C53       1.0  0.01550  0.42417  0.01569  1.0000
  H   H50       1.0  0.41905  0.46045  0.03666  1.0000
  H   H51       1.0  0.43476  0.35930  0.01613  1.0000
  H   H52       1.0  0.00796  0.38877  0.29291  1.0000
  H   H53       1.0  0.41084  0.99816  0.28961  1.0000
  H   H54       1.0  0.46023  0.42957  0.28294  1.0000
  C   C54       1.0  0.19963  0.46981  0.09696  1.0000
  C   C55       1.0  0.43849  0.46876  0.05038  1.0000
  C   C56       1.0  0.00760  0.48694  0.33164  1.0000
  C   C57       1.0  0.03576  0.48973  0.16810  1.0000
  N   N4        1.0  0.48748  0.48954  0.08634  1.0000
  H   H55       1.0  0.01946  0.42742  0.03764  1.0000
  S   S20       1.0  0.44740  0.32513  0.33686  1.0000
  H   H56       1.0  0.18021  0.47268  0.10132  1.0000
  Fe  Fe10      1.0  0.47570  0.35611  0.37082  1.0000
  S   S21       1.0  0.44754  0.37830  0.37392  1.0000
  C   C58       1.0  0.44968  0.37675  0.61234  1.0000
  Fe  Fe11      1.0  0.41992  0.29343  0.37118  1.0000
  S   S22       1.0  0.38785  0.31262  0.37457  1.0000
  S   S23       1.0  0.40010  0.24202  0.36712  1.0000
  H   H57       1.0  0.32571  0.05478  0.48613  1.0000
  Fe  Fe12      1.0  0.42091  0.34401  0.40650  1.0000
  S   S24       1.0  0.41916  0.36965  0.44463  1.0000
  C   C59       1.0  0.29267  0.40237  0.53910  1.0000
  S   S25       1.0  0.45098  0.32302  0.40483  1.0000
  C   C60       1.0  0.34144  0.04670  0.47977  1.0000
  Fe  Fe13      1.0  0.44257  0.10745  0.37676  1.0000
  S   S26       1.0  0.39489  0.07158  0.36700  1.0000
  S   S27       1.0  0.45937  0.15756  0.38470  1.0000
  Fe  Fe14      1.0  0.46565  0.06190  0.37573  1.0000
  S   S28       1.0  0.41936  0.02321  0.36522  1.0000
  S   S29       1.0  0.46375  0.09291  0.34375  1.0000
  C   C61       1.0  0.40687  0.02548  0.50556  1.0000
  Fe  Fe15      1.0  0.40281  0.04273  0.39774  1.0000
  H   H58       1.0  0.44207  0.37308  0.65610  1.0000
  C   C62       1.0  0.05823  0.46948  0.57806  1.0000
  S   S30       1.0  0.44902  0.07968  0.40961  1.0000
  H   H59       1.0  0.23611  0.36154  0.58455  1.0000
  C   C63       1.0  0.40272  0.02825  0.47727  1.0000
  H   H60       1.0  0.42022  0.04673  0.46559  1.0000
  H   H61       1.0  0.47190  0.39676  0.61373  1.0000
  C   C64       1.0  0.01565  0.35041  0.48280  1.0000
  C   C65       1.0  0.03316  0.34423  0.50151  1.0000
  S   S31       1.0  0.00405  0.33007  0.45124  1.0000
  C   C66       1.0  0.41661  0.21883  0.37395  1.0000
  C   C67       1.0  0.39866  0.18731  0.37080  1.0000
  C   C68       1.0  0.41118  0.16815  0.37415  1.0000
  C   C69       1.0  0.44185  0.18028  0.38103  1.0000
  C   C70       1.0  0.45968  0.21172  0.38453  1.0000
  C   C71       1.0  0.44723  0.23090  0.38090  1.0000
  C   C72       1.0  0.42084  0.11211  0.47790  1.0000
  S   S32       1.0  0.00575  0.37394  0.38218  1.0000
  H   H62       1.0  0.39253  0.07963  0.50817  1.0000
  H   H63       1.0  0.46139  0.25505  0.38333  1.0000
  C   C73       1.0  0.39951  0.36151  0.47657  1.0000
  C   C74       1.0  0.37588  0.33273  0.48348  1.0000
  C   C75       1.0  0.40789  0.38511  0.49555  1.0000
  H   H64       1.0  0.36911  0.31435  0.46915  1.0000
  H   H65       1.0  0.42611  0.40748  0.49048  1.0000
  Fe  Fe16      1.0  0.35574  0.37698  0.59405  1.0000
  S   S33       1.0  0.34338  0.41340  0.59055  1.0000
  S   S34       1.0  0.34889  0.34399  0.55930  1.0000
  Fe  Fe17      1.0  0.37228  0.39038  0.65622  1.0000
  S   S35       1.0  0.36176  0.42861  0.65642  1.0000
  Fe  Fe18      1.0  0.32002  0.39754  0.63130  1.0000
  S   S36       1.0  0.26979  0.38249  0.63944  1.0000
  Fe  Fe19      1.0  0.38584  0.44144  0.61543  1.0000
  H   H66       1.0  0.08232  0.48097  0.57137  1.0000
  S   S37       1.0  0.32960  0.35873  0.63335  1.0000
  S   S38       1.0  0.39905  0.40551  0.61677  1.0000
  Fe  Fe20      1.0  0.13390  0.42408  0.62797  1.0000
  S   S39       1.0  0.09239  0.37769  0.62584  1.0000
  S   S40       1.0  0.18411  0.43975  0.61949  1.0000
  Fe  Fe21      1.0  0.09613  0.45329  0.64644  1.0000
  S   S41       1.0  0.05279  0.40912  0.64562  1.0000
  H   H67       1.0  0.37494  0.17769  0.36541  1.0000
  H   H68       1.0  0.24757  0.46258  0.60985  1.0000
  Fe  Fe22      1.0  0.06940  0.40125  0.60511  1.0000
  S   S42       1.0  0.03570  0.39240  0.56973  1.0000
  S   S43       1.0  0.36801  0.01190  0.42951  1.0000
  S   S44       1.0  0.11171  0.44700  0.60527  1.0000
  H   H69       1.0  0.39715  0.14410  0.37110  1.0000
  H   H70       1.0  0.44353  0.14122  0.44328  1.0000
  C   C76       1.0  0.03017  0.37730  0.53585  1.0000
  H   H71       1.0  0.30482  0.42488  0.53030  1.0000
  C   C77       1.0  0.04058  0.35773  0.52776  1.0000
  H   H72       1.0  0.20537  0.35747  0.64285  1.0000
  H   H73       1.0  0.05376  0.35242  0.54193  1.0000
  C   C78       1.0  0.20686  0.42217  0.62219  1.0000
  C   C79       1.0  0.23822  0.43949  0.61685  1.0000
  C   C80       1.0  0.25780  0.42761  0.62137  1.0000
  C   C81       1.0  0.24618  0.39814  0.63125  1.0000
  C   C82       1.0  0.21467  0.38043  0.63552  1.0000
  C   C83       1.0  0.19510  0.39231  0.63102  1.0000
  C   C84       1.0  0.40810  0.33943  0.58540  1.0000
  H   H74       1.0  0.28194  0.44150  0.61784  1.0000
  C   C85       1.0  0.36074  0.32780  0.50887  1.0000
  C   C86       1.0  0.36906  0.35146  0.52773  1.0000
  C   C87       1.0  0.39291  0.38014  0.52100  1.0000
  H   H75       1.0  0.34236  0.30548  0.51381  1.0000
  H   H76       1.0  0.39974  0.39859  0.53527  1.0000
  H   H77       1.0  0.39076  0.32876  0.65247  1.0000
  H   H78       1.0  0.02249  0.47839  0.33803  1.0000
  C   C88       1.0  0.28642  0.35333  0.54484  1.0000
  H   H79       1.0  0.34452  0.30916  0.61264  1.0000
  H   H80       1.0  0.44004  0.12375  0.49166  1.0000
  C   C89       1.0  0.36072  0.30129  0.60724  1.0000
  H   H81       1.0  0.42766  0.04192  0.51544  1.0000
  H   H82       1.0  0.32760  0.40465  0.49778  1.0000
  H   H83       1.0  0.25194  0.32391  0.57357  1.0000
  H   H84       1.0  0.34554  0.03537  0.49753  1.0000
  H   H85       1.0  0.44954  0.37520  0.56808  1.0000
  H   H86       1.0  0.48363  0.38947  0.43429  1.0000
  C   C90       1.0  0.40393  0.33836  0.63393  1.0000
  H   H87       1.0  0.17104  0.37858  0.63495  1.0000
  C   C91       1.0  0.26905  0.39551  0.55758  1.0000
  C   C92       1.0  0.43717  0.36470  0.58678  1.0000
  C   C93       1.0  0.43306  0.36344  0.63610  1.0000
  H   H88       1.0  0.39838  0.33053  0.56541  1.0000
  N   N5        1.0  0.36989  0.07207  0.46959  1.0000
  H   H89       1.0  0.04342  0.45670  0.56052  1.0000
  C   C94       1.0  0.37169  0.08148  0.44298  1.0000
  H   H90       1.0  0.35762  0.28301  0.62160  1.0000
  C   C95       1.0  0.39809  0.10661  0.43327  1.0000
  C   C96       1.0  0.42282  0.12191  0.45082  1.0000
  H   H91       1.0  0.33033  0.02919  0.46363  1.0000
  C   C97       1.0  0.39392  0.08717  0.48709  1.0000
  H   H92       1.0  0.35278  0.06931  0.42901  1.0000
  H   H93       1.0  0.04081  0.32864  0.49576  1.0000
  H   H94       1.0  0.39955  0.11414  0.41220  1.0000
  H   H95       1.0  0.35489  0.29171  0.58621  1.0000
  C   C98       1.0  0.01286  0.38366  0.51704  1.0000
  S   S45       1.0  0.42089  0.48484  0.59507  1.0000
  N   N6        1.0  0.30088  0.38127  0.53277  1.0000
  H   H96       1.0  0.34824  0.40114  0.52664  1.0000
  C   C99       1.0  0.26289  0.34581  0.56356  1.0000
  C   C100      1.0  0.03534  0.48676  0.61284  1.0000
  C   C101      1.0  0.37562  0.00764  0.46439  1.0000
  H   H97       1.0  0.03039  0.46717  0.62532  1.0000
  C   C102      1.0  0.38437  0.00166  0.52119  1.0000
  H   H98       1.0  0.46295  0.99634  0.50871  1.0000
  S   S46       1.0  0.12185  0.43484  0.66910  1.0000
  C   C103      1.0  0.32682  0.38950  0.51460  1.0000
  N   N7        1.0  0.39184  0.32669  0.60881  1.0000
  H   H99       1.0  0.29332  0.33681  0.54033  1.0000
  S   S47       1.0  0.09086  0.49098  0.66511  1.0000
  C   C104      1.0  0.25409  0.36701  0.56980  1.0000
  H   H100      1.0  0.47101  0.43058  0.43600  1.0000
  H   H101      1.0  0.32566  0.36924  0.50493  1.0000
  H   H102      1.0  0.26278  0.41234  0.56290  1.0000
  Fe  Fe23      1.0  0.07914  0.39005  0.66627  1.0000
  Fe  Fe24      1.0  0.41732  0.34569  0.34177  1.0000
  S   S48       1.0  0.39037  0.00029  0.55700  1.0000
  N   N8        1.0  0.05005  0.49149  0.58828  1.0000
  H   H103      1.0  0.05564  0.45281  0.59411  1.0000
  C   C105      1.0  0.00594  0.37063  0.49062  1.0000
  H   H104      1.0  0.00457  0.39866  0.52301  1.0000
  H   H105      1.0  0.45066  0.00316  0.46079  1.0000
  H   H106      1.0  0.48343  0.22142  0.38985  1.0000
  H   H107      1.0  0.99338  0.49099  0.39589  1.0000
  H   H108      1.0  0.23339  0.46510  0.66940  1.0000
  Fe  Fe25      1.0  0.47779  0.36105  0.86584  1.0000
  S   S49       1.0  0.44947  0.38147  0.87834  1.0000
  H   H109      1.0  0.04829  0.40725  0.93569  1.0000
  Fe  Fe26      1.0  0.42532  0.29592  0.87094  1.0000
  S   S50       1.0  0.39297  0.31223  0.88369  1.0000
  S   S51       1.0  0.40478  0.24438  0.86717  1.0000
  Fe  Fe27      1.0  0.41440  0.34700  0.84969  1.0000
  S   S52       1.0  0.38863  0.36206  0.82053  1.0000
  Fe  Fe28      1.0  0.43059  0.34547  0.91111  1.0000
  S   S53       1.0  0.42971  0.35317  0.95762  1.0000
  S   S54       1.0  0.44392  0.32860  0.83537  1.0000
  S   S55       1.0  0.46167  0.32702  0.90024  1.0000
  C   C106      1.0  0.38291  0.00391  0.96578  1.0000
  S   S56       1.0  0.06886  0.36470  0.70725  1.0000
  H   H110      1.0  0.45016  0.40110  0.80235  1.0000
  Fe  Fe29      1.0  0.44123  0.10502  0.87273  1.0000
  S   S57       1.0  0.39249  0.06779  0.86978  1.0000
  S   S58       1.0  0.46062  0.15615  0.87694  1.0000
  Fe  Fe30      1.0  0.46543  0.06126  0.86338  1.0000
  S   S59       1.0  0.41842  0.02168  0.85934  1.0000
  H   H111      1.0  0.05355  0.47477  0.71605  1.0000
  Fe  Fe31      1.0  0.40809  0.05170  0.83320  1.0000
  S   S60       1.0  0.38383  0.04224  0.79151  1.0000
  Fe  Fe32      1.0  0.40738  0.04071  0.89646  1.0000
  H   H112      1.0  0.01712  0.47929  0.74677  1.0000
  S   S61       1.0  0.45595  0.09029  0.83497  1.0000
  S   S62       1.0  0.45523  0.07894  0.90160  1.0000
  H   H113      1.0  0.35833  0.03165  0.73699  1.0000
  H   H114      1.0  0.35899  0.38828  0.98742  1.0000
  S   S63       1.0  0.99714  0.38064  0.88039  1.0000
  C   C107      1.0  0.38483  0.16054  0.80918  1.0000
  N   N9        1.0  0.42878  0.15439  0.80674  1.0000
  C   C108      1.0  0.47860  0.04630  0.98187  1.0000
  H   H115      1.0  0.40298  0.05189  0.97102  1.0000
  H   H116      1.0  0.47297  0.18838  0.81941  1.0000
  C   C109      1.0  0.04279  0.36228  0.73294  1.0000
  C   C110      1.0  0.01969  0.36899  0.72732  1.0000
  H   H117      1.0  0.48595  0.06110  0.99955  1.0000
  H   H118      1.0  0.02763  0.34449  0.80127  1.0000
  C   C111      1.0  0.36739  0.99894  0.71751  1.0000
  H   H119      1.0  0.24045  0.40289  0.69946  1.0000
  H   H120      1.0  0.33464  0.27377  0.98378  1.0000
  S   S64       1.0  0.39341  0.37365  0.68903  1.0000
  H   H121      1.0  0.37515  0.17514  0.81206  1.0000
  C   C112      1.0  0.04592  0.35809  0.98800  1.0000
  C   C113      1.0  0.01854  0.34893  0.97367  1.0000
  C   C114      1.0  0.05762  0.42357  0.95297  1.0000
  H   H122      1.0  0.06522  0.35963  0.97718  1.0000
  H   H123      1.0  0.24718  0.46672  0.70405  1.0000
  H   H124      1.0  0.41374  0.29891  0.99044  1.0000
  C   C115      1.0  0.42081  0.22041  0.87156  1.0000
  C   C116      1.0  0.40132  0.18892  0.87272  1.0000
  C   C117      1.0  0.41294  0.16888  0.87488  1.0000
  C   C118      1.0  0.44431  0.18013  0.87588  1.0000
  C   C119      1.0  0.46375  0.21163  0.87524  1.0000
  C   C120      1.0  0.45213  0.23166  0.87311  1.0000
  H   H125      1.0  0.37703  0.17992  0.87170  1.0000
  H   H126      1.0  0.39765  0.14475  0.87548  1.0000
  C   C121      1.0  0.99932  0.36650  0.74818  1.0000
  H   H127      1.0  0.46747  0.25578  0.87231  1.0000
  C   C122      1.0  0.38976  0.36455  0.78388  1.0000
  C   C123      1.0  0.37358  0.37666  0.77031  1.0000
  C   C124      1.0  0.37433  0.37963  0.74140  1.0000
  C   C125      1.0  0.39136  0.37054  0.72562  1.0000
  C   C126      1.0  0.40760  0.35849  0.73921  1.0000
  C   C127      1.0  0.40680  0.35546  0.76808  1.0000
  H   H128      1.0  0.36033  0.38379  0.78223  1.0000
  H   H129      1.0  0.36172  0.38895  0.73137  1.0000
  H   H130      1.0  0.42079  0.35127  0.72731  1.0000
  H   H131      1.0  0.41923  0.34593  0.77808  1.0000
  C   C128      1.0  0.41170  0.36558  0.98160  1.0000
  H   H132      1.0  0.19665  0.35291  0.71058  1.0000
  C   C129      1.0  0.45771  0.43519  0.83180  1.0000
  H   H133      1.0  0.38475  0.37372  0.95227  1.0000
  C   C130      1.0  0.35845  0.29088  0.97886  1.0000
  C   C131      1.0  0.39647  0.00011  0.76709  1.0000
  H   H134      1.0  0.40756  0.00020  0.78612  1.0000
  H   H135      1.0  0.13645  0.38801  0.69492  1.0000
  S   S65       1.0  0.01672  0.34144  0.93777  1.0000
  C   C132      1.0  0.45412  0.01701  0.98407  1.0000
  C   C133      1.0  0.03333  0.43388  0.78611  1.0000
  C   C134      1.0  0.04530  0.35328  0.75975  1.0000
  C   C135      1.0  0.48297  0.03736  0.93399  1.0000
  H   H136      1.0  0.36454  0.23067  0.91206  1.0000
  H   H137      1.0  0.36464  0.08681  0.80028  1.0000
  C   C136      1.0  0.37520  0.24515  0.92963  1.0000
  C   C137      1.0  0.37894  0.11104  0.80284  1.0000
  H   H138      1.0  0.41619  0.24245  0.92678  1.0000
  H   H139      1.0  0.06371  0.41802  0.77450  1.0000
  H   H140      1.0  0.14416  0.34531  0.70828  1.0000
  C   C138      1.0  0.19299  0.37152  0.70513  1.0000
  C   C139      1.0  0.15928  0.39127  0.69626  1.0000
  H   H141      1.0  0.18098  0.43777  0.68368  1.0000
  H   H142      1.0  0.06888  0.43149  0.70574  1.0000
  C   C140      1.0  0.36605  0.12946  0.80610  1.0000
  H   H143      1.0  0.46852  0.15180  0.81607  1.0000
  H   H144      1.0  0.43077  0.19683  0.81238  1.0000
  C   C141      1.0  0.37561  0.38204  0.99380  1.0000
  H   H145      1.0  0.09109  0.42965  0.73354  1.0000
  C   C142      1.0  0.01992  0.45093  0.77828  1.0000
  N   N10       1.0  0.06088  0.44638  0.74360  1.0000
  C   C143      1.0  0.41636  0.17272  0.80930  1.0000
  C   C144      1.0  0.39423  0.03032  0.98131  1.0000
  N   N11       1.0  0.37407  0.27679  0.96537  1.0000
  H   H146      1.0  0.47061  0.17301  0.78540  1.0000
  N   N12       1.0  0.45857  0.00887  0.93620  1.0000
  H   H147      1.0  0.34156  0.11962  0.80629  1.0000
  C   C145      1.0  0.04802  0.46334  0.73581  1.0000
  C   C146      1.0  0.02741  0.46595  0.75304  1.0000
  N   N13       1.0  0.21322  0.42325  0.69122  1.0000
  C   C147      1.0  0.16361  0.36724  0.70375  1.0000
  S   S66       1.0  0.38205  0.00402  0.92922  1.0000
  C   C148      1.0  0.00201  0.35778  0.77506  1.0000
  C   C149      1.0  0.00543  0.41290  0.95997  1.0000
  C   C150      1.0  0.41053  0.12399  0.80299  1.0000
  H   H148      1.0  0.25843  0.45074  0.67645  1.0000
  H   H149      1.0  0.46030  0.00034  0.89333  1.0000
  H   H150      1.0  0.33843  0.25379  0.93628  1.0000
  C   C151      1.0  0.21771  0.39991  0.69892  1.0000
  C   C152      1.0  0.39023  0.37382  0.97375  1.0000
  C   C153      1.0  0.18451  0.41934  0.69010  1.0000
  H   H151      1.0  0.06296  0.34787  0.76435  1.0000
  C   C154      1.0  0.40245  0.28323  0.97377  1.0000
  C   C155      1.0  0.36052  0.25821  0.94346  1.0000
  C   C156      1.0  0.02522  0.35126  0.78076  1.0000
  C   C157      1.0  0.08144  0.44321  0.72462  1.0000
  C   C158      1.0  0.46186  0.16759  0.80670  1.0000
  C   C159      1.0  0.05399  0.43194  0.76848  1.0000
  C   C160      1.0  0.38323  0.01842  0.76437  1.0000
  C   C161      1.0  0.41802  0.27099  0.96006  1.0000
  H   H152      1.0  0.44093  0.27702  0.96613  1.0000
  H   H153      1.0  0.02712  0.42152  0.80542  1.0000
  H   H154      1.0  0.01719  0.37565  0.70680  1.0000
  H   H155      1.0  0.10048  0.46577  0.71877  1.0000
  H   H156      1.0  0.42026  0.10944  0.80020  1.0000
  C   C162      1.0  0.40420  0.25174  0.93791  1.0000
  H   H157      1.0  0.00119  0.40827  0.93824  1.0000
  C   C163      1.0  0.47938  0.45934  0.84716  1.0000
  H   H158      1.0  0.07348  0.41820  0.96422  1.0000
  H   H159      1.0  0.43366  0.42743  0.83428  1.0000
  H   H160      1.0  0.00357  0.45225  0.79170  1.0000
  C   C164      1.0  0.36874  0.01770  0.73940  1.0000
  N   N14       1.0  0.03319  0.42063  0.97094  1.0000
  C   C165      1.0  0.46711  0.42021  0.81377  1.0000
  H   H161      1.0  0.48806  0.22066  0.87617  1.0000
  H   H162      1.0  0.47235  0.47066  0.86174  1.0000
  H   H163      1.0  0.35605  0.99862  0.69857  1.0000
  H   H164      1.0  0.35853  0.30837  0.96509  1.0000
  C   C166      1.0  0.44439  0.99848  0.96088  1.0000
  C   C167      1.0  0.23936  0.45296  0.68511  1.0000
  H   H165      1.0  0.07025  0.44682  0.94453  1.0000
  H   H166      1.0  0.36981  0.30216  0.99833  1.0000
  C   C168      1.0  0.03857  0.42668  0.99835  1.0000
  C   C169      1.0  0.99367  0.34659  0.98810  1.0000
  H   H167      1.0  0.49242  0.38788  0.79640  1.0000
  H   H168      1.0  0.44218  0.00895  0.00342  1.0000
  C   C170      1.0  0.49331  0.05653  0.95671  1.0000
  Fe  Fe33      1.0  0.06774  0.66846  0.08555  1.0000
  S   S67       1.0  0.10754  0.66062  0.08207  1.0000
  S   S68       1.0  0.03914  0.67235  0.05092  1.0000
  Fe  Fe34      1.0  0.06578  0.66279  0.14927  1.0000
  S   S69       1.0  0.10501  0.65395  0.14993  1.0000
  S   S70       1.0  0.03936  0.66663  0.18567  1.0000
  Fe  Fe35      1.0  0.12688  0.69200  0.11865  1.0000
  S   S71       1.0  0.17733  0.72594  0.12683  1.0000
  Fe  Fe36      1.0  0.08292  0.62389  0.11342  1.0000
  S   S72       1.0  0.06666  0.57407  0.10670  1.0000
  S   S73       1.0  0.08860  0.70235  0.12003  1.0000
  S   S74       1.0  0.04220  0.63033  0.11506  1.0000
  Fe  Fe37      1.0  0.31828  0.89890  0.11190  1.0000
  S   S75       1.0  0.33418  0.94716  0.12470  1.0000
  S   S76       1.0  0.26726  0.86733  0.10419  1.0000
  Fe  Fe38      1.0  0.38393  0.91228  0.10596  1.0000
  S   S77       1.0  0.40397  0.96078  0.11783  1.0000
  S   S78       1.0  0.41381  0.89285  0.09386  1.0000
  Fe  Fe39      1.0  0.36886  0.94369  0.15150  1.0000
  H   H169      1.0  0.47361  0.88916  0.19516  1.0000
  Fe  Fe40      1.0  0.36814  0.96039  0.09000  1.0000
  C   C171      1.0  0.45285  0.89042  0.19500  1.0000
  S   S79       1.0  0.35059  0.89445  0.14074  1.0000
  S   S80       1.0  0.35037  0.91284  0.07592  1.0000
  C   C172      1.0  0.44892  0.90690  0.11074  1.0000
  C   C173      1.0  0.46909  0.89694  0.10285  1.0000
  C   C174      1.0  0.14442  0.76022  0.16909  1.0000
  C   C175      1.0  0.45656  0.92701  0.13258  1.0000
  H   H170      1.0  0.46322  0.88132  0.08595  1.0000
  H   H171      1.0  0.27224  0.88506  0.04777  1.0000
  H   H172      1.0  0.44114  0.93470  0.13892  1.0000
  C   C176      1.0  0.42482  0.91417  0.21105  1.0000
  C   C177      1.0  0.02828  0.61294  0.25253  1.0000
  H   H173      1.0  0.36293  0.95305  0.01887  1.0000
  C   C178      1.0  0.09679  0.52906  0.17806  1.0000
  N   N15       1.0  0.11510  0.72245  0.20278  1.0000
  C   C179      1.0  0.13953  0.73567  0.18553  1.0000
  C   C180      1.0  0.03246  0.65674  0.01735  1.0000
  H   H174      1.0  0.00397  0.67055  0.22961  1.0000
  C   C181      1.0  0.02818  0.64754  0.21791  1.0000
  C   C182      1.0  0.28132  0.90793  0.03999  1.0000
  C   C183      1.0  0.37171  0.97463  0.00859  1.0000
  C   C184      1.0  0.01763  0.51783  0.33229  1.0000
  H   H175      1.0  0.05014  0.62104  0.21284  1.0000
  H   H176      1.0  0.15997  0.56810  0.12136  1.0000
  H   H177      1.0  0.12913  0.50143  0.17769  1.0000
  H   H178      1.0  0.31457  0.98960  0.01341  1.0000
  C   C185      1.0  0.09044  0.50914  0.10590  1.0000
  C   C186      1.0  0.48378  0.93640  0.14696  1.0000
  H   H179      1.0  0.06950  0.64753  0.01734  1.0000
  C   C187      1.0  0.47195  0.55994  0.10156  1.0000
  C   C188      1.0  0.20226  0.76494  0.11889  1.0000
  C   C189      1.0  0.19247  0.78271  0.10501  1.0000
  C   C190      1.0  0.21268  0.81384  0.10066  1.0000
  C   C191      1.0  0.24304  0.82769  0.10981  1.0000
  C   C192      1.0  0.25292  0.80985  0.12339  1.0000
  C   C193      1.0  0.23264  0.77878  0.12796  1.0000
  H   H180      1.0  0.16926  0.77254  0.09784  1.0000
  H   H181      1.0  0.20469  0.82730  0.09012  1.0000
  H   H182      1.0  0.27610  0.82002  0.13061  1.0000
  H   H183      1.0  0.24055  0.76538  0.13874  1.0000
  C   C194      1.0  0.08893  0.55623  0.10753  1.0000
  C   C195      1.0  0.07441  0.52494  0.10323  1.0000
  H   H184      1.0  0.46999  0.92652  0.22468  1.0000
  H   H185      1.0  0.16392  0.77073  0.15564  1.0000
  C   C196      1.0  0.13605  0.55598  0.11632  1.0000
  C   C197      1.0  0.11991  0.57182  0.11389  1.0000
  H   H186      1.0  0.05045  0.51271  0.09832  1.0000
  C   C198      1.0  0.09851  0.75666  0.18692  1.0000
  C   C199      1.0  0.28611  0.91384  0.01194  1.0000
  H   H187      1.0  0.13134  0.59595  0.11720  1.0000
  C   C200      1.0  0.46671  0.52221  0.13511  1.0000
  C   C201      1.0  0.45453  0.53118  0.11362  1.0000
  H   H188      1.0  0.12077  0.54460  0.18125  1.0000
  H   H189      1.0  0.08659  0.56482  0.16987  1.0000
  H   H190      1.0  0.43200  0.51580  0.10599  1.0000
  N   N16       1.0  0.42954  0.87271  0.17759  1.0000
  H   H191      1.0  0.03524  0.59693  0.25889  1.0000
  H   H192      1.0  0.42033  0.84873  0.13989  1.0000
  C   C202      1.0  0.07757  0.54064  0.17181  1.0000
  H   H193      1.0  0.38509  0.86067  0.16335  1.0000
  H   H194      1.0  0.31679  0.98188  0.08724  1.0000
  H   H195      1.0  0.13173  0.69943  0.22789  1.0000
  C   C203      1.0  0.11002  0.69627  0.21932  1.0000
  C   C204      1.0  0.04695  0.52081  0.16650  1.0000
  C   C205      1.0  0.12367  0.77062  0.16966  1.0000
  C   C206      1.0  0.28847  0.93173  0.05810  1.0000
  H   H196      1.0  0.45871  0.51502  0.03681  1.0000
  H   H197      1.0  0.28638  0.98622  0.07234  1.0000
  H   H198      1.0  0.15529  0.72712  0.18413  1.0000
  H   H199      1.0  0.09443  0.69241  0.23678  1.0000
  C   C207      1.0  0.02722  0.56083  0.00768  1.0000
  N   N17       1.0  0.08572  0.49856  0.17920  1.0000
  C   C208      1.0  0.38766  0.98111  0.22249  1.0000
  H   H200      1.0  0.46263  0.56671  0.08474  1.0000
  C   C209      1.0  0.01928  0.57992  0.05017  1.0000
  H   H201      1.0  0.45596  0.85808  0.15513  1.0000
  N   N18       1.0  0.99650  0.58308  0.03830  1.0000
  H   H202      1.0  0.05349  0.56705  0.04460  1.0000
  S   S81       1.0  0.14161  0.50494  0.11729  1.0000
  H   H203      1.0  0.12692  0.78917  0.15645  1.0000
  C   C210      1.0  0.12128  0.52453  0.11264  1.0000
  H   H204      1.0  0.09946  0.67571  0.20636  1.0000
  H   H205      1.0  0.08180  0.76403  0.18712  1.0000
  H   H206      1.0  0.07467  0.72142  0.21650  1.0000
  C   C211      1.0  0.09465  0.73258  0.20356  1.0000
  H   H207      1.0  0.03218  0.52964  0.16051  1.0000
  C   C212      1.0  0.05052  0.64604  0.00583  1.0000
  S   S82       1.0  0.38410  0.95458  0.19673  1.0000
  C   C213      1.0  0.03683  0.62663  0.22638  1.0000
  C   C214      1.0  0.01079  0.61972  0.27050  1.0000
  C   C215      1.0  0.45100  0.91169  0.21173  1.0000
  C   C216      1.0  0.03510  0.56895  0.03505  1.0000
  C   C217      1.0  0.43187  0.85079  0.15991  1.0000
  C   C218      1.0  0.40358  0.87465  0.17716  1.0000
  C   C219      1.0  0.00203  0.64053  0.26196  1.0000
  H   H208      1.0  0.28450  0.92683  0.07988  1.0000
  H   H209      1.0  0.42128  0.82837  0.17012  1.0000
  H   H210      1.0  0.38033  0.89702  0.19353  1.0000
  N   N19       1.0  0.30048  0.96069  0.04855  1.0000
  H   H211      1.0  0.40511  0.96240  0.25256  1.0000
  C   C220      1.0  0.30728  0.98522  0.06781  1.0000
  H   H212      1.0  0.02558  0.58615  0.07140  1.0000
  H   H213      1.0  0.48927  0.95151  0.16422  1.0000
  C   C221      1.0  0.40080  0.89527  0.19399  1.0000
  C   C222      1.0  0.01081  0.65441  0.23589  1.0000
  H   H214      1.0  0.42310  0.93091  0.22346  1.0000
  C   C223      1.0  0.30483  0.96663  0.02102  1.0000
  C   C224      1.0  0.39896  0.97954  0.24858  1.0000
  H   H215      1.0  0.99537  0.61136  0.06980  1.0000
  C   C225      1.0  0.46073  0.49921  0.05041  1.0000
  H   H216      1.0  0.23060  0.50791  0.12126  1.0000
  H   H217      1.0  0.48017  0.96701  0.07835  1.0000
  H   H218      1.0  0.00553  0.55221  0.32568  1.0000
  S   S83       1.0  0.00109  0.60183  0.30334  1.0000
  C   C226      1.0  0.99756  0.52815  0.32514  1.0000
  H   H219      1.0  0.99406  0.66326  0.01054  1.0000
  C   C227      1.0  0.48540  0.50924  0.06846  1.0000
  H   H220      1.0  0.27454  0.50053  0.11187  1.0000
  C   C228      1.0  0.04957  0.53806  0.58222  1.0000
  H   H221      1.0  0.04567  0.74089  0.62472  1.0000
  C   C229      1.0  0.47320  0.53953  0.59639  1.0000
  C   C230      1.0  0.19542  0.70625  0.65857  1.0000
  C   C231      1.0  0.03434  0.62753  0.48944  1.0000
  H   H222      1.0  0.04777  0.61850  0.48075  1.0000
  Fe  Fe41      1.0  0.06083  0.66211  0.59498  1.0000
  S   S84       1.0  0.11065  0.67893  0.58845  1.0000
  S   S85       1.0  0.02904  0.66410  0.56250  1.0000
  C   C232      1.0  0.09359  0.54536  0.65695  1.0000
  H   H223      1.0  0.36325  0.92375  0.46938  1.0000
  Fe  Fe42      1.0  0.11769  0.70020  0.63009  1.0000
  S   S86       1.0  0.15705  0.74518  0.64522  1.0000
  Fe  Fe43      1.0  0.10140  0.63688  0.61168  1.0000
  S   S87       1.0  0.12107  0.60841  0.59646  1.0000
  S   S88       1.0  0.06825  0.68663  0.63548  1.0000
  S   S89       1.0  0.05133  0.61875  0.61549  1.0000
  Fe  Fe44      1.0  0.31627  0.89865  0.60706  1.0000
  S   S90       1.0  0.33061  0.94705  0.61886  1.0000
  S   S91       1.0  0.26972  0.86151  0.59169  1.0000
  Fe  Fe45      1.0  0.38230  0.91190  0.60650  1.0000
  S   S92       1.0  0.40062  0.96009  0.61813  1.0000
  S   S93       1.0  0.41140  0.89070  0.59751  1.0000
  Fe  Fe46      1.0  0.36281  0.94306  0.64904  1.0000
  Fe  Fe47      1.0  0.36774  0.96039  0.58706  1.0000
  H   H224      1.0  0.45276  0.95966  0.54605  1.0000
  S   S94       1.0  0.34605  0.89395  0.63875  1.0000
  S   S95       1.0  0.35172  0.91293  0.57381  1.0000
  C   C233      1.0  0.45056  0.91073  0.60515  1.0000
  C   C234      1.0  0.46765  0.89594  0.60367  1.0000
  H   H225      1.0  0.09868  0.75128  0.52600  1.0000
  C   C235      1.0  0.46466  0.94077  0.61370  1.0000
  H   H226      1.0  0.45689  0.87271  0.59696  1.0000
  C   C236      1.0  0.08311  0.73369  0.54063  1.0000
  H   H227      1.0  0.45193  0.95249  0.61469  1.0000
  H   H228      1.0  0.42259  0.96617  0.55740  1.0000
  C   C237      1.0  0.35311  0.98383  0.48001  1.0000
  C   C238      1.0  0.11963  0.77551  0.60523  1.0000
  C   C239      1.0  0.02267  0.64985  0.52833  1.0000
  H   H229      1.0  0.39446  0.86794  0.66185  1.0000
  C   C240      1.0  0.03966  0.63791  0.51680  1.0000
  H   H230      1.0  0.47518  0.53544  0.57494  1.0000
  H   H231      1.0  0.05706  0.63685  0.52888  1.0000
  C   C241      1.0  0.18921  0.77629  0.62974  1.0000
  C   C242      1.0  0.21166  0.79835  0.64674  1.0000
  C   C243      1.0  0.23697  0.82406  0.63553  1.0000
  C   C244      1.0  0.23987  0.82830  0.60709  1.0000
  C   C245      1.0  0.21754  0.80602  0.59008  1.0000
  C   C246      1.0  0.19257  0.78002  0.60128  1.0000
  C   C247      1.0  0.18448  0.66614  0.62784  1.0000
  H   H232      1.0  0.25378  0.84103  0.64890  1.0000
  H   H233      1.0  0.21958  0.80907  0.56806  1.0000
  H   H234      1.0  0.17572  0.76322  0.58788  1.0000
  C   C248      1.0  0.11421  0.57675  0.61640  1.0000
  C   C249      1.0  0.09987  0.57137  0.64188  1.0000
  H   H235      1.0  0.18170  0.71700  0.60184  1.0000
  C   C250      1.0  0.10131  0.52444  0.64653  1.0000
  C   C251      1.0  0.11615  0.53009  0.62127  1.0000
  C   C252      1.0  0.12277  0.55632  0.60634  1.0000
  C   C253      1.0  0.40646  0.96341  0.46169  1.0000
  C   C254      1.0  0.00023  0.65110  0.51213  1.0000
  H   H236      1.0  0.12246  0.51426  0.61321  1.0000
  H   H237      1.0  0.13411  0.56054  0.58672  1.0000
  C   C255      1.0  0.44854  0.51785  0.61173  1.0000
  H   H238      1.0  0.05954  0.72487  0.53289  1.0000
  C   C256      1.0  0.46773  0.55089  0.65134  1.0000
  C   C257      1.0  0.44607  0.52343  0.63940  1.0000
  H   H239      1.0  0.16722  0.62186  0.64580  1.0000
  C   C258      1.0  0.03474  0.53352  0.60729  1.0000
  C   C259      1.0  0.38552  0.93927  0.47761  1.0000
  H   H240      1.0  0.21218  0.71023  0.59205  1.0000
  C   C260      1.0  0.39312  0.93587  0.50453  1.0000
  H   H241      1.0  0.08778  0.71456  0.54074  1.0000
  C   C261      1.0  0.17560  0.64564  0.64970  1.0000
  H   H242      1.0  0.09760  0.77474  0.64311  1.0000
  H   H243      1.0  0.37650  0.91737  0.51692  1.0000
  H   H244      1.0  0.33991  0.96237  0.51997  1.0000
  N   N20       1.0  0.19455  0.69607  0.63248  1.0000
  H   H245      1.0  0.43842  0.85902  0.66328  1.0000
  H   H246      1.0  0.14232  0.79003  0.61322  1.0000
  N   N21       1.0  0.08681  0.74594  0.56843  1.0000
  C   C262      1.0  0.11539  0.76455  0.57838  1.0000
  C   C263      1.0  0.06197  0.73759  0.58474  1.0000
  H   H247      1.0  0.13514  0.77083  0.56565  1.0000
  C   C264      1.0  0.06540  0.74810  0.61170  1.0000
  C   C265      1.0  0.09447  0.76703  0.62201  1.0000
  C   C266      1.0  0.42830  0.95241  0.54364  1.0000
  C   C267      1.0  0.20240  0.71690  0.60920  1.0000
  Fe  Fe48      1.0  0.06245  0.64421  0.65558  1.0000
  H   H248      1.0  0.06905  0.52057  0.55365  1.0000
  C   C268      1.0  0.35755  0.98065  0.50818  1.0000
  H   H249      1.0  0.20932  0.79583  0.66879  1.0000
  H   H250      1.0  0.01667  0.50438  0.64255  1.0000
  H   H251      1.0  0.09324  0.58703  0.64984  1.0000
  H   H252      1.0  0.18270  0.65779  0.60708  1.0000
  C   C269      1.0  0.41657  0.88567  0.66857  1.0000
  H   H253      1.0  0.20243  0.72981  0.66218  1.0000
  N   N22       1.0  0.42094  0.95583  0.51519  1.0000
  H   H254      1.0  0.21953  0.74032  0.61516  1.0000
  H   H255      1.0  0.03931  0.72226  0.57713  1.0000
  H   H256      1.0  0.33196  0.96784  0.47032  1.0000
  H   H257      1.0  0.41543  0.92846  0.55051  1.0000
  C   C270      1.0  0.05698  0.51661  0.57290  1.0000
  S   S96       1.0  0.11216  0.65915  0.65276  1.0000
  C   C271      1.0  0.01194  0.62878  0.47322  1.0000
  H   H258      1.0  0.05626  0.55863  0.57057  1.0000
  C   C272      1.0  0.44138  0.97990  0.49990  1.0000
  H   H259      1.0  0.42706  0.50700  0.65134  1.0000
  H   H260      1.0  0.02962  0.55039  0.61511  1.0000
  C   C273      1.0  0.43459  0.98390  0.47285  1.0000
  S   S97       1.0  0.00584  0.61432  0.43913  1.0000
  C   C274      1.0  0.02748  0.50769  0.62271  1.0000
  H   H261      1.0  0.40053  0.96681  0.44103  1.0000
  C   C275      1.0  0.44124  0.88068  0.66938  1.0000
  C   C276      1.0  0.99477  0.64052  0.48480  1.0000
  C   C277      1.0  0.49232  0.57259  0.63592  1.0000
  H   H262      1.0  0.04064  0.53366  0.33864  1.0000
  S   S98       1.0  0.03645  0.61734  0.69366  1.0000
  H   H263      1.0  0.02450  0.71560  0.90662  1.0000
  C   C278      1.0  0.00899  0.60465  0.74442  1.0000
  H   H264      1.0  0.44142  0.97354  0.67259  1.0000
  C   C279      1.0  0.37156  0.97609  0.97966  1.0000
  S   S99       1.0  0.01156  0.61358  0.93123  1.0000
  H   H265      1.0  0.02469  0.72787  0.85703  1.0000
  N   N23       1.0  0.04743  0.67590  0.85202  1.0000
  C   C280      1.0  0.39493  0.98121  0.74529  1.0000
  S   S100      1.0  0.37911  0.95568  0.69380  1.0000
  C   C281      1.0  0.02355  0.62691  0.72403  1.0000
  H   H266      1.0  0.01865  0.68394  0.75559  1.0000
  C   C282      1.0  0.18654  0.68634  0.68090  1.0000
  C   C283      1.0  0.05494  0.65983  0.83136  1.0000
  C   C284      1.0  0.02715  0.65562  0.72838  1.0000
  H   H267      1.0  0.18670  0.69446  0.70146  1.0000
  C   C285      1.0  0.01934  0.63108  0.96402  1.0000
  H   H268      1.0  0.44829  0.96828  0.91564  1.0000
  C   C286      1.0  0.04421  0.63367  0.97918  1.0000
  H   H269      1.0  0.05844  0.62558  0.97047  1.0000
  C   C287      1.0  0.03910  0.68319  0.89919  1.0000
  C   C288      1.0  0.04680  0.66860  0.87915  1.0000
  H   H270      1.0  0.07450  0.65730  0.83812  1.0000
  H   H271      1.0  0.06083  0.67187  0.81129  1.0000
  C   C289      1.0  0.29775  0.94333  0.00231  1.0000
  H   H272      1.0  0.36272  0.95548  0.96790  1.0000
  C   C290      1.0  0.38037  0.98041  0.72035  1.0000
  C   C291      1.0  0.01602  0.66176  0.75264  1.0000
  C   C292      1.0  0.00806  0.65486  0.00189  1.0000
  H   H273      1.0  0.42486  0.97601  0.96252  1.0000
  H   H274      1.0  0.03501  0.63711  0.82782  1.0000
  C   C293      1.0  0.03123  0.70473  0.89128  1.0000
  H   H275      1.0  0.03930  0.70217  0.82250  1.0000
  H   H276      1.0  0.03823  0.67298  0.71295  1.0000
  C   C294      1.0  0.00122  0.63938  0.77288  1.0000
  H   H277      1.0  0.48933  0.90073  0.67700  1.0000
  H   H278      1.0  0.05186  0.65112  0.88548  1.0000
  C   C295      1.0  0.00133  0.64187  0.97548  1.0000
  C   C296      1.0  0.03145  0.71168  0.86354  1.0000
  H   H279      1.0  0.00602  0.58236  0.74133  1.0000
  H   H280      1.0  0.03861  0.67732  0.92069  1.0000
  C   C297      1.0  0.03980  0.69707  0.84408  1.0000
  H   H281      1.0  0.40168  0.91796  0.67438  1.0000
  H   H282      1.0  0.40488  0.96689  0.74791  1.0000
  H   H283      1.0  0.16905  0.64001  0.69341  1.0000
  C   C298      1.0  0.99796  0.61081  0.76869  1.0000
  C   C299      1.0  0.45286  0.96691  0.68847  1.0000
  N   N24       1.0  0.44905  0.93715  0.68218  1.0000
  H   H284      1.0  0.30195  0.94831  0.98056  1.0000
  H   H285      1.0  0.44225  0.96615  0.70859  1.0000
  C   C300      1.0  0.42088  0.91415  0.67527  1.0000
  C   C301      1.0  0.17661  0.65584  0.67638  1.0000
  H   H286      1.0  0.28091  0.89558  0.99774  1.0000
  C   C302      1.0  0.00348  0.56344  0.99590  1.0000
  H   H287      1.0  0.99758  0.55789  0.97443  1.0000
  H   H288      1.0  0.42311  0.98310  0.90811  1.0000
  C   C303      1.0  0.47329  0.93232  0.68352  1.0000
  C   C304      1.0  0.46977  0.90406  0.67709  1.0000
  C   C305      1.0  0.44709  0.98918  0.91215  1.0000
  H   H289      1.0  0.47711  0.98473  0.68895  1.0000
  H   H290      1.0  0.08216  0.54115  0.67651  1.0000
  H   H291      1.0  0.03963  0.55277  0.99555  1.0000
  H   H292      1.0  0.46533  0.55540  0.67257  1.0000
  C   C306      1.0  0.53017  0.45663  0.29910  1.0000
  S   S101      1.0  0.65952  0.01172  0.32000  1.0000
  C   C307      1.0  0.87617  0.25707  0.31863  1.0000
  C   C308      1.0  0.54708  0.42000  0.30116  1.0000
  H   H293      1.0  0.92469  0.22974  0.31125  1.0000
  N   N25       1.0  0.60483  0.05660  0.31302  1.0000
  H   H294      1.0  0.64082  0.02900  0.02294  1.0000
  H   H295      1.0  0.60670  0.01731  0.32538  1.0000
  C   C309      1.0  0.67189  0.00098  0.22759  1.0000
  C   C310      1.0  0.59276  0.02787  0.32320  1.0000
  H   H296      1.0  0.54283  0.06512  0.31649  1.0000
  H   H297      1.0  0.51209  0.99878  0.11686  1.0000
  H   H298      1.0  0.63808  0.07674  0.28181  1.0000
  H   H299      1.0  0.95212  0.31752  0.26074  1.0000
  H   H300      1.0  0.50535  0.49179  0.12626  1.0000
  H   H301      1.0  0.64911  0.06125  0.30977  1.0000
  H   H302      1.0  0.88365  0.29929  0.30218  1.0000
  H   H303      1.0  0.70974  0.04749  0.28174  1.0000
  H   H304      1.0  0.85507  0.25198  0.32865  1.0000
  H   H305      1.0  0.94817  0.33752  0.28916  1.0000
  H   H306      1.0  0.56460  0.00738  0.12279  1.0000
  C   C311      1.0  0.58721  0.06986  0.31035  1.0000
  H   H307      1.0  0.56520  0.41457  0.30263  1.0000
  H   H308      1.0  0.97683  0.35167  0.02716  1.0000
  C   C312      1.0  0.95829  0.47789  0.31696  1.0000
  C   C313      1.0  0.93540  0.31830  0.27496  1.0000
  C   C314      1.0  0.89238  0.28374  0.30351  1.0000
  C   C315      1.0  0.69516  0.02488  0.24249  1.0000
  C   C316      1.0  0.63666  0.07338  0.30439  1.0000
  C   C317      1.0  0.49374  0.40440  0.30163  1.0000
  H   H309      1.0  0.59700  0.09288  0.30288  1.0000
  C   C318      1.0  0.93062  0.27124  0.29358  1.0000
  C   C319      1.0  0.66470  0.00919  0.28417  1.0000
  C   C320      1.0  0.88764  0.23735  0.32125  1.0000
  H   H310      1.0  0.52865  0.49143  0.09837  1.0000
  C   C321      1.0  0.55660  0.05430  0.31796  1.0000
  N   N26       1.0  0.91892  0.29021  0.29075  1.0000
  C   C322      1.0  0.56234  0.01181  0.33135  1.0000
  H   H311      1.0  0.71626  0.04010  0.23232  1.0000
  C   C323      1.0  0.55071  0.99427  0.10561  1.0000
  H   H312      1.0  0.51138  0.37366  0.30434  1.0000
  H   H313      1.0  0.93492  0.46203  0.31166  1.0000
  H   H314      1.0  0.57730  0.46814  0.29966  1.0000
  C   C324      1.0  0.69151  0.02918  0.27053  1.0000
  C   C325      1.0  0.64673  0.01369  0.01302  1.0000
  S   S102      1.0  0.67852  0.99511  0.19287  1.0000
  H   H315      1.0  0.87533  0.21669  0.33310  1.0000
  C   C326      1.0  0.51685  0.39700  0.30214  1.0000
  H   H316      1.0  0.95223  0.27688  0.28430  1.0000
  H   H317      1.0  0.91958  0.32252  0.26238  1.0000
  H   H318      1.0  0.96969  0.44273  0.32390  1.0000
  C   C327      1.0  0.97787  0.46684  0.32362  1.0000
  N   N27       1.0  0.50058  0.43390  0.30024  1.0000
  C   C328      1.0  0.91519  0.24456  0.30887  1.0000
  C   C329      1.0  0.55386  0.45003  0.29955  1.0000
  H   H319      1.0  0.96862  0.41291  0.01804  1.0000
  H   H320      1.0  0.64844  0.09570  0.31474  1.0000
  C   C330      1.0  0.98693  0.41571  0.00474  1.0000
  H   H321      1.0  0.53574  0.48009  0.29861  1.0000
  C   C331      1.0  0.54418  0.02516  0.32867  1.0000
  H   H322      1.0  0.52075  0.01337  0.33558  1.0000
  H   H323      1.0  0.70620  0.03115  0.47777  1.0000
  C   C332      1.0  0.68745  0.01952  0.49186  1.0000
  H   H324      1.0  0.60244  0.06176  0.39107  1.0000
  S   S103      1.0  0.94212  0.34736  0.41777  1.0000
  H   H325      1.0  0.93187  0.26189  0.43212  1.0000
  Fe  Fe49      1.0  0.92002  0.31322  0.38375  1.0000
  S   S104      1.0  0.86876  0.27995  0.38481  1.0000
  Fe  Fe50      1.0  0.96537  0.38114  0.38387  1.0000
  C   C333      1.0  0.61590  0.11088  0.44128  1.0000
  S   S105      1.0  0.95738  0.30183  0.38208  1.0000
  Fe  Fe51      1.0  0.73308  0.10428  0.38284  1.0000
  S   S106      1.0  0.71341  0.05344  0.38773  1.0000
  S   S107      1.0  0.78481  0.13561  0.38593  1.0000
  Fe  Fe52      1.0  0.67032  0.09751  0.37577  1.0000
  S   S108      1.0  0.64745  0.04759  0.38009  1.0000
  S   S109      1.0  0.64295  0.12111  0.36818  1.0000
  Fe  Fe53      1.0  0.67889  0.05531  0.41556  1.0000
  S   S110      1.0  0.65169  0.02906  0.45360  1.0000
  H   H326      1.0  0.89490  0.24176  0.44829  1.0000
  S   S111      1.0  0.70014  0.10596  0.41267  1.0000
  C   C334      1.0  0.60613  0.08306  0.45408  1.0000
  H   H327      1.0  0.84941  0.17462  0.38975  1.0000
  C   C335      1.0  0.57536  0.48657  0.36610  1.0000
  C   C336      1.0  0.54362  0.46955  0.36557  1.0000
  H   H328      1.0  0.57837  0.45554  0.43238  1.0000
  S   S112      1.0  0.94008  0.34829  0.34994  1.0000
  C   C337      1.0  0.60329  0.10088  0.37338  1.0000
  C   C338      1.0  0.58916  0.07197  0.38492  1.0000
  C   C339      1.0  0.55766  0.05627  0.38904  1.0000
  C   C340      1.0  0.53984  0.06910  0.38139  1.0000
  C   C341      1.0  0.55388  0.09823  0.37021  1.0000
  C   C342      1.0  0.58558  0.11411  0.36630  1.0000
  H   H329      1.0  0.60017  0.11476  0.42910  1.0000
  C   C343      1.0  0.65882  0.01531  0.48486  1.0000
  H   H330      1.0  0.54031  0.10835  0.36432  1.0000
  N   N28       1.0  0.54777  0.47286  0.43402  1.0000
  C   C344      1.0  0.84601  0.23975  0.38585  1.0000
  C   C345      1.0  0.85855  0.22078  0.38805  1.0000
  C   C346      1.0  0.83949  0.18908  0.38809  1.0000
  C   C347      1.0  0.80767  0.17583  0.38593  1.0000
  C   C348      1.0  0.79519  0.19484  0.38379  1.0000
  C   C349      1.0  0.81424  0.22653  0.38379  1.0000
  H   H331      1.0  0.69863  0.03634  0.59891  1.0000
  H   H332      1.0  0.69310  0.11539  0.50028  1.0000
  H   H333      1.0  0.77085  0.18512  0.38205  1.0000
  H   H334      1.0  0.80422  0.24089  0.38201  1.0000
  C   C350      1.0  0.95615  0.44715  0.38557  1.0000
  C   C351      1.0  0.92543  0.43083  0.37834  1.0000
  C   C352      1.0  0.90852  0.44584  0.37551  1.0000
  H   H335      1.0  0.96258  0.32107  0.53836  1.0000
  H   H336      1.0  0.51243  0.48400  0.43579  1.0000
  H   H337      1.0  0.91488  0.40683  0.37455  1.0000
  S   S113      1.0  0.97968  0.43081  0.38635  1.0000
  N   N29       1.0  0.65642  0.10076  0.47188  1.0000
  H   H338      1.0  0.50445  0.42535  0.36585  1.0000
  C   C353      1.0  0.54552  0.42297  0.36817  1.0000
  C   C354      1.0  0.52880  0.43796  0.36655  1.0000
  C   C355      1.0  0.64627  0.13328  0.44323  1.0000
  C   C356      1.0  0.59233  0.47180  0.36777  1.0000
  C   C357      1.0  0.57738  0.44000  0.36876  1.0000
  C   C358      1.0  0.70199  0.03422  0.62066  1.0000
  C   C359      1.0  0.95902  0.28748  0.50967  1.0000
  H   H339      1.0  0.95297  0.25733  0.47666  1.0000
  H   H340      1.0  0.90567  0.30639  0.46806  1.0000
  H   H341      1.0  0.69229  0.09078  0.47326  1.0000
  H   H342      1.0  0.71753  0.00249  0.61440  1.0000
  C   C360      1.0  0.51809  0.46610  0.43523  1.0000
  H   H343      1.0  0.88289  0.23047  0.38951  1.0000
  N   N30       1.0  0.92783  0.28014  0.46998  1.0000
  H   H344      1.0  0.88479  0.43320  0.36982  1.0000
  C   C361      1.0  0.63475  0.00008  0.50353  1.0000
  H   H345      1.0  0.68520  0.06364  0.63341  1.0000
  H   H346      1.0  0.59053  0.42859  0.37000  1.0000
  C   C362      1.0  0.94659  0.27317  0.48470  1.0000
  H   H347      1.0  0.66639  0.07563  0.50146  1.0000
  S   S114      1.0  0.50017  0.04702  0.38504  1.0000
  H   H348      1.0  0.97500  0.28296  0.52065  1.0000
  H   H349      1.0  0.69005  0.14518  0.45980  1.0000
  C   C363      1.0  0.95206  0.30892  0.51959  1.0000
  Fe  Fe54      1.0  0.97910  0.33902  0.35024  1.0000
  C   C364      1.0  0.66632  0.12786  0.45881  1.0000
  Fe  Fe55      1.0  0.68318  0.04951  0.35180  1.0000
  C   C365      1.0  0.92052  0.30084  0.47974  1.0000
  H   H350      1.0  0.54696  0.03377  0.39778  1.0000
  C   C366      1.0  0.67812  0.09548  0.48756  1.0000
  C   C367      1.0  0.69440  0.04945  0.64001  1.0000
  Fe  Fe56      1.0  0.98095  0.33822  0.41418  1.0000
  S   S115      1.0  0.52720  0.38316  0.36944  1.0000
  H   H351      1.0  0.65433  0.15437  0.43209  1.0000
  H   H352      1.0  0.92776  0.33288  0.51179  1.0000
  H   H353      1.0  0.71396  0.01156  0.52215  1.0000
  C   C368      1.0  0.50166  0.41287  0.43460  1.0000
  C   C369      1.0  0.93268  0.31569  0.50457  1.0000
  H   H354      1.0  0.90688  0.27716  0.43097  1.0000
  C   C370      1.0  0.91467  0.26442  0.44413  1.0000
  S   S116      1.0  0.70471  0.09977  0.34536  1.0000
  C   C371      1.0  0.62686  0.07828  0.46926  1.0000
  H   H355      1.0  0.61929  0.05629  0.47853  1.0000
  C   C372      1.0  0.69176  0.00835  0.51710  1.0000
  H   H356      1.0  0.53758  0.40204  0.43234  1.0000
  C   C373      1.0  0.92231  0.47714  0.37963  1.0000
  C   C374      1.0  0.55490  0.45025  0.43364  1.0000
  H   H357      1.0  0.58283  0.06508  0.45166  1.0000
  N   N31       1.0  0.71621  0.01155  0.65693  1.0000
  C   C375      1.0  0.96961  0.47825  0.39035  1.0000
  H   H358      1.0  0.59638  0.13660  0.35757  1.0000
  C   C376      1.0  0.71267  0.01504  0.62955  1.0000
  C   C377      1.0  0.69782  0.04555  0.66790  1.0000
  C   C378      1.0  0.53196  0.41995  0.43380  1.0000
  H   H359      1.0  0.99243  0.37561  0.47656  1.0000
  H   H360      1.0  0.53038  0.48087  0.36432  1.0000
  H   H361      1.0  0.61249  0.99665  0.49838  1.0000
  H   H362      1.0  0.86955  0.49190  0.43736  1.0000
  H   H363      1.0  0.61687  0.48481  0.36824  1.0000
  H   H364      1.0  0.74789  0.99574  0.65468  1.0000
  C   C379      1.0  0.49461  0.43603  0.43542  1.0000
  C   C380      1.0  0.66762  0.99298  0.53568  1.0000
  H   H365      1.0  0.94400  0.29060  0.80275  1.0000
  S   S117      1.0  0.92726  0.35101  0.85913  1.0000
  H   H366      1.0  0.58496  0.43873  0.83620  1.0000
  H   H367      1.0  0.85306  0.47675  0.86431  1.0000
  S   S118      1.0  0.93987  0.34124  0.92297  1.0000
  H   H368      1.0  0.83262  0.27284  0.83329  1.0000
  Fe  Fe57      1.0  0.91548  0.31119  0.88686  1.0000
  S   S119      1.0  0.86447  0.27671  0.88717  1.0000
  Fe  Fe58      1.0  0.95481  0.38029  0.89386  1.0000
  H   H369      1.0  0.61842  0.48915  0.85676  1.0000
  S   S120      1.0  0.95573  0.30693  0.87330  1.0000
  Fe  Fe59      1.0  0.72970  0.10164  0.88080  1.0000
  S   S121      1.0  0.71315  0.05265  0.87055  1.0000
  S   S122      1.0  0.78148  0.13290  0.88067  1.0000
  Fe  Fe60      1.0  0.66451  0.08848  0.89002  1.0000
  S   S123      1.0  0.64410  0.03912  0.88106  1.0000
  S   S124      1.0  0.63644  0.11079  0.89973  1.0000
  Fe  Fe61      1.0  0.68204  0.04181  0.90719  1.0000
  S   S125      1.0  0.67693  0.00503  0.93758  1.0000
  Fe  Fe62      1.0  0.67644  0.05402  0.84523  1.0000
  S   S126      1.0  0.65505  0.03851  0.80238  1.0000
  S   S127      1.0  0.70056  0.09045  0.91863  1.0000
  S   S128      1.0  0.69521  0.10376  0.85322  1.0000
  H   H370      1.0  0.78457  0.13879  0.94166  1.0000
  H   H371      1.0  0.55342  0.46838  0.92117  1.0000
  H   H372      1.0  0.52867  0.02482  0.81362  1.0000
  C   C381      1.0  0.77156  0.11676  0.95129  1.0000
  H   H373      1.0  0.96959  0.48323  0.92036  1.0000
  C   C382      1.0  0.65770  0.01631  0.77551  1.0000
  C   C383      1.0  0.67702  0.00408  0.77689  1.0000
  C   C384      1.0  0.64089  0.99364  0.72988  1.0000
  C   C385      1.0  0.73702  0.08452  0.98625  1.0000
  C   C386      1.0  0.57016  0.08979  0.81404  1.0000
  C   C387      1.0  0.59751  0.09177  0.89101  1.0000
  C   C388      1.0  0.58053  0.10662  0.89345  1.0000
  C   C389      1.0  0.55026  0.09284  0.88409  1.0000
  C   C390      1.0  0.53694  0.06410  0.87236  1.0000
  C   C391      1.0  0.55344  0.04879  0.87114  1.0000
  C   C392      1.0  0.58360  0.06261  0.88027  1.0000
  H   H374      1.0  0.59116  0.12921  0.90180  1.0000
  H   H375      1.0  0.53771  0.10487  0.88506  1.0000
  H   H376      1.0  0.54318  0.02639  0.86245  1.0000
  H   H377      1.0  0.59621  0.05084  0.87844  1.0000
  C   C393      1.0  0.84200  0.23658  0.88727  1.0000
  C   C394      1.0  0.85475  0.21774  0.88690  1.0000
  C   C395      1.0  0.83586  0.18612  0.88499  1.0000
  C   C396      1.0  0.80403  0.17288  0.88364  1.0000
  C   C397      1.0  0.79129  0.19170  0.88435  1.0000
  C   C398      1.0  0.81017  0.22331  0.88608  1.0000
  H   H378      1.0  0.87916  0.22754  0.88782  1.0000
  H   H379      1.0  0.84601  0.17181  0.88456  1.0000
  H   H380      1.0  0.76688  0.18194  0.88337  1.0000
  H   H381      1.0  0.80001  0.23761  0.88638  1.0000
  C   C399      1.0  0.94928  0.44636  0.89170  1.0000
  C   C400      1.0  0.93260  0.43587  0.86739  1.0000
  C   C401      1.0  0.92311  0.45388  0.85324  1.0000
  H   H382      1.0  0.74069  0.01646  0.95039  1.0000
  C   C402      1.0  0.58816  0.48227  0.89027  1.0000
  H   H383      1.0  0.92672  0.41379  0.85970  1.0000
  H   H384      1.0  0.90998  0.44558  0.83458  1.0000
  H   H385      1.0  0.54926  0.09077  0.81400  1.0000
  H   H386      1.0  0.51235  0.07928  0.95464  1.0000
  H   H387      1.0  0.65685  0.03739  0.97406  1.0000
  C   C403      1.0  0.54981  0.42526  0.86665  1.0000
  C   C404      1.0  0.54088  0.43390  0.89045  1.0000
  C   C405      1.0  0.56018  0.46216  0.90239  1.0000
  C   C406      1.0  0.59680  0.47391  0.86612  1.0000
  C   C407      1.0  0.57787  0.44531  0.85459  1.0000
  C   C408      1.0  0.77129  0.09154  0.93980  1.0000
  H   H388      1.0  0.83598  0.22844  0.82840  1.0000
  S   S129      1.0  0.52604  0.39019  0.85080  1.0000
  H   H389      1.0  0.74251  0.03354  0.91783  1.0000
  C   C409      1.0  0.87765  0.22852  0.82080  1.0000
  H   H390      1.0  0.52768  0.04602  0.78440  1.0000
  H   H391      1.0  0.69125  0.05657  0.68323  1.0000
  H   H392      1.0  0.86564  0.30884  0.83059  1.0000
  Fe  Fe63      1.0  0.98092  0.33996  0.90801  1.0000
  H   H393      1.0  0.59607  0.13362  0.83295  1.0000
  C   C410      1.0  0.66357  0.99899  0.97209  1.0000
  C   C411      1.0  0.50611  0.41254  0.79220  1.0000
  C   C412      1.0  0.98186  0.41021  0.97667  1.0000
  H   H394      1.0  0.78430  0.09440  0.92132  1.0000
  H   H395      1.0  0.54625  0.02394  0.78169  1.0000
  S   S130      1.0  0.50099  0.04742  0.85649  1.0000
  H   H396      1.0  0.98146  0.37158  0.74348  1.0000
  H   H397      1.0  0.64324  0.08459  0.81869  1.0000
  C   C413      1.0  0.95668  0.47501  0.90158  1.0000
  H   H398      1.0  0.97234  0.33923  0.97757  1.0000
  C   C414      1.0  0.51866  0.45340  0.82527  1.0000
  S   S131      1.0  0.96095  0.42428  0.91058  1.0000
  C   C415      1.0  0.90159  0.28961  0.81031  1.0000
  H   H399      1.0  0.51935  0.41861  0.89994  1.0000
  N   N32       1.0  0.57026  0.06443  0.80514  1.0000
  H   H400      1.0  0.49427  0.04566  0.91450  1.0000
  H   H401      1.0  0.50254  0.41714  0.77063  1.0000
  C   C416      1.0  0.85960  0.24213  0.82247  1.0000
  Fe  Fe64      1.0  0.96882  0.34842  0.84713  1.0000
  C   C417      1.0  0.62303  0.11228  0.82650  1.0000
  C   C418      1.0  0.75417  0.11315  0.97458  1.0000
  C   C419      1.0  0.85286  0.28659  0.82022  1.0000
  H   H402      1.0  0.64333  0.13036  0.83590  1.0000
  H   H403      1.0  0.69096  0.00789  0.79492  1.0000
  H   H404      1.0  0.86802  0.20469  0.82551  1.0000
  H   H405      1.0  0.91121  0.31356  0.80620  1.0000
  N   N33       1.0  0.87184  0.27245  0.81788  1.0000
  H   H406      1.0  0.84541  0.28964  0.79961  1.0000
  H   H407      1.0  0.54256  0.46075  0.82284  1.0000
  C   C420      1.0  0.75382  0.03751  0.93819  1.0000
  C   C421      1.0  0.62292  0.08643  0.81722  1.0000
  C   C422      1.0  0.59617  0.06245  0.80679  1.0000
  C   C423      1.0  0.59653  0.11409  0.82481  1.0000
  C   C424      1.0  0.92024  0.27671  0.80824  1.0000
  H   H408      1.0  0.59630  0.04211  0.80051  1.0000
  C   C425      1.0  0.90822  0.24602  0.81381  1.0000
  H   H409      1.0  0.92262  0.23590  0.81286  1.0000
  H   H410      1.0  0.95975  0.40356  0.96780  1.0000
  C   C426      1.0  0.54187  0.03849  0.79567  1.0000
  N   N34       1.0  0.75436  0.06357  0.95132  1.0000
  N   N35       1.0  0.49718  0.42909  0.81100  1.0000
  H   H411      1.0  0.71101  0.02321  0.69779  1.0000
  H   H412      1.0  0.77724  0.04149  0.93548  1.0000
  C   C427      1.0  0.93051  0.48253  0.86316  1.0000
  C   C428      1.0  0.65579  0.01852  0.98525  1.0000
  H   H413      1.0  0.62475  0.02038  0.75045  1.0000
  S   S132      1.0  0.97619  0.35633  0.80055  1.0000
  C   C429      1.0  0.73752  0.05987  0.97436  1.0000
  H   H414      1.0  0.53025  0.41868  0.79517  1.0000
  C   C430      1.0  0.63976  0.01104  0.75181  1.0000
  C   C431      1.0  0.70900  0.02655  0.67604  1.0000
  H   H415      1.0  0.75367  0.13243  0.98330  1.0000
  H   H416      1.0  0.72391  0.03768  0.98342  1.0000
  H   H417      1.0  0.52726  0.48717  0.85584  1.0000
  C   C432      1.0  0.51011  0.46862  0.84385  1.0000
  H   H418      1.0  0.83171  0.48522  0.88846  1.0000
  H   H419      1.0  0.72300  0.08125  0.00412  1.0000
  S   S133      1.0  0.70208  0.64546  0.29840  1.0000
  Fe  Fe65      1.0  0.63679  0.65577  0.09034  1.0000
  S   S134      1.0  0.60677  0.67431  0.07767  1.0000
  S   S135      1.0  0.65908  0.63806  0.06030  1.0000
  Fe  Fe66      1.0  0.62124  0.65541  0.15208  1.0000
  S   S136      1.0  0.58993  0.67427  0.14288  1.0000
  S   S137      1.0  0.61859  0.63519  0.19506  1.0000
  Fe  Fe67      1.0  0.57308  0.64155  0.10781  1.0000
  S   S138      1.0  0.52392  0.61468  0.09421  1.0000
  Fe  Fe68      1.0  0.62618  0.70601  0.11370  1.0000
  S   S139      1.0  0.63973  0.75513  0.10303  1.0000
  S   S140      1.0  0.60158  0.62074  0.11831  1.0000
  S   S141      1.0  0.65901  0.68940  0.12486  1.0000
  N   N36       1.0  0.54414  0.96372  0.06603  1.0000
  Fe  Fe69      1.0  0.61125  0.89885  0.13652  1.0000
  S   S142      1.0  0.65489  0.94205  0.12673  1.0000
  S   S143      1.0  0.60346  0.85138  0.14698  1.0000
  Fe  Fe70      1.0  0.57619  0.93281  0.14543  1.0000
  H   H420      1.0  0.86094  0.65647  0.30582  1.0000
  S   S144      1.0  0.53531  0.93527  0.16053  1.0000
  Fe  Fe71      1.0  0.62520  0.95435  0.10087  1.0000
  H   H421      1.0  0.96090  0.57551  0.06556  1.0000
  Fe  Fe72      1.0  0.64302  0.96208  0.16275  1.0000
  H   H422      1.0  0.58485  0.98545  0.08963  1.0000
  S   S145      1.0  0.58210  0.90998  0.10861  1.0000
  S   S146      1.0  0.60169  0.91871  0.17403  1.0000
  H   H423      1.0  0.73762  0.58781  0.29781  1.0000
  C   C433      1.0  0.55670  0.95070  0.04686  1.0000
  H   H424      1.0  0.59865  0.75953  0.05858  1.0000
  H   H425      1.0  0.71052  0.93271  0.15944  1.0000
  C   C434      1.0  0.65313  0.96985  0.01493  1.0000
  C   C435      1.0  0.50341  0.97166  0.08061  1.0000
  C   C436      1.0  0.51523  0.95882  0.06260  1.0000
  H   H426      1.0  0.57448  0.96886  0.03395  1.0000
  H   H427      1.0  0.81271  0.55965  0.30845  1.0000
  C   C437      1.0  0.54152  0.73809  0.12147  1.0000
  C   C438      1.0  0.78525  0.58121  0.30696  1.0000
  C   C439      1.0  0.59757  0.58774  0.01698  1.0000
  H   H428      1.0  0.59281  0.60256  0.02935  1.0000
  C   C440      1.0  0.51333  0.57092  0.13276  1.0000
  C   C441      1.0  0.63078  0.78223  0.11656  1.0000
  C   C442      1.0  0.63980  0.80922  0.10185  1.0000
  C   C443      1.0  0.63202  0.83081  0.11089  1.0000
  C   C444      1.0  0.61508  0.82569  0.13488  1.0000
  C   C445      1.0  0.60634  0.79885  0.14976  1.0000
  C   C446      1.0  0.61417  0.77730  0.14074  1.0000
  H   H429      1.0  0.65279  0.81341  0.08318  1.0000
  H   H430      1.0  0.63897  0.85127  0.09918  1.0000
  H   H431      1.0  0.59334  0.79464  0.16841  1.0000
  H   H432      1.0  0.60715  0.75676  0.15237  1.0000
  H   H433      1.0  0.63013  0.67553  0.31886  1.0000
  C   C447      1.0  0.60497  0.56765  0.02968  1.0000
  N   N37       1.0  0.68809  0.93060  0.19729  1.0000
  C   C448      1.0  0.67894  0.64141  0.26921  1.0000
  C   C449      1.0  0.69141  0.66193  0.24719  1.0000
  C   C450      1.0  0.67357  0.66024  0.22415  1.0000
  C   C451      1.0  0.64287  0.63809  0.22295  1.0000
  C   C452      1.0  0.63047  0.61760  0.24500  1.0000
  C   C453      1.0  0.64835  0.61908  0.26787  1.0000
  H   H434      1.0  0.71503  0.67931  0.24790  1.0000
  H   H435      1.0  0.68349  0.67618  0.20742  1.0000
  H   H436      1.0  0.60679  0.60035  0.24432  1.0000
  H   H437      1.0  0.63836  0.60301  0.28450  1.0000
  C   C454      1.0  0.53100  0.68697  0.11481  1.0000
  C   C455      1.0  0.66411  0.64384  0.02422  1.0000
  H   H438      1.0  0.98867  0.64607  0.27549  1.0000
  C   C456      1.0  0.98005  0.59442  0.05459  1.0000
  C   C457      1.0  0.49589  0.54240  0.14493  1.0000
  H   H439      1.0  0.81182  0.65601  0.30587  1.0000
  H   H440      1.0  0.59388  0.72280  0.05580  1.0000
  C   C458      1.0  0.81189  0.63479  0.30547  1.0000
  S   S147      1.0  0.61704  0.97741  0.13648  1.0000
  C   C459      1.0  0.98819  0.57456  0.01165  1.0000
  H   H441      1.0  0.62336  0.88941  0.24986  1.0000
  H   H442      1.0  0.67961  0.61162  0.01984  1.0000
  H   H443      1.0  0.57007  0.77010  0.09111  1.0000
  H   H444      1.0  0.65222  0.95106  0.02615  1.0000
  H   H445      1.0  0.75032  0.60736  0.32998  1.0000
  H   H446      1.0  0.52039  0.66355  0.12140  1.0000
  H   H447      1.0  0.51157  0.89814  0.11150  1.0000
  C   C460      1.0  0.81266  0.58083  0.30667  1.0000
  H   H448      1.0  0.52673  0.52506  0.10613  1.0000
  H   H449      1.0  0.53594  0.58608  0.14037  1.0000
  H   H450      1.0  0.66732  0.93992  0.26077  1.0000
  C   C461      1.0  0.84003  0.60805  0.30591  1.0000
  H   H451      1.0  0.60590  0.56689  0.05192  1.0000
  H   H452      1.0  0.76412  0.56005  0.30918  1.0000
  C   C462      1.0  0.75628  0.60791  0.30803  1.0000
  H   H453      1.0  0.50234  0.53303  0.06867  1.0000
  H   H454      1.0  0.73476  0.95605  0.18656  1.0000
  C   C463      1.0  0.83971  0.63524  0.30531  1.0000
  C   C464      1.0  0.64478  0.98146  0.24107  1.0000
  C   C465      1.0  0.64535  0.98938  0.02808  1.0000
  H   H455      1.0  0.51470  0.70126  0.14914  1.0000
  H   H456      1.0  0.66237  0.89269  0.17120  1.0000
  H   H457      1.0  0.56643  0.73092  0.03956  1.0000
  C   C466      1.0  0.54848  0.69627  0.09089  1.0000
  C   C467      1.0  0.50158  0.57969  0.11085  1.0000
  N   N38       1.0  0.96818  0.50817  0.31804  1.0000
  Fe  Fe73      1.0  0.68867  0.61605  0.33717  1.0000
  H   H458      1.0  0.53948  0.75487  0.13346  1.0000
  C   C468      1.0  0.65720  0.66363  0.01011  1.0000
  H   H459      1.0  0.55085  0.67964  0.07901  1.0000
  C   C469      1.0  0.55884  0.74659  0.09744  1.0000
  C   C470      1.0  0.64173  0.90077  0.23527  1.0000
  S   S148      1.0  0.67801  0.56782  0.33601  1.0000
  H   H460      1.0  0.63968  0.64579  0.31624  1.0000
  H   H461      1.0  0.66241  0.68128  0.29919  1.0000
  H   H462      1.0  0.62056  0.96971  0.27954  1.0000
  C   C471      1.0  0.64051  0.88754  0.20997  1.0000
  C   C472      1.0  0.64138  0.98537  0.26922  1.0000
  C   C473      1.0  0.71201  0.94719  0.17700  1.0000
  C   C474      1.0  0.66643  0.92898  0.24147  1.0000
  H   H463      1.0  0.56745  0.93952  0.05833  1.0000
  H   H464      1.0  0.70807  0.96612  0.22664  1.0000
  N   N39       1.0  0.78514  0.60797  0.30600  1.0000
  C   C475      1.0  0.66394  0.90292  0.19105  1.0000
  C   C476      1.0  0.68954  0.94364  0.22212  1.0000
  C   C477      1.0  0.64910  0.67056  0.31810  1.0000
  H   H465      1.0  0.70981  0.69969  0.32105  1.0000
  H   H466      1.0  0.62119  0.86581  0.20467  1.0000
  C   C478      1.0  0.52775  0.70811  0.13029  1.0000
  N   N40       1.0  0.56269  0.72589  0.08285  1.0000
  C   C479      1.0  0.58110  0.73520  0.05783  1.0000
  H   H467      1.0  0.64943  0.67674  0.02139  1.0000
  C   C480      1.0  0.67428  0.62706  0.00914  1.0000
  H   H468      1.0  0.61828  0.53401  0.02333  1.0000
  H   H469      1.0  0.75746  0.62820  0.29819  1.0000
  H   H470      1.0  0.62667  0.96296  0.22994  1.0000
  H   H471      1.0  0.50535  0.53573  0.16172  1.0000
  C   C481      1.0  0.49648  0.90649  0.11719  1.0000
  H   H472      1.0  0.53906  0.93352  0.03326  1.0000
  C   C482      1.0  0.94745  0.51925  0.31039  1.0000
  H   H473      1.0  0.97131  0.60631  0.04143  1.0000
  C   C483      1.0  0.61233  0.54958  0.01366  1.0000
  C   C484      1.0  0.52131  0.98946  0.10226  1.0000
  C   C485      1.0  0.56191  0.98140  0.08703  1.0000
  C   C486      1.0  0.51344  0.50000  0.10507  1.0000
  H   H474      1.0  0.95440  0.54142  0.31997  1.0000
  H   H475      1.0  0.86148  0.60814  0.30711  1.0000
  H   H476      1.0  0.50091  0.94450  0.04621  1.0000
  C   C487      1.0  0.50354  0.92580  0.13964  1.0000
  H   H477      1.0  0.70998  0.96653  0.16886  1.0000
  H   H478      1.0  0.94750  0.52214  0.28781  1.0000
  S   S149      1.0  0.63359  0.98472  0.06306  1.0000
  H   H479      1.0  0.92399  0.50356  0.31764  1.0000
  C   C488      1.0  0.91180  0.55438  0.47608  1.0000
  C   C489      1.0  0.63849  0.84805  0.56173  1.0000
  Fe  Fe74      1.0  0.68420  0.61531  0.40103  1.0000
  S   S150      1.0  0.67356  0.56697  0.40368  1.0000
  S   S151      1.0  0.69033  0.64586  0.43777  1.0000
  Fe  Fe75      1.0  0.71050  0.57995  0.37180  1.0000
  S   S152      1.0  0.74319  0.56096  0.37145  1.0000
  Fe  Fe76      1.0  0.64264  0.55949  0.36772  1.0000
  H   H480      1.0  0.56305  0.84485  0.53011  1.0000
  S   S153      1.0  0.72317  0.62885  0.37133  1.0000
  S   S154      1.0  0.65132  0.60729  0.36670  1.0000
  Fe  Fe77      1.0  0.91971  0.60325  0.37049  1.0000
  S   S155      1.0  0.97107  0.63420  0.36921  1.0000
  S   S156      1.0  0.88812  0.62352  0.36853  1.0000
  Fe  Fe78      1.0  0.92563  0.54693  0.37432  1.0000
  H   H481      1.0  0.57663  0.51338  0.45545  1.0000
  Fe  Fe79      1.0  0.97214  0.60485  0.40371  1.0000
  C   C490      1.0  0.65420  0.67556  0.36801  1.0000
  H   H482      1.0  0.97747  0.64168  0.47265  1.0000
  S   S157      1.0  0.92126  0.57602  0.40646  1.0000
  H   H483      1.0  0.62273  0.54610  0.64356  1.0000
  N   N41       1.0  0.94250  0.53473  0.45790  1.0000
  H   H484      1.0  0.96365  0.51706  0.39092  1.0000
  H   H485      1.0  0.68602  0.88061  0.56565  1.0000
  C   C491      1.0  0.71695  0.70420  0.36457  1.0000
  C   C492      1.0  0.78357  0.57896  0.37382  1.0000
  C   C493      1.0  0.79755  0.56100  0.37358  1.0000
  C   C494      1.0  0.82949  0.57418  0.37301  1.0000
  C   C495      1.0  0.84793  0.60561  0.37258  1.0000
  C   C496      1.0  0.83396  0.62356  0.37346  1.0000
  C   C497      1.0  0.80202  0.61038  0.37410  1.0000
  Fe  Fe80      1.0  0.62986  0.65519  0.64558  1.0000
  H   H486      1.0  0.55158  0.77661  0.61051  1.0000
  H   H487      1.0  0.62965  0.66343  0.36962  1.0000
  H   H488      1.0  0.79172  0.62455  0.37441  1.0000
  C   C498      1.0  0.66713  0.63892  0.46743  1.0000
  C   C499      1.0  0.67650  0.66135  0.48777  1.0000
  C   C500      1.0  0.63966  0.61204  0.47110  1.0000
  H   H489      1.0  0.69768  0.68223  0.48524  1.0000
  H   H490      1.0  0.63205  0.59459  0.45570  1.0000
  C   C501      1.0  0.49836  0.91075  0.61174  1.0000
  H   H491      1.0  0.51524  0.52955  0.63780  1.0000
  Fe  Fe81      1.0  0.60954  0.64818  0.58434  1.0000
  S   S158      1.0  0.57707  0.66570  0.59290  1.0000
  S   S159      1.0  0.60789  0.62295  0.54473  1.0000
  H   H492      1.0  0.51404  0.58320  0.59641  1.0000
  C   C502      1.0  0.49530  0.95560  0.62162  1.0000
  Fe  Fe82      1.0  0.56454  0.63687  0.63116  1.0000
  S   S160      1.0  0.51934  0.60651  0.65175  1.0000
  Fe  Fe83      1.0  0.61495  0.70129  0.61875  1.0000
  S   S161      1.0  0.63481  0.75284  0.62050  1.0000
  S   S162      1.0  0.59400  0.61721  0.62109  1.0000
  S   S163      1.0  0.64816  0.68520  0.60819  1.0000
  Fe  Fe84      1.0  0.59906  0.89133  0.62611  1.0000
  S   S164      1.0  0.64871  0.92487  0.63003  1.0000
  S   S165      1.0  0.57806  0.84062  0.61789  1.0000
  Fe  Fe85      1.0  0.58165  0.94072  0.63147  1.0000
  H   H493      1.0  0.91008  0.57163  0.48759  1.0000
  S   S166      1.0  0.54914  0.95895  0.63476  1.0000
  Fe  Fe86      1.0  0.63950  0.95413  0.60109  1.0000
  C   C503      1.0  0.72670  0.99066  0.66557  1.0000
  C   C504      1.0  0.91750  0.51177  0.44556  1.0000
  S   S167      1.0  0.59051  0.91946  0.59495  1.0000
  H   H494      1.0  0.86437  0.53008  0.46503  1.0000
  C   C505      1.0  0.93996  0.55595  0.47294  1.0000
  H   H495      1.0  0.98884  0.55144  0.46960  1.0000
  H   H496      1.0  0.50587  0.97866  0.62878  1.0000
  C   C506      1.0  0.60958  0.84396  0.55640  1.0000
  H   H497      1.0  0.74143  0.71462  0.36299  1.0000
  C   C507      1.0  0.70314  0.69840  0.39025  1.0000
  C   C508      1.0  0.61803  0.77641  0.62097  1.0000
  C   C509      1.0  0.58724  0.76546  0.61549  1.0000
  C   C510      1.0  0.57536  0.78534  0.61516  1.0000
  C   C511      1.0  0.59393  0.81634  0.62063  1.0000
  C   C512      1.0  0.62463  0.82721  0.62660  1.0000
  C   C513      1.0  0.63659  0.80740  0.62658  1.0000
  S   S168      1.0  0.90096  0.49571  0.37556  1.0000
  H   H498      1.0  0.57263  0.74174  0.61111  1.0000
  H   H499      1.0  0.63925  0.85096  0.63080  1.0000
  C   C514      1.0  0.97240  0.53765  0.45334  1.0000
  H   H500      1.0  0.98695  0.66032  0.52076  1.0000
  Fe  Fe87      1.0  0.63505  0.94551  0.66430  1.0000
  H   H501      1.0  0.62026  0.97729  0.54279  1.0000
  C   C515      1.0  0.65882  0.65699  0.51151  1.0000
  C   C516      1.0  0.63138  0.63008  0.51523  1.0000
  C   C517      1.0  0.62196  0.60771  0.49481  1.0000
  H   H502      1.0  0.66644  0.67442  0.52694  1.0000
  H   H503      1.0  0.60078  0.58684  0.49739  1.0000
  H   H504      1.0  0.78355  0.53668  0.37337  1.0000
  S   S169      1.0  0.63034  0.97747  0.63565  1.0000
  C   C518      1.0  0.56332  0.54464  0.63763  1.0000
  H   H505      1.0  0.84797  0.64788  0.37322  1.0000
  S   S170      1.0  0.59226  0.52611  0.36498  1.0000
  H   H506      1.0  0.57521  0.88364  0.53776  1.0000
  H   H507      1.0  0.67872  0.92441  0.55458  1.0000
  H   H508      1.0  0.59334  0.50730  0.42513  1.0000
  H   H509      1.0  0.56197  0.85607  0.56500  1.0000
  C   C519      1.0  0.57503  0.86300  0.54548  1.0000
  H   H510      1.0  0.95984  0.57452  0.48224  1.0000
  H   H511      1.0  0.63812  0.58652  0.64614  1.0000
  H   H512      1.0  0.62738  0.91601  0.54506  1.0000
  H   H513      1.0  0.64122  0.82882  0.56709  1.0000
  C   C520      1.0  0.67159  0.68407  0.39205  1.0000
  C   C521      1.0  0.63025  0.89669  0.54955  1.0000
  C   C522      1.0  0.66355  0.87710  0.56109  1.0000
  H   H514      1.0  0.83979  0.56002  0.37227  1.0000
  C   C523      1.0  0.63907  0.98898  0.52876  1.0000
  C   C524      1.0  0.65948  0.90162  0.55493  1.0000
  H   H515      1.0  0.66046  0.81619  0.63083  1.0000
  H   H516      1.0  0.56278  0.53683  0.61687  1.0000
  S   S171      1.0  0.67421  0.97915  0.56716  1.0000
  S   S172      1.0  0.97603  0.57380  0.37350  1.0000
  C   C525      1.0  0.88620  0.53108  0.46345  1.0000
  C   C526      1.0  0.57198  0.50454  0.43416  1.0000
  N   N42       1.0  0.60577  0.86809  0.55030  1.0000
  C   C527      1.0  0.53637  0.54052  0.64930  1.0000
  H   H517      1.0  0.66072  0.67853  0.41205  1.0000
  H   H518      1.0  0.59004  0.82144  0.55806  1.0000
  C   C528      1.0  0.51209  0.94050  0.62116  1.0000
  S   S173      1.0  0.59980  0.67367  0.65770  1.0000
  N   N43       1.0  0.59021  0.55971  0.65164  1.0000
  H   H519      1.0  0.71675  0.70410  0.40885  1.0000
  S   S174      1.0  0.58577  0.90989  0.66227  1.0000
  C   C529      1.0  0.88903  0.50962  0.44804  1.0000
  H   H520      1.0  0.51114  0.89894  0.61135  1.0000
  H   H521      1.0  0.67165  0.75035  0.66128  1.0000
  H   H522      1.0  0.56558  0.51865  0.42135  1.0000
  C   C530      1.0  0.61852  0.56499  0.63875  1.0000
  H   H523      1.0  0.98163  0.54920  0.43341  1.0000
  H   H524      1.0  0.61768  0.56745  0.61611  1.0000
  H   H525      1.0  0.91951  0.49521  0.43329  1.0000
  H   H526      1.0  0.97094  0.51518  0.45301  1.0000
  C   C531      1.0  0.49520  0.56665  0.60848  1.0000
  S   S175      1.0  0.91993  0.57161  0.33847  1.0000
  Fe  Fe88      1.0  0.97093  0.60048  0.33909  1.0000
  H   H527      1.0  0.55307  0.98932  0.33999  1.0000
  H   H528      1.0  0.70881  0.96708  0.66115  1.0000
  C   C532      1.0  0.95285  0.49317  0.38727  1.0000
  N   N44       1.0  0.66793  0.68143  0.34287  1.0000
  C   C533      1.0  0.69890  0.69560  0.34093  1.0000
  Fe  Fe89      1.0  0.66119  0.60382  0.83748  1.0000
  S   S176      1.0  0.67214  0.56616  0.84245  1.0000
  S   S177      1.0  0.63550  0.61225  0.80271  1.0000
  Fe  Fe90      1.0  0.67803  0.62351  0.89872  1.0000
  S   S178      1.0  0.69164  0.58862  0.90718  1.0000
  S   S179      1.0  0.67501  0.65502  0.93017  1.0000
  Fe  Fe91      1.0  0.71402  0.60060  0.86553  1.0000
  S   S180      1.0  0.76287  0.61340  0.85387  1.0000
  Fe  Fe92      1.0  0.64904  0.55728  0.88372  1.0000
  C   C534      1.0  0.76502  0.64447  0.94933  1.0000
  S   S181      1.0  0.70360  0.63855  0.85874  1.0000
  S   S182      1.0  0.63504  0.59205  0.87698  1.0000
  H   H529      1.0  0.64114  0.77208  0.67891  1.0000
  Fe  Fe93      1.0  0.91130  0.59317  0.88059  1.0000
  S   S183      1.0  0.95862  0.63406  0.88050  1.0000
  S   S184      1.0  0.86615  0.58600  0.89794  1.0000
  Fe  Fe94      1.0  0.93463  0.55190  0.86016  1.0000
  C   C535      1.0  0.81857  0.53909  0.83672  1.0000
  Fe  Fe95      1.0  0.97417  0.60349  0.89944  1.0000
  C   C536      1.0  0.65780  0.70825  0.73028  1.0000
  Fe  Fe96      1.0  0.96437  0.61653  0.83949  1.0000
  N   N45       1.0  0.60671  0.57301  0.97287  1.0000
  S   S185      1.0  0.92689  0.56390  0.90230  1.0000
  S   S186      1.0  0.91614  0.57837  0.83848  1.0000
  C   C537      1.0  0.82898  0.54043  0.81005  1.0000
  H   H530      1.0  0.87129  0.51193  0.88247  1.0000
  C   C538      1.0  0.62747  0.75071  0.69053  1.0000
  H   H531      1.0  0.77431  0.66839  0.88325  1.0000
  S   S187      1.0  0.66315  0.95999  0.70387  1.0000
  S   S188      1.0  0.61212  0.51701  0.90661  1.0000
  C   C539      1.0  0.75107  0.70372  0.89748  1.0000
  C   C540      1.0  0.66224  0.97471  0.98714  1.0000
  H   H532      1.0  0.81853  0.52430  0.87801  1.0000
  H   H533      1.0  0.82433  0.55270  0.79429  1.0000
  C   C541      1.0  0.75254  0.66134  0.95977  1.0000
  N   N46       1.0  0.75599  0.68320  0.91519  1.0000
  C   C542      1.0  0.59083  0.56974  0.67773  1.0000
  C   C543      1.0  0.79075  0.60445  0.86598  1.0000
  C   C544      1.0  0.78611  0.58617  0.88902  1.0000
  C   C545      1.0  0.80952  0.58103  0.89853  1.0000
  C   C546      1.0  0.83771  0.59367  0.88499  1.0000
  C   C547      1.0  0.84217  0.61149  0.86167  1.0000
  C   C548      1.0  0.81888  0.61694  0.85236  1.0000
  H   H534      1.0  0.76460  0.57624  0.89967  1.0000
  H   H535      1.0  0.80575  0.56713  0.91654  1.0000
  H   H536      1.0  0.86365  0.62137  0.85099  1.0000
  H   H537      1.0  0.82280  0.63114  0.83453  1.0000
  C   C549      1.0  0.64292  0.62158  0.76728  1.0000
  C   C550      1.0  0.66905  0.62519  0.75427  1.0000
  C   C551      1.0  0.67379  0.63264  0.72609  1.0000
  C   C552      1.0  0.65258  0.63669  0.71061  1.0000
  C   C553      1.0  0.62645  0.63311  0.72360  1.0000
  C   C554      1.0  0.62168  0.62557  0.75172  1.0000
  H   H538      1.0  0.68558  0.62217  0.76590  1.0000
  H   H539      1.0  0.69409  0.63534  0.71628  1.0000
  H   H540      1.0  0.60997  0.63625  0.71201  1.0000
  H   H541      1.0  0.60139  0.62285  0.76158  1.0000
  C   C555      1.0  0.67045  0.64970  0.96628  1.0000
  C   C556      1.0  0.66070  0.66678  0.98136  1.0000
  C   C557      1.0  0.56438  0.56631  0.68990  1.0000
  H   H542      1.0  0.65571  0.68251  0.97075  1.0000
  H   H543      1.0  0.68456  0.61634  0.96904  1.0000
  C   C558      1.0  0.84589  0.52640  0.80393  1.0000
  C   C559      1.0  0.60878  0.57637  0.94299  1.0000
  C   C560      1.0  0.68524  0.72542  0.68768  1.0000
  H   H544      1.0  0.98666  0.59331  0.78399  1.0000
  H   H545      1.0  0.73805  0.69345  0.95045  1.0000
  C   C561      1.0  0.74827  0.68079  0.94232  1.0000
  H   H546      1.0  0.76499  0.72731  0.90476  1.0000
  H   H547      1.0  0.69351  0.69949  0.71802  1.0000
  C   C562      1.0  0.82558  0.52405  0.85707  1.0000
  C   C563      1.0  0.59866  0.59023  0.98835  1.0000
  C   C564      1.0  0.68041  0.71039  0.71271  1.0000
  H   H548      1.0  0.98220  0.64018  0.96407  1.0000
  H   H549      1.0  0.60849  0.73491  0.67708  1.0000
  H   H550      1.0  0.72670  0.69745  0.89787  1.0000
  C   C565      1.0  0.64051  0.72162  0.72265  1.0000
  H   H551      1.0  0.75710  0.70270  0.87576  1.0000
  H   H552      1.0  0.66834  0.95952  0.97724  1.0000
  H   H553      1.0  0.76829  0.62912  0.96254  1.0000
  H   H554      1.0  0.65324  0.69563  0.74936  1.0000
  H   H555      1.0  0.58896  0.55703  0.93310  1.0000
  H   H556      1.0  0.61792  0.75614  0.70867  1.0000
  C   C566      1.0  0.67823  0.98675  0.75490  1.0000
  H   H557      1.0  0.95328  0.51517  0.89507  1.0000
  H   H558      1.0  0.59425  0.60690  0.97871  1.0000
  N   N47       1.0  0.84177  0.50997  0.85081  1.0000
  C   C567      1.0  0.66785  0.73889  0.68088  1.0000
  H   H559      1.0  0.61019  0.59786  0.93611  1.0000
  H   H560      1.0  0.74584  0.65916  0.98116  1.0000
  C   C568      1.0  0.67705  0.62965  0.98032  1.0000
  S   S189      1.0  0.98305  0.58896  0.85839  1.0000
  H   H561      1.0  0.69319  0.97735  0.75628  1.0000
  H   H562      1.0  0.56520  0.57542  0.71016  1.0000
  H   H563      1.0  0.78275  0.63428  0.91329  1.0000
  H   H564      1.0  0.80574  0.55026  0.84180  1.0000
  H   H565      1.0  0.51653  0.54992  0.68422  1.0000
  H   H566      1.0  0.85468  0.52781  0.78340  1.0000
  C   C569      1.0  0.76833  0.66680  0.90480  1.0000
  H   H567      1.0  0.62249  0.71924  0.73612  1.0000
  C   C570      1.0  0.61283  0.55239  0.98505  1.0000
  C   C571      1.0  0.77310  0.64730  0.92171  1.0000
  S   S190      1.0  0.65980  0.64640  0.67523  1.0000
  S   S191      1.0  0.91783  0.50435  0.84527  1.0000
  H   H568      1.0  0.61205  0.58122  0.68896  1.0000
  H   H569      1.0  0.62975  0.57691  0.93562  1.0000
  N   N48       1.0  0.64608  0.73722  0.69845  1.0000
  S   S192      1.0  0.98755  0.64827  0.80311  1.0000
  C   C572      1.0  0.85208  0.51114  0.82468  1.0000
  C   C573      1.0  0.66006  0.98125  0.73135  1.0000
  C   C574      1.0  0.53705  0.55182  0.67545  1.0000
  H   H570      1.0  0.86576  0.50082  0.81989  1.0000
  H   H571      1.0  0.61880  0.53849  0.97257  1.0000
  H   H572      1.0  0.73116  0.99192  0.68804  1.0000
  H   H573      1.0  0.97029  0.57723  0.00211  1.0000
  H   H574      1.0  0.62684  0.98972  0.71191  1.0000
  H   H575      1.0  0.49580  0.95058  0.68854  1.0000
  C   C575      1.0  0.84974  0.49519  0.87260  1.0000
  H   H576      1.0  0.70184  0.72598  0.67337  1.0000
  C   C576      1.0  0.94746  0.49312  0.88730  1.0000
