data_image0
_chemical_formula_structural       SNSFeS2FeS2FeSFeS3FeS2FeS2FeSFeS3HC2H2CHC5H3C6H4CHCNHC6H3C6H5CHCHFeC3HCH2C2H3CHCNC6H8C2H3CH2CH2SH2CHNH2CHCH2C2NHCH2SCHCH5C3HFeHCFeHSH2SFeSCFe2S2C2SCS2HSHFeC3HCHSC2H2SCFeC6H5NC6H8CH2NCHS2FeH2CH4C2NC3HC3HCH2FeS2FeS2FeSFeS3FeSFeCSHC2S2CH3CHC6H4C3H2C3H2CH2C6H4CHC3HSHNC3H3C2NC6H8NH3FeH2CH4SC2SC4H2CFeS2FeS2FeSFeS3FeS2FeS2FeSFeS6C6H3C6H4C6H4C6H7C6H6C2H3CHC2HCH2NHCH2C2HNH4CH2CNC6H8NC3H2C2HCHCH2FeHNC5FeH3C3H2CS2CFeS2CNHSCFeSH2SCFe2S2C6H7SHC3HCH4C2FeSC3SCH2CH4C2NHSH2NC4HC3H2CHCNFeSH3C2SFeCH3C2HS2C2H2CFeSHFeSHFeS2FeSFeS4H3C6H4C5H2C6H4CHSCH5CHC3HCNH2C2FeH6CHNC6H2SH2CFeH3C2H2CNCSCH4C3HC3FeSH2CFeS2FeS2FeSFeS3H3C7H4C3H2C5H4C6H11CSH2CNC2H2C3NC2HC4HC3H2CSH2CHNH5FeS2FeHSCHFeS2FeHFeSFeHS2CHSCHC7H4SC6H5SCNCHSC2SC2NCSH2CH4C2HCH3C2NC4H5C2H2CHC2FeC2FeH2SHCH2SHCHFe2S2FeS2FeSFeS3FeS2FeS2FeSFeS3FeS2FeSCHC2H2C8HCH2CH3CH3C6H4C6H4C2HCHNHC2H3C3HCHC2N2C6H16C2HCH2CHC2NHC4H4C3H3SCH2NHCNHCFeS2FeS2FeHFeS3CHSFeSCHCNC2H2C6H5C5H4C6H5CHC3HFeH2SHC4H3CHCSHCH2NCHCHSHCHCHNC2HCH2NC2H2CNSC3H4FeS2FeHFeSFeS3FeHSHCHSHCHCH4C2HC4H2CHC6HC6H4CHCHCH2NSNHCH3C3SFeC2HC2HCSH3SCNHCSH2FeHCHSHFeS2FeHFeSFeS2FeS2FeSFeS3FeS2FeS2FeSFeS3CH2CNCHC7H4C6HCH6C6H4C6H5CH2CH2CHCH3CHC3H7NC6H8SCNC6H2NH3NC6H2SC2H4CH3SC3
_chemical_formula_sum              "S192 N48 Fe96 H576 C576"
_cell_length_a       44.3129
_cell_length_b       44.6508
_cell_length_c       44.6765
_cell_angle_alpha    90.0807
_cell_angle_beta     90.0337
_cell_angle_gamma    90.1295

_space_group_name_H-M_alt    "P 1"
_space_group_IT_number       1

loop_
  _space_group_symop_operation_xyz
  'x, y, z'

loop_
  _atom_site_type_symbol
  _atom_site_label
  _atom_site_symmetry_multiplicity
  _atom_site_fract_x
  _atom_site_fract_y
  _atom_site_fract_z
  _atom_site_occupancy
  S   S1        1.0  0.14749  0.17667  0.31268  1.0000
  N   N1        1.0  0.27272  0.25458  0.07776  1.0000
  S   S2        1.0  0.19624  0.10763  0.30195  1.0000
  Fe  Fe1       1.0  0.36220  0.10962  0.25144  1.0000
  S   S3        1.0  0.34340  0.09085  0.20872  1.0000
  S   S4        1.0  0.33914  0.10997  0.29651  1.0000
  Fe  Fe2       1.0  0.41778  0.13629  0.22061  1.0000
  S   S5        1.0  0.40251  0.12112  0.17511  1.0000
  S   S6        1.0  0.46127  0.16013  0.23323  1.0000
  Fe  Fe3       1.0  0.35613  0.13562  0.18958  1.0000
  S   S7        1.0  0.31840  0.15738  0.16358  1.0000
  Fe  Fe4       1.0  0.39115  0.07766  0.19814  1.0000
  S   S8        1.0  0.40948  0.03687  0.17402  1.0000
  S   S9        1.0  0.37243  0.15508  0.23291  1.0000
  S   S10       1.0  0.40903  0.09218  0.24299  1.0000
  Fe  Fe5       1.0  0.21454  0.34357  0.11245  1.0000
  S   S11       1.0  0.26155  0.36091  0.11813  1.0000
  S   S12       1.0  0.18571  0.34626  0.07081  1.0000
  Fe  Fe6       1.0  0.20948  0.32545  0.17799  1.0000
  S   S13       1.0  0.25612  0.34175  0.18944  1.0000
  S   S14       1.0  0.17561  0.30150  0.20730  1.0000
  Fe  Fe7       1.0  0.24468  0.38164  0.16077  1.0000
  S   S15       1.0  0.26246  0.42830  0.17055  1.0000
  Fe  Fe8       1.0  0.26929  0.31993  0.14612  1.0000
  S   S16       1.0  0.31360  0.29600  0.14043  1.0000
  S   S17       1.0  0.19673  0.36739  0.15309  1.0000
  S   S18       1.0  0.22357  0.30053  0.13658  1.0000
  H   H1        1.0  0.26896  0.44768  0.06974  1.0000
  C   C1        1.0  0.20187  0.51105  0.17074  1.0000
  C   C2        1.0  0.19924  0.34289  0.03380  1.0000
  H   H2        1.0  0.15439  0.34179  0.01509  1.0000
  H   H3        1.0  0.24174  0.29101  0.07160  1.0000
  C   C3        1.0  0.30922  0.21623  0.08817  1.0000
  H   H4        1.0  0.14051  0.45447  0.09370  1.0000
  C   C4        1.0  0.25146  0.48829  0.16870  1.0000
  C   C5        1.0  0.23852  0.45963  0.17015  1.0000
  C   C6        1.0  0.20716  0.45668  0.17171  1.0000
  C   C7        1.0  0.18887  0.48239  0.17204  1.0000
  C   C8        1.0  0.26050  0.44609  0.09306  1.0000
  H   H5        1.0  0.27574  0.49069  0.16740  1.0000
  H   H6        1.0  0.19701  0.43465  0.17293  1.0000
  H   H7        1.0  0.16459  0.48002  0.17333  1.0000
  C   C9        1.0  0.31780  0.19669  0.16338  1.0000
  C   C10       1.0  0.28996  0.21155  0.16354  1.0000
  C   C11       1.0  0.28860  0.24255  0.15847  1.0000
  C   C12       1.0  0.31506  0.25862  0.15261  1.0000
  C   C13       1.0  0.34299  0.24393  0.15363  1.0000
  C   C14       1.0  0.34440  0.21305  0.15937  1.0000
  H   H8        1.0  0.26932  0.19895  0.16659  1.0000
  H   H9        1.0  0.26700  0.25371  0.15782  1.0000
  H   H10       1.0  0.36350  0.25633  0.14914  1.0000
  H   H11       1.0  0.36593  0.20165  0.15908  1.0000
  C   C15       1.0  0.49361  0.15764  0.21051  1.0000
  H   H12       1.0  0.27233  0.28910  0.04522  1.0000
  C   C16       1.0  0.49151  0.15095  0.18002  1.0000
  N   N2        1.0  0.22751  0.44843  0.09343  1.0000
  H   H13       1.0  0.46968  0.14661  0.17003  1.0000
  C   C17       1.0  0.23593  0.10972  0.29980  1.0000
  C   C18       1.0  0.25278  0.12482  0.32159  1.0000
  C   C19       1.0  0.28443  0.12484  0.32030  1.0000
  C   C20       1.0  0.29945  0.11047  0.29673  1.0000
  C   C21       1.0  0.28265  0.09590  0.27454  1.0000
  C   C22       1.0  0.25097  0.09521  0.27631  1.0000
  H   H14       1.0  0.47544  0.22454  0.21579  1.0000
  H   H15       1.0  0.29408  0.08445  0.25648  1.0000
  H   H16       1.0  0.23812  0.08334  0.25942  1.0000
  C   C23       1.0  0.19286  0.26030  0.29889  1.0000
  C   C24       1.0  0.17856  0.24387  0.27630  1.0000
  C   C25       1.0  0.17553  0.25581  0.24746  1.0000
  C   C26       1.0  0.18718  0.28417  0.24073  1.0000
  C   C27       1.0  0.20318  0.29997  0.26270  1.0000
  C   C28       1.0  0.20596  0.28805  0.29175  1.0000
  H   H17       1.0  0.16862  0.22257  0.28112  1.0000
  H   H18       1.0  0.16297  0.24357  0.23063  1.0000
  H   H19       1.0  0.21195  0.32206  0.25777  1.0000
  H   H20       1.0  0.21726  0.30089  0.30901  1.0000
  H   H21       1.0  0.24640  0.34423  0.04525  1.0000
  C   C29       1.0  0.28600  0.19567  0.09298  1.0000
  H   H22       1.0  0.48902  0.07114  0.12464  1.0000
  C   C30       1.0  0.21414  0.47552  0.09877  1.0000
  H   H23       1.0  0.29736  0.13598  0.33760  1.0000
  Fe  Fe9       1.0  0.17200  0.13860  0.33383  1.0000
  C   C31       1.0  0.24976  0.23452  0.08224  1.0000
  C   C32       1.0  0.08100  0.22545  0.26980  1.0000
  C   C33       1.0  0.25604  0.20481  0.09004  1.0000
  H   H24       1.0  0.32028  0.26195  0.07799  1.0000
  C   C34       1.0  0.49558  0.08322  0.22526  1.0000
  H   H25       1.0  0.24158  0.13567  0.33999  1.0000
  H   H26       1.0  0.48372  0.08603  0.24633  1.0000
  C   C35       1.0  0.23011  0.34226  0.02734  1.0000
  C   C36       1.0  0.18268  0.47814  0.09899  1.0000
  H   H27       1.0  0.26788  0.42452  0.10298  1.0000
  H   H28       1.0  0.29127  0.17296  0.09998  1.0000
  H   H29       1.0  0.45553  0.07188  0.20073  1.0000
  C   C37       1.0  0.24687  0.50107  0.24175  1.0000
  H   H30       1.0  0.22296  0.04874  0.33413  1.0000
  C   C38       1.0  0.30213  0.24579  0.08060  1.0000
  N   N3        1.0  0.25175  0.18276  0.27362  1.0000
  C   C39       1.0  0.22719  0.17147  0.25878  1.0000
  C   C40       1.0  0.28017  0.17886  0.26232  1.0000
  C   C41       1.0  0.23083  0.15525  0.23220  1.0000
  C   C42       1.0  0.28456  0.16289  0.23578  1.0000
  C   C43       1.0  0.25976  0.15099  0.22066  1.0000
  C   C44       1.0  0.24769  0.20009  0.30119  1.0000
  H   H31       1.0  0.20467  0.17435  0.26780  1.0000
  H   H32       1.0  0.29970  0.18771  0.27404  1.0000
  H   H33       1.0  0.21139  0.14564  0.22095  1.0000
  H   H34       1.0  0.30708  0.15948  0.22708  1.0000
  H   H35       1.0  0.26315  0.13832  0.20017  1.0000
  H   H36       1.0  0.22574  0.19493  0.31205  1.0000
  H   H37       1.0  0.26563  0.19475  0.31771  1.0000
  H   H38       1.0  0.24832  0.22444  0.29611  1.0000
  C   C45       1.0  0.03256  0.15269  0.34039  1.0000
  C   C46       1.0  0.47662  0.06579  0.14556  1.0000
  H   H39       1.0  0.09369  0.20428  0.27334  1.0000
  H   H40       1.0  0.32320  0.49380  0.24420  1.0000
  H   H41       1.0  0.13144  0.31606  0.26582  1.0000
  C   C47       1.0  0.17876  0.42555  0.08718  1.0000
  H   H42       1.0  0.51080  0.21882  0.17751  1.0000
  H   H43       1.0  0.49287  0.21916  0.25144  1.0000
  C   C48       1.0  0.10321  0.24978  0.31360  1.0000
  H   H44       1.0  0.05842  0.22285  0.28036  1.0000
  H   H45       1.0  0.22076  0.40238  0.08212  1.0000
  S   S19       1.0  0.06282  0.17531  0.32784  1.0000
  H   H46       1.0  0.45506  0.07853  0.14507  1.0000
  H   H47       1.0  0.22774  0.49516  0.10364  1.0000
  C   C49       1.0  0.10678  0.27428  0.26657  1.0000
  H   H48       1.0  0.33252  0.20959  0.09151  1.0000
  N   N4        1.0  0.09727  0.25056  0.28356  1.0000
  H   H49       1.0  0.27116  0.46389  0.10696  1.0000
  H   H50       1.0  0.17225  0.49950  0.10418  1.0000
  C   C50       1.0  0.12285  0.29794  0.27963  1.0000
  H   H51       1.0  0.10290  0.27469  0.24259  1.0000
  C   C51       1.0  0.47964  0.07563  0.19931  1.0000
  H   H52       1.0  0.27903  0.30141  0.08332  1.0000
  H   H53       1.0  0.51597  0.14530  0.13865  1.0000
  C   C52       1.0  0.26609  0.28551  0.06902  1.0000
  C   C53       1.0  0.11941  0.27294  0.32734  1.0000
  N   N5        1.0  0.49408  0.07354  0.17235  1.0000
  H   H54       1.0  0.16521  0.40577  0.08253  1.0000
  C   C54       1.0  0.16493  0.45290  0.09333  1.0000
  H   H55       1.0  0.47093  0.04152  0.14582  1.0000
  H   H56       1.0  0.22641  0.24150  0.08013  1.0000
  S   S20       1.0  0.19275  0.24780  0.33646  1.0000
  C   C55       1.0  0.49135  0.23481  0.23215  1.0000
  H   H57       1.0  0.23784  0.18909  0.09421  1.0000
  C   C56       1.0  0.21027  0.42374  0.08713  1.0000
  H   H58       1.0  0.48144  0.25632  0.23979  1.0000
  H   H59       1.0  0.14297  0.31459  0.32034  1.0000
  H   H60       1.0  0.27720  0.46532  0.22923  1.0000
  H   H61       1.0  0.07778  0.22850  0.24534  1.0000
  H   H62       1.0  0.22696  0.48870  0.23472  1.0000
  C   C57       1.0  0.27525  0.48774  0.23858  1.0000
  C   C58       1.0  0.12933  0.29711  0.31018  1.0000
  C   C59       1.0  0.30104  0.50376  0.24684  1.0000
  H   H63       1.0  0.09585  0.23088  0.32701  1.0000
  Fe  Fe10      1.0  0.11030  0.16824  0.34560  1.0000
  H   H64       1.0  0.36267  0.01391  0.21382  1.0000
  C   C60       1.0  0.51771  0.15034  0.16229  1.0000
  Fe  Fe11      1.0  0.15446  0.15808  0.39667  1.0000
  H   H65       1.0  0.42414  0.45969  0.62356  1.0000
  S   S21       1.0  0.15474  0.13946  0.44388  1.0000
  H   H66       1.0  0.05896  0.12728  0.37177  1.0000
  H   H67       1.0  0.27293  0.06321  0.35492  1.0000
  S   S22       1.0  0.41948  0.39192  0.65764  1.0000
  Fe  Fe12      1.0  0.20454  0.20190  0.66289  1.0000
  S   S23       1.0  0.12993  0.19912  0.38041  1.0000
  C   C61       1.0  0.22928  0.11326  0.43442  1.0000
  Fe  Fe13      1.0  0.38920  0.35307  0.66869  1.0000
  Fe  Fe14      1.0  0.22663  0.17907  0.60152  1.0000
  S   S24       1.0  0.25800  0.14555  0.62279  1.0000
  S   S25       1.0  0.23098  0.19209  0.55257  1.0000
  C   C62       1.0  0.26022  0.02779  0.65554  1.0000
  C   C63       1.0  0.22437  0.06087  0.35518  1.0000
  S   S26       1.0  0.31708  0.19443  0.66969  1.0000
  C   C64       1.0  0.37855  0.49793  0.66844  1.0000
  S   S27       1.0  0.18689  0.16734  0.63063  1.0000
  S   S28       1.0  0.24078  0.21692  0.63161  1.0000
  H   H68       1.0  0.19716  0.18947  0.44809  1.0000
  S   S29       1.0  0.37620  0.31773  0.63509  1.0000
  H   H69       1.0  0.14108  0.04929  0.65434  1.0000
  Fe  Fe15      1.0  0.21921  0.13618  0.65417  1.0000
  C   C65       1.0  0.35793  0.28655  0.65067  1.0000
  C   C66       1.0  0.50946  0.35095  0.67438  1.0000
  C   C67       1.0  0.44875  0.46455  0.62376  1.0000
  H   H70       1.0  0.25441  0.07429  0.64337  1.0000
  C   C68       1.0  0.32772  0.28092  0.64347  1.0000
  H   H71       1.0  0.17618  0.06448  0.36021  1.0000
  S   S30       1.0  0.13260  0.12681  0.36326  1.0000
  C   C69       1.0  0.33163  0.23075  0.66407  1.0000
  C   C70       1.0  0.22016  0.05974  0.67426  1.0000
  H   H72       1.0  0.12520  0.27161  0.35092  1.0000
  H   H73       1.0  0.48627  0.34802  0.66735  1.0000
  S   S31       1.0  0.19550  0.16655  0.36840  1.0000
  C   C71       1.0  0.31459  0.25312  0.65022  1.0000
  Fe  Fe16      1.0  0.26970  0.18315  0.65445  1.0000
  C   C72       1.0  0.17490  0.15544  0.47412  1.0000
  C   C73       1.0  0.17196  0.14272  0.50273  1.0000
  C   C74       1.0  0.18863  0.15397  0.52714  1.0000
  C   C75       1.0  0.20862  0.17786  0.52299  1.0000
  C   C76       1.0  0.21163  0.19051  0.49434  1.0000
  C   C77       1.0  0.19473  0.17947  0.47000  1.0000
  H   H74       1.0  0.15668  0.12409  0.50605  1.0000
  H   H75       1.0  0.18617  0.14405  0.54909  1.0000
  H   H76       1.0  0.22703  0.20903  0.49098  1.0000
  H   H77       1.0  0.21248  0.10566  0.45131  1.0000
  H   H78       1.0  0.31481  0.29760  0.63148  1.0000
  N   N6        1.0  0.35319  0.23799  0.58717  1.0000
  C   C78       1.0  0.34258  0.26418  0.57529  1.0000
  C   C79       1.0  0.33470  0.21349  0.58950  1.0000
  C   C80       1.0  0.31253  0.26647  0.56590  1.0000
  C   C81       1.0  0.30464  0.21496  0.58010  1.0000
  C   C82       1.0  0.29350  0.24165  0.56832  1.0000
  C   C83       1.0  0.38492  0.23571  0.59618  1.0000
  H   H79       1.0  0.35711  0.28375  0.57388  1.0000
  H   H80       1.0  0.34290  0.19283  0.59931  1.0000
  H   H81       1.0  0.30398  0.28743  0.55707  1.0000
  H   H82       1.0  0.28993  0.19561  0.58219  1.0000
  H   H83       1.0  0.27008  0.24307  0.56125  1.0000
  H   H84       1.0  0.39861  0.22712  0.57725  1.0000
  H   H85       1.0  0.39400  0.25790  0.60324  1.0000
  H   H86       1.0  0.38744  0.22047  0.61569  1.0000
  C   C84       1.0  0.25240  0.06907  0.36684  1.0000
  H   H87       1.0  0.39801  0.26900  0.67142  1.0000
  H   H88       1.0  0.27557  0.09332  0.40139  1.0000
  N   N7        1.0  0.22777  0.09449  0.40751  1.0000
  C   C85       1.0  0.25370  0.08627  0.39303  1.0000
  H   H89       1.0  0.29162  0.24888  0.64380  1.0000
  S   S32       1.0  0.36957  0.46159  0.65600  1.0000
  S   S33       1.0  0.19931  0.09336  0.67338  1.0000
  Fe  Fe17      1.0  0.16894  0.20443  0.34842  1.0000
  H   H90       1.0  0.46106  0.44324  0.61979  1.0000
  H   H91       1.0  0.45404  0.47983  0.60487  1.0000
  C   C86       1.0  0.20019  0.08666  0.39612  1.0000
  H   H92       1.0  0.27993  0.02484  0.64156  1.0000
  H   H93       1.0  0.22404  0.13686  0.42854  1.0000
  H   H94       1.0  0.17961  0.09382  0.40715  1.0000
  H   H95       1.0  0.25184  0.11249  0.44522  1.0000
  C   C87       1.0  0.24587  0.05585  0.65660  1.0000
  C   C88       1.0  0.37454  0.26487  0.66604  1.0000
  N   N8        1.0  0.45723  0.47802  0.65251  1.0000
  C   C89       1.0  0.03680  0.13068  0.36221  1.0000
  C   C90       1.0  0.17091  0.01714  0.63380  1.0000
  C   C91       1.0  0.14737  0.02585  0.65275  1.0000
  H   H96       1.0  0.18251  0.03416  0.62080  1.0000
  C   C92       1.0  0.45426  0.50826  0.65662  1.0000
  C   C93       1.0  0.19807  0.06979  0.36979  1.0000
  C   C94       1.0  0.46671  0.46016  0.67553  1.0000
  H   H97       1.0  0.46875  0.43616  0.67249  1.0000
  C   C95       1.0  0.36140  0.23700  0.67270  1.0000
  H   H98       1.0  0.48133  0.45812  0.72155  1.0000
  H   H99       1.0  0.34310  0.31136  0.71455  1.0000
  Fe  Fe18      1.0  0.17212  0.29461  0.84726  1.0000
  S   S34       1.0  0.15075  0.33400  0.82435  1.0000
  S   S35       1.0  0.17419  0.24826  0.82705  1.0000
  Fe  Fe19      1.0  0.19791  0.33256  0.89859  1.0000
  S   S36       1.0  0.17895  0.37475  0.87891  1.0000
  S   S37       1.0  0.23186  0.33378  0.93676  1.0000
  Fe  Fe20      1.0  0.13697  0.34748  0.87086  1.0000
  S   S38       1.0  0.09311  0.37029  0.88321  1.0000
  Fe  Fe21      1.0  0.19462  0.35719  0.83447  1.0000
  S   S39       1.0  0.21753  0.38720  0.80042  1.0000
  S   S40       1.0  0.15496  0.30605  0.89344  1.0000
  S   S41       1.0  0.21668  0.31704  0.85468  1.0000
  Fe  Fe22      1.0  0.43881  0.38514  0.70355  1.0000
  S   S42       1.0  0.48804  0.39197  0.71551  1.0000
  Fe  Fe23      1.0  0.37697  0.37501  0.73131  1.0000
  C   C96       1.0  0.33122  0.29381  0.72773  1.0000
  S   S43       1.0  0.35377  0.35824  0.77291  1.0000
  H   H100      1.0  0.21390  0.29123  0.70120  1.0000
  C   C97       1.0  0.06078  0.37952  0.79634  1.0000
  C   C98       1.0  0.06743  0.40270  0.81625  1.0000
  S   S44       1.0  0.41169  0.34360  0.71255  1.0000
  S   S45       1.0  0.40586  0.41618  0.72616  1.0000
  C   C99       1.0  0.28474  0.26603  0.71576  1.0000
  H   H101      1.0  0.09040  0.40591  0.82416  1.0000
  H   H102      1.0  0.03259  0.38897  0.89455  1.0000
  H   H103      1.0  0.33389  0.29896  0.75191  1.0000
  C   C100      1.0  0.04401  0.42046  0.82742  1.0000
  H   H104      1.0  0.11279  0.20728  0.74418  1.0000
  C   C101      1.0  0.25397  0.37689  0.78853  1.0000
  C   C102      1.0  0.26690  0.34994  0.79776  1.0000
  C   C103      1.0  0.29728  0.34389  0.79173  1.0000
  C   C104      1.0  0.31484  0.36449  0.77582  1.0000
  C   C105      1.0  0.30155  0.39058  0.76468  1.0000
  C   C106      1.0  0.27113  0.39682  0.77117  1.0000
  H   H105      1.0  0.25373  0.33392  0.81002  1.0000
  H   H106      1.0  0.30730  0.32343  0.79999  1.0000
  H   H107      1.0  0.31500  0.40655  0.75225  1.0000
  H   H108      1.0  0.26118  0.41761  0.76365  1.0000
  C   C107      1.0  0.18805  0.33844  0.98044  1.0000
  C   C108      1.0  0.21887  0.33741  0.97395  1.0000
  C   C109      1.0  0.23988  0.33939  0.99748  1.0000
  H   H109      1.0  0.17169  0.33701  0.96250  1.0000
  H   H110      1.0  0.26376  0.33881  0.99253  1.0000
  C   C110      1.0  0.15507  0.15346  0.71105  1.0000
  C   C111      1.0  0.05831  0.35512  0.87154  1.0000
  C   C112      1.0  0.05686  0.33015  0.85267  1.0000
  H   H111      1.0  0.04931  0.43755  0.84387  1.0000
  H   H112      1.0  0.07738  0.31871  0.84629  1.0000
  C   C113      1.0  0.25404  0.26508  0.70855  1.0000
  H   H113      1.0  0.47663  0.51325  0.72926  1.0000
  H   H114      1.0  0.16916  0.14163  0.78468  1.0000
  C   C114      1.0  0.17793  0.24125  0.72501  1.0000
  C   C115      1.0  0.16176  0.26451  0.73862  1.0000
  C   C116      1.0  0.16169  0.26771  0.76991  1.0000
  C   C117      1.0  0.17757  0.24746  0.78780  1.0000
  C   C118      1.0  0.19410  0.22446  0.77418  1.0000
  C   C119      1.0  0.19445  0.22149  0.74289  1.0000
  H   H115      1.0  0.14887  0.27988  0.72497  1.0000
  H   H116      1.0  0.14844  0.28520  0.78020  1.0000
  H   H117      1.0  0.20633  0.20866  0.78792  1.0000
  H   H118      1.0  0.20682  0.20339  0.73282  1.0000
  C   C120      1.0  0.03157  0.36976  0.87978  1.0000
  H   H119      1.0  0.18961  0.03854  0.70530  1.0000
  C   C121      1.0  0.12769  0.18812  0.74231  1.0000
  C   C122      1.0  0.13155  0.18642  0.79714  1.0000
  C   C123      1.0  0.02883  0.32052  0.84134  1.0000
  H   H120      1.0  0.29704  0.24511  0.71755  1.0000
  S   S46       1.0  0.23434  0.17037  0.68792  1.0000
  H   H121      1.0  0.15127  0.18609  0.81259  1.0000
  N   N9        1.0  0.13999  0.17539  0.76736  1.0000
  C   C124      1.0  0.13516  0.17744  0.71381  1.0000
  C   C125      1.0  0.15939  0.15171  0.76485  1.0000
  C   C126      1.0  0.38712  0.50366  0.69802  1.0000
  H   H122      1.0  0.07863  0.36487  0.78850  1.0000
  H   H123      1.0  0.37467  0.21989  0.68365  1.0000
  H   H124      1.0  0.38860  0.48542  0.71387  1.0000
  C   C127      1.0  0.28339  0.31917  0.71790  1.0000
  C   C128      1.0  0.16732  0.14046  0.73666  1.0000
  N   N10       1.0  0.30812  0.37022  0.86185  1.0000
  C   C129      1.0  0.30940  0.39523  0.84419  1.0000
  C   C130      1.0  0.28426  0.36578  0.88077  1.0000
  C   C131      1.0  0.28558  0.41575  0.84403  1.0000
  C   C132      1.0  0.26038  0.38616  0.88155  1.0000
  C   C133      1.0  0.26078  0.41094  0.86264  1.0000
  C   C134      1.0  0.33281  0.34842  0.86127  1.0000
  H   H125      1.0  0.32835  0.39883  0.82922  1.0000
  H   H126      1.0  0.28327  0.34620  0.89514  1.0000
  H   H127      1.0  0.28585  0.43464  0.82881  1.0000
  H   H128      1.0  0.24146  0.38242  0.89646  1.0000
  H   H129      1.0  0.24164  0.42606  0.86199  1.0000
  H   H130      1.0  0.32368  0.32521  0.86179  1.0000
  H   H131      1.0  0.34642  0.35039  0.84041  1.0000
  H   H132      1.0  0.34784  0.35197  0.88084  1.0000
  N   N11       1.0  0.29911  0.29291  0.71989  1.0000
  H   H133      1.0  0.02528  0.35574  0.77323  1.0000
  H   H134      1.0  0.12635  0.18835  0.69393  1.0000
  H   H135      1.0  0.18309  0.12196  0.73451  1.0000
  Fe  Fe24      1.0  0.38449  0.41999  0.68075  1.0000
  H   H136      1.0  0.12402  0.21018  0.79633  1.0000
  H   H137      1.0  0.11314  0.17248  0.80661  1.0000
  C   C135      1.0  0.47394  0.47253  0.70340  1.0000
  H   H138      1.0  0.02787  0.30159  0.82622  1.0000
  H   H139      1.0  0.29473  0.34043  0.72138  1.0000
  H   H140      1.0  0.34257  0.27218  0.72299  1.0000
  H   H141      1.0  0.16129  0.14514  0.68908  1.0000
  S   S47       1.0  0.17592  0.23690  0.68581  1.0000
  C   C136      1.0  0.20936  0.03562  0.69139  1.0000
  C   C137      1.0  0.51643  0.37110  0.69735  1.0000
  S   S48       1.0  0.35248  0.38147  0.68797  1.0000
  C   C138      1.0  0.25249  0.31899  0.71145  1.0000
  C   C139      1.0  0.47138  0.50339  0.70766  1.0000
  C   C140      1.0  0.23782  0.29174  0.70653  1.0000
  C   C141      1.0  0.03092  0.37442  0.78777  1.0000
  H   H142      1.0  0.24001  0.33986  0.71037  1.0000
  H   H143      1.0  0.24286  0.24380  0.70459  1.0000
  C   C142      1.0  0.17831  0.34117  0.01027  1.0000
  Fe  Fe25      1.0  0.38672  0.84825  0.09646  1.0000
  S   S49       1.0  0.34106  0.86480  0.11076  1.0000
  S   S50       1.0  0.40554  0.86751  0.05341  1.0000
  Fe  Fe26      1.0  0.39397  0.81025  0.15261  1.0000
  S   S51       1.0  0.34899  0.82374  0.17070  1.0000
  S   S52       1.0  0.42415  0.77799  0.17750  1.0000
  Fe  Fe27      1.0  0.33273  0.81697  0.12384  1.0000
  S   S53       1.0  0.28797  0.79479  0.11505  1.0000
  Fe  Fe28      1.0  0.36192  0.87017  0.15617  1.0000
  S   S54       1.0  0.35171  0.90739  0.18903  1.0000
  S   S55       1.0  0.37680  0.79989  0.10624  1.0000
  S   S56       1.0  0.40842  0.85719  0.14123  1.0000
  Fe  Fe29      1.0  0.24253  0.63961  0.16849  1.0000
  S   S57       1.0  0.22418  0.66782  0.20570  1.0000
  S   S58       1.0  0.28236  0.65554  0.14153  1.0000
  Fe  Fe30      1.0  0.20025  0.58732  0.18190  1.0000
  S   S59       1.0  0.17943  0.61120  0.22093  1.0000
  S   S60       1.0  0.17848  0.54280  0.17050  1.0000
  Fe  Fe31      1.0  0.17861  0.65114  0.19072  1.0000
  S   S61       1.0  0.13807  0.68126  0.18438  1.0000
  Fe  Fe32      1.0  0.22679  0.62534  0.23215  1.0000
  S   S62       1.0  0.24414  0.62550  0.27952  1.0000
  S   S63       1.0  0.19692  0.62661  0.15074  1.0000
  S   S64       1.0  0.24780  0.59767  0.19596  1.0000
  S   S65       1.0  0.44386  0.68638  0.32492  1.0000
  S   S66       1.0  0.41297  0.77009  0.31815  1.0000
  S   S67       1.0  0.38575  0.62940  0.29960  1.0000
  C   C143      1.0  0.28356  0.62744  0.28452  1.0000
  C   C144      1.0  0.29528  0.63381  0.31298  1.0000
  C   C145      1.0  0.32663  0.63508  0.31764  1.0000
  C   C146      1.0  0.34641  0.62908  0.29401  1.0000
  C   C147      1.0  0.33471  0.62235  0.26560  1.0000
  C   C148      1.0  0.30336  0.62196  0.26075  1.0000
  H   H144      1.0  0.11104  0.56494  0.19062  1.0000
  H   H145      1.0  0.34993  0.61787  0.24721  1.0000
  H   H146      1.0  0.29462  0.61722  0.23867  1.0000
  C   C149      1.0  0.04344  0.64200  0.19684  1.0000
  C   C150      1.0  0.06865  0.62686  0.20818  1.0000
  C   C151      1.0  0.09767  0.63920  0.20537  1.0000
  C   C152      1.0  0.10167  0.66684  0.19127  1.0000
  C   C153      1.0  0.07629  0.68261  0.18105  1.0000
  C   C154      1.0  0.04722  0.67014  0.18365  1.0000
  H   H147      1.0  0.06583  0.60510  0.21844  1.0000
  H   H148      1.0  0.11696  0.62706  0.21363  1.0000
  H   H149      1.0  0.07930  0.70399  0.17006  1.0000
  H   H150      1.0  0.13974  0.59514  0.15083  1.0000
  C   C155      1.0  0.41854  0.77330  0.21625  1.0000
  C   C156      1.0  0.43775  0.75427  0.23235  1.0000
  C   C157      1.0  0.43503  0.75169  0.26360  1.0000
  C   C158      1.0  0.41320  0.76834  0.27887  1.0000
  C   C159      1.0  0.39326  0.78642  0.26266  1.0000
  C   C160      1.0  0.39589  0.78887  0.23147  1.0000
  H   H151      1.0  0.45528  0.74207  0.22072  1.0000
  H   H152      1.0  0.45069  0.73788  0.27600  1.0000
  H   H153      1.0  0.37630  0.79930  0.27439  1.0000
  H   H154      1.0  0.38104  0.80364  0.21950  1.0000
  C   C161      1.0  0.28657  0.75609  0.12238  1.0000
  C   C162      1.0  0.25987  0.74324  0.13330  1.0000
  C   C163      1.0  0.25834  0.71237  0.13925  1.0000
  C   C164      1.0  0.28328  0.69411  0.13351  1.0000
  C   C165      1.0  0.30970  0.70684  0.12181  1.0000
  C   C166      1.0  0.31152  0.73783  0.11667  1.0000
  H   H155      1.0  0.24041  0.75724  0.13748  1.0000
  H   H156      1.0  0.23772  0.70271  0.14791  1.0000
  H   H157      1.0  0.32893  0.69272  0.11706  1.0000
  H   H158      1.0  0.33210  0.74747  0.10793  1.0000
  H   H159      1.0  0.45466  0.82366  0.29038  1.0000
  H   H160      1.0  0.38119  0.90930  0.24832  1.0000
  H   H161      1.0  0.40239  0.80314  0.04330  1.0000
  C   C167      1.0  0.09681  0.55926  0.17087  1.0000
  C   C168      1.0  0.40224  0.97761  0.15962  1.0000
  C   C169      1.0  0.38957  0.94883  0.16245  1.0000
  C   C170      1.0  0.36735  0.94344  0.18400  1.0000
  C   C171      1.0  0.35784  0.96700  0.20258  1.0000
  C   C172      1.0  0.37025  0.99587  0.19951  1.0000
  H   H162      1.0  0.41945  0.98163  0.14294  1.0000
  H   H163      1.0  0.39703  0.93085  0.14802  1.0000
  H   H164      1.0  0.34062  0.96297  0.21926  1.0000
  H   H165      1.0  0.10842  0.54145  0.15788  1.0000
  H   H166      1.0  0.20358  0.54444  0.23290  1.0000
  H   H167      1.0  0.33884  0.87162  0.04385  1.0000
  C   C173      1.0  0.26942  0.54522  0.26137  1.0000
  C   C174      1.0  0.50047  0.61462  0.28690  1.0000
  H   H168      1.0  0.37357  0.88979  0.28266  1.0000
  H   H169      1.0  0.33546  0.64010  0.33968  1.0000
  H   H170      1.0  0.08265  0.65876  0.10674  1.0000
  C   C175      1.0  0.08548  0.63782  0.11869  1.0000
  H   H171      1.0  0.35900  0.87549  0.24771  1.0000
  C   C176      1.0  0.44488  0.83634  0.27205  1.0000
  C   C177      1.0  0.45636  0.83342  0.24312  1.0000
  H   H172      1.0  0.40987  0.85511  0.29925  1.0000
  C   C178      1.0  0.21426  0.54303  0.25538  1.0000
  H   H173      1.0  0.47522  0.81857  0.23879  1.0000
  H   H174      1.0  0.24343  0.53593  0.16776  1.0000
  N   N12       1.0  0.32691  0.83332  0.01806  1.0000
  H   H175      1.0  0.40626  0.87773  0.20673  1.0000
  C   C179      1.0  0.37864  0.88670  0.25852  1.0000
  H   H176      1.0  0.43969  0.60934  0.33298  1.0000
  H   H177      1.0  0.07501  0.55041  0.17944  1.0000
  C   C180      1.0  0.29816  0.53269  0.25839  1.0000
  C   C181      1.0  0.41936  0.85410  0.27689  1.0000
  H   H178      1.0  0.26742  0.56760  0.27048  1.0000
  N   N13       1.0  0.40598  0.86894  0.25361  1.0000
  H   H179      1.0  0.47020  0.90969  0.02382  1.0000
  H   H180      1.0  0.30726  0.77121  0.05682  1.0000
  H   H181      1.0  0.19972  0.52937  0.27031  1.0000
  H   H182      1.0  0.04452  0.58230  0.15074  1.0000
  C   C182      1.0  0.41722  0.86636  0.22522  1.0000
  H   H183      1.0  0.13385  0.64208  0.12190  1.0000
  H   H184      1.0  0.45063  0.84553  0.19679  1.0000
  C   C183      1.0  0.47024  0.61522  0.29599  1.0000
  N   N14       1.0  0.33861  0.71530  0.21473  1.0000
  C   C184      1.0  0.35720  0.71665  0.23915  1.0000
  C   C185      1.0  0.30946  0.70551  0.21758  1.0000
  C   C186      1.0  0.34647  0.70905  0.26755  1.0000
  C   C187      1.0  0.29800  0.69761  0.24569  1.0000
  C   C188      1.0  0.31661  0.69971  0.27082  1.0000
  C   C189      1.0  0.34986  0.72394  0.18514  1.0000
  H   H185      1.0  0.38049  0.72362  0.23685  1.0000
  H   H186      1.0  0.29494  0.70374  0.19805  1.0000
  H   H187      1.0  0.36131  0.71030  0.28682  1.0000
  H   H188      1.0  0.27495  0.68966  0.24801  1.0000
  H   H189      1.0  0.30803  0.69367  0.29275  1.0000
  H   H190      1.0  0.35050  0.70402  0.17024  1.0000
  H   H191      1.0  0.33490  0.74122  0.17518  1.0000
  H   H192      1.0  0.37297  0.73368  0.18615  1.0000
  N   N15       1.0  0.09264  0.58587  0.15214  1.0000
  C   C190      1.0  0.06435  0.59461  0.14348  1.0000
  C   C191      1.0  0.11743  0.60208  0.14375  1.0000
  C   C192      1.0  0.31687  0.81598  0.04125  1.0000
  H   H193      1.0  0.03777  0.62829  0.12111  1.0000
  H   H194      1.0  0.31024  0.82615  0.06231  1.0000
  C   C193      1.0  0.11425  0.62841  0.12713  1.0000
  C   C194      1.0  0.44250  0.84851  0.21951  1.0000
  H   H195      1.0  0.47295  0.85760  0.04272  1.0000
  C   C195      1.0  0.39256  0.00124  0.17804  1.0000
  H   H196      1.0  0.02798  0.68167  0.17425  1.0000
  C   C196      1.0  0.46305  0.60879  0.32567  1.0000
  H   H197      1.0  0.31798  0.54548  0.26494  1.0000
  H   H198      1.0  0.45239  0.62090  0.28031  1.0000
  Fe  Fe33      1.0  0.41793  0.72591  0.34204  1.0000
  H   H199      1.0  0.21527  0.56613  0.26479  1.0000
  N   N16       1.0  0.24427  0.52951  0.25287  1.0000
  C   C197      1.0  0.51595  0.60140  0.33603  1.0000
  C   C198      1.0  0.40427  0.81431  0.02192  1.0000
  C   C199      1.0  0.06035  0.62072  0.12667  1.0000
  C   C200      1.0  0.40578  0.84554  0.02066  1.0000
  C   C201      1.0  0.31507  0.78483  0.03823  1.0000
  Fe  Fe34      1.0  0.40157  0.66082  0.33590  1.0000
  H   H200      1.0  0.03512  0.72457  0.22519  1.0000
  H   H201      1.0  0.28009  0.63797  0.33149  1.0000
  H   H202      1.0  0.30562  0.87574  0.02064  1.0000
  C   C202      1.0  0.47779  0.86231  0.01936  1.0000
  C   C203      1.0  0.32857  0.86590  0.02185  1.0000
  C   C204      1.0  0.23322  0.51394  0.16907  1.0000
  H   H203      1.0  0.51487  0.68870  0.33648  1.0000
  H   H204      1.0  0.50594  0.61979  0.26382  1.0000
  C   C205      1.0  0.48601  0.60210  0.34592  1.0000
  S   S68       1.0  0.27871  0.83204  0.63850  1.0000
  S   S69       1.0  0.37496  0.70081  0.35040  1.0000
  C   C206      1.0  0.16566  0.96660  0.64951  1.0000
  Fe  Fe35      1.0  0.39373  0.69194  0.39631  1.0000
  S   S70       1.0  0.41623  0.64914  0.38259  1.0000
  S   S71       1.0  0.36645  0.69924  0.43844  1.0000
  C   C207      1.0  0.07176  0.82656  0.62624  1.0000
  N   N17       1.0  0.18011  0.98791  0.63279  1.0000
  H   H205      1.0  0.07461  0.89576  0.66446  1.0000
  S   S72       1.0  0.43454  0.72080  0.38928  1.0000
  C   C208      1.0  0.29076  0.73073  0.64776  1.0000
  Fe  Fe36      1.0  0.34457  0.67681  0.64353  1.0000
  S   S73       1.0  0.37854  0.70091  0.61515  1.0000
  H   H206      1.0  0.24318  0.78668  0.67020  1.0000
  H   H207      1.0  0.46914  0.69467  0.44319  1.0000
  S   S74       1.0  0.42900  0.65394  0.64152  1.0000
  C   C209      1.0  0.14203  0.97449  0.66867  1.0000
  Fe  Fe37      1.0  0.40826  0.69757  0.65562  1.0000
  Fe  Fe38      1.0  0.39571  0.65520  0.60346  1.0000
  S   S75       1.0  0.41316  0.63989  0.55844  1.0000
  S   S76       1.0  0.35891  0.63086  0.62821  1.0000
  C   C210      1.0  0.37736  0.68043  0.47138  1.0000
  C   C211      1.0  0.39960  0.65828  0.47081  1.0000
  C   C212      1.0  0.40949  0.64516  0.49763  1.0000
  C   C213      1.0  0.39740  0.65422  0.52519  1.0000
  C   C214      1.0  0.37458  0.67581  0.52576  1.0000
  C   C215      1.0  0.36455  0.68882  0.49887  1.0000
  H   H208      1.0  0.40951  0.65157  0.44976  1.0000
  H   H209      1.0  0.42705  0.62838  0.49705  1.0000
  H   H210      1.0  0.36491  0.68273  0.54687  1.0000
  H   H211      1.0  0.34717  0.70579  0.49940  1.0000
  H   H212      1.0  0.02998  0.77745  0.66534  1.0000
  H   H213      1.0  0.47722  0.67562  0.53695  1.0000
  H   H214      1.0  0.38195  0.56928  0.64117  1.0000
  S   S77       1.0  0.49973  0.66220  0.39394  1.0000
  H   H215      1.0  0.36996  0.51740  0.62515  1.0000
  C   C216      1.0  0.31062  0.74794  0.63064  1.0000
  C   C217      1.0  0.30633  0.77888  0.62778  1.0000
  C   C218      1.0  0.28222  0.79301  0.64220  1.0000
  H   H216      1.0  0.12576  0.79103  0.66682  1.0000
  C   C219      1.0  0.43720  0.71604  0.55630  1.0000
  H   H217      1.0  0.32893  0.73739  0.61890  1.0000
  H   H218      1.0  0.32172  0.79185  0.61415  1.0000
  H   H219      1.0  0.44250  0.69684  0.57123  1.0000
  H   H220      1.0  0.21787  0.96026  0.62246  1.0000
  C   C220      1.0  0.32742  0.92064  0.65272  1.0000
  C   C221      1.0  0.28846  0.61150  0.65343  1.0000
  Fe  Fe39      1.0  0.45633  0.67848  0.37304  1.0000
  S   S78       1.0  0.29663  0.69190  0.65205  1.0000
  C   C222      1.0  0.10373  0.79610  0.65753  1.0000
  C   C223      1.0  0.33298  0.88986  0.65104  1.0000
  C   C224      1.0  0.37657  0.52174  0.64809  1.0000
  S   S79       1.0  0.26603  0.96806  0.66786  1.0000
  C   C225      1.0  0.04980  0.78858  0.65639  1.0000
  H   H221      1.0  0.19560  0.97229  0.59070  1.0000
  H   H222      1.0  0.44923  0.73621  0.56467  1.0000
  C   C226      1.0  0.10055  0.81923  0.63681  1.0000
  H   H223      1.0  0.27785  0.62922  0.64054  1.0000
  H   H224      1.0  0.12009  0.83229  0.63007  1.0000
  H   H225      1.0  0.41515  0.74192  0.50731  1.0000
  H   H226      1.0  0.06936  0.84530  0.61104  1.0000
  C   C227      1.0  0.26630  0.74478  0.66197  1.0000
  C   C228      1.0  0.47629  0.68324  0.48949  1.0000
  N   N18       1.0  0.34742  0.87538  0.67392  1.0000
  H   H227      1.0  0.22113  0.99783  0.60975  1.0000
  S   S80       1.0  0.22075  0.89705  0.65021  1.0000
  H   H228      1.0  0.31507  0.93193  0.63505  1.0000
  H   H229      1.0  0.35359  0.83495  0.64905  1.0000
  N   N19       1.0  0.44584  0.70983  0.52522  1.0000
  C   C229      1.0  0.46743  0.68882  0.51906  1.0000
  C   C230      1.0  0.43280  0.72582  0.50256  1.0000
  C   C231      1.0  0.30491  0.56028  0.65840  1.0000
  C   C232      1.0  0.46299  0.69934  0.46625  1.0000
  H   H230      1.0  0.41245  0.71965  0.55798  1.0000
  C   C233      1.0  0.38329  0.55114  0.65712  1.0000
  C   C234      1.0  0.29083  0.58263  0.64167  1.0000
  C   C235      1.0  0.13296  0.00435  0.67038  1.0000
  H   H231      1.0  0.17250  0.94334  0.64835  1.0000
  H   H232      1.0  0.30719  0.53777  0.64943  1.0000
  C   C236      1.0  0.44108  0.72077  0.47278  1.0000
  H   H233      1.0  0.32488  0.87747  0.63170  1.0000
  C   C237      1.0  0.26210  0.77595  0.65933  1.0000
  N   N20       1.0  0.04690  0.81109  0.63587  1.0000
  Fe  Fe40      1.0  0.39113  0.63219  0.66692  1.0000
  S   S81       1.0  0.13868  0.89211  0.67206  1.0000
  H   H234      1.0  0.42968  0.73261  0.45486  1.0000
  H   H235      1.0  0.25066  0.73157  0.67507  1.0000
  H   H236      1.0  0.28202  0.57769  0.61954  1.0000
  C   C238      1.0  0.07823  0.78066  0.66743  1.0000
  C   C239      1.0  0.24879  0.00341  0.67185  1.0000
  S   S82       1.0  0.43007  0.74086  0.67000  1.0000
  Fe  Fe41      1.0  0.24776  0.85879  0.66815  1.0000
  C   C240      1.0  0.20478  0.97915  0.61279  1.0000
  H   H237      1.0  0.44567  0.52232  0.63876  1.0000
  H   H238      1.0  0.49281  0.66605  0.48448  1.0000
  H   H239      1.0  0.48071  0.59813  0.36932  1.0000
  C   C241      1.0  0.35132  0.84281  0.67259  1.0000
  C   C242      1.0  0.33658  0.93658  0.67802  1.0000
  H   H240      1.0  0.33157  0.96031  0.67992  1.0000
  S   S83       1.0  0.21265  0.84506  0.70159  1.0000
  S   S84       1.0  0.20883  0.91749  0.72022  1.0000
  C   C243      1.0  0.39325  0.53321  0.70723  1.0000
  C   C244      1.0  0.33437  0.82050  0.99122  1.0000
  H   H241      1.0  0.35791  0.93384  0.72123  1.0000
  H   H242      1.0  0.51553  0.79509  0.79903  1.0000
  C   C245      1.0  0.05489  0.86151  0.69234  1.0000
  Fe  Fe42      1.0  0.23692  0.87712  0.73241  1.0000
  S   S85       1.0  0.25108  0.86054  0.77804  1.0000
  H   H243      1.0  0.09465  0.81557  0.73826  1.0000
  Fe  Fe43      1.0  0.47874  0.84267  0.86503  1.0000
  S   S86       1.0  0.47256  0.79485  0.87852  1.0000
  H   H244      1.0  0.34315  0.87648  0.00459  1.0000
  Fe  Fe44      1.0  0.41712  0.84535  0.83461  1.0000
  S   S87       1.0  0.40567  0.79772  0.84615  1.0000
  S   S88       1.0  0.39074  0.87621  0.80443  1.0000
  Fe  Fe45      1.0  0.42563  0.80873  0.89133  1.0000
  S   S89       1.0  0.40723  0.78980  0.93468  1.0000
  Fe  Fe46      1.0  0.45342  0.78822  0.83252  1.0000
  S   S90       1.0  0.46660  0.74692  0.80683  1.0000
  S   S91       1.0  0.43303  0.85736  0.88098  1.0000
  S   S92       1.0  0.46372  0.83497  0.81774  1.0000
  S   S93       1.0  0.03134  0.81450  0.72531  1.0000
  H   H245      1.0  0.30935  0.60718  0.74347  1.0000
  H   H246      1.0  0.47915  0.91984  0.96962  1.0000
  H   H247      1.0  0.39952  0.53762  0.73024  1.0000
  C   C246      1.0  0.45626  0.74565  0.76886  1.0000
  C   C247      1.0  0.45172  0.77194  0.75248  1.0000
  C   C248      1.0  0.44427  0.77029  0.72194  1.0000
  C   C249      1.0  0.44047  0.74240  0.70793  1.0000
  C   C250      1.0  0.44446  0.71614  0.72445  1.0000
  C   C251      1.0  0.45281  0.71779  0.75474  1.0000
  H   H248      1.0  0.45434  0.79351  0.76320  1.0000
  H   H249      1.0  0.44113  0.79065  0.70922  1.0000
  H   H250      1.0  0.44162  0.69454  0.71378  1.0000
  H   H251      1.0  0.45634  0.69740  0.76734  1.0000
  C   C252      1.0  0.09022  0.83321  0.72228  1.0000
  C   C253      1.0  0.40985  0.84283  0.96628  1.0000
  C   C254      1.0  0.40811  0.81161  0.96751  1.0000
  C   C255      1.0  0.46162  0.52144  0.68411  1.0000
  C   C256      1.0  0.22345  0.00745  0.69000  1.0000
  H   H252      1.0  0.41154  0.85400  0.94489  1.0000
  H   H253      1.0  0.28636  0.81097  0.71069  1.0000
  C   C257      1.0  0.28947  0.86603  0.78695  1.0000
  C   C258      1.0  0.30643  0.88805  0.77244  1.0000
  C   C259      1.0  0.33729  0.89118  0.77864  1.0000
  C   C260      1.0  0.35160  0.87210  0.79901  1.0000
  C   C261      1.0  0.33462  0.85041  0.81409  1.0000
  C   C262      1.0  0.30345  0.84772  0.80837  1.0000
  H   H254      1.0  0.29559  0.90332  0.75714  1.0000
  H   H255      1.0  0.35015  0.90871  0.76794  1.0000
  H   H256      1.0  0.34540  0.83599  0.83030  1.0000
  H   H257      1.0  0.29024  0.83116  0.82024  1.0000
  C   C263      1.0  0.40550  0.79740  0.99539  1.0000
  H   H258      1.0  0.34216  0.62350  0.72539  1.0000
  S   S94       1.0  0.39850  0.59377  0.69918  1.0000
  C   C264      1.0  0.06046  0.83855  0.71285  1.0000
  H   H259      1.0  0.50598  0.82752  0.92836  1.0000
  H   H260      1.0  0.26852  0.77784  0.72586  1.0000
  H   H261      1.0  0.13725  0.84546  0.71775  1.0000
  H   H262      1.0  0.32775  0.54976  0.69937  1.0000
  H   H263      1.0  0.47287  0.80891  0.94326  1.0000
  C   C265      1.0  0.48728  0.87337  0.95902  1.0000
  H   H264      1.0  0.40411  0.77322  0.99646  1.0000
  C   C266      1.0  0.40855  0.85973  0.99279  1.0000
  C   C267      1.0  0.11437  0.85011  0.71069  1.0000
  C   C268      1.0  0.48397  0.83896  0.99940  1.0000
  H   H265      1.0  0.34252  0.58499  0.73555  1.0000
  C   C269      1.0  0.32769  0.60317  0.72706  1.0000
  N   N21       1.0  0.48908  0.84474  0.96977  1.0000
  H   H266      1.0  0.27675  0.80943  0.74950  1.0000
  H   H267      1.0  0.36681  0.87923  0.71761  1.0000
  C   C270      1.0  0.49466  0.81979  0.94922  1.0000
  C   C271      1.0  0.31664  0.56725  0.68666  1.0000
  Fe  Fe47      1.0  0.18740  0.88625  0.68662  1.0000
  H   H268      1.0  0.40966  0.88392  0.99168  1.0000
  H   H269      1.0  0.39181  0.74566  0.75320  1.0000
  H   H270      1.0  0.49056  0.87787  0.93535  1.0000
  H   H271      1.0  0.36363  0.77106  0.79390  1.0000
  H   H272      1.0  0.32246  0.74733  0.00876  1.0000
  H   H273      1.0  0.03206  0.86600  0.68515  1.0000
  C   C272      1.0  0.48085  0.89723  0.97831  1.0000
  H   H274      1.0  0.29930  0.64038  0.69036  1.0000
  N   N22       1.0  0.31488  0.78275  0.73667  1.0000
  C   C273      1.0  0.32640  0.78332  0.76510  1.0000
  C   C274      1.0  0.33046  0.76904  0.71405  1.0000
  C   C275      1.0  0.35439  0.77033  0.77139  1.0000
  C   C276      1.0  0.35845  0.75568  0.71956  1.0000
  C   C277      1.0  0.37034  0.75624  0.74848  1.0000
  C   C278      1.0  0.28523  0.79586  0.73040  1.0000
  H   H275      1.0  0.31391  0.79368  0.78316  1.0000
  H   H276      1.0  0.34229  0.83416  0.97275  1.0000
  S   S95       1.0  0.27337  0.88797  0.69976  1.0000
  H   H277      1.0  0.37080  0.74484  0.70156  1.0000
  H   H278      1.0  0.48400  0.81611  0.00764  1.0000
  C   C279      1.0  0.35622  0.89080  0.69899  1.0000
  Fe  Fe48      1.0  0.24368  0.92554  0.68459  1.0000
  H   H279      1.0  0.11494  0.01081  0.68548  1.0000
  H   H280      1.0  0.21463  0.98888  0.70286  1.0000
  H   H281      1.0  0.45885  0.54541  0.68737  1.0000
  C   C280      1.0  0.35117  0.92166  0.70128  1.0000
  C   C281      1.0  0.39141  0.55700  0.68679  1.0000
  H   H282      1.0  0.32123  0.76821  0.69162  1.0000
  H   H283      1.0  0.34001  0.77932  0.96645  1.0000
  C   C282      1.0  0.07904  0.87838  0.68070  1.0000
  N   N23       1.0  0.31493  0.59582  0.69766  1.0000
  C   C283      1.0  0.10887  0.87247  0.68953  1.0000
  S   S96       1.0  0.37343  0.67589  0.68461  1.0000
  C   C284      1.0  0.33297  0.78941  0.98746  1.0000
  H   H284      1.0  0.33121  0.83172  0.68241  1.0000
  H   H285      1.0  0.37191  0.83565  0.68487  1.0000
  H   H286      1.0  0.08019  0.76368  0.68466  1.0000
  H   H287      1.0  0.50968  0.80286  0.95963  1.0000
  C   C285      1.0  0.30075  0.61774  0.68162  1.0000
  C   C286      1.0  0.32339  0.77150  0.01123  1.0000
  C   C287      1.0  0.47608  0.89160  0.00868  1.0000
  H   H288      1.0  0.13100  0.95745  0.68218  1.0000
  C   C288      1.0  0.82860  0.04842  0.26130  1.0000
  C   C289      1.0  0.57207  0.25838  0.22464  1.0000
  C   C290      1.0  0.73249  0.17064  0.01988  1.0000
  Fe  Fe49      1.0  0.85472  0.11277  0.31135  1.0000
  S   S97       1.0  0.84119  0.13271  0.26684  1.0000
  H   H289      1.0  0.56182  0.22629  0.15636  1.0000
  H   H290      1.0  0.79042  0.03677  0.30654  1.0000
  C   C291      1.0  0.00358  0.15699  0.32831  1.0000
  Fe  Fe50      1.0  0.68483  0.19063  0.14342  1.0000
  S   S98       1.0  0.66685  0.14639  0.15982  1.0000
  S   S99       1.0  0.71405  0.20121  0.10315  1.0000
  Fe  Fe51      1.0  0.65683  0.22517  0.19552  1.0000
  S   S100      1.0  0.63573  0.18431  0.21550  1.0000
  S   S101      1.0  0.65484  0.27103  0.21637  1.0000
  Fe  Fe52      1.0  0.68050  0.16292  0.20559  1.0000
  S   S102      1.0  0.70074  0.13781  0.24441  1.0000
  Fe  Fe53      1.0  0.62371  0.17179  0.16836  1.0000
  S   S103      1.0  0.57844  0.15423  0.15215  1.0000
  S   S104      1.0  0.70224  0.20473  0.18861  1.0000
  S   S105      1.0  0.64094  0.21495  0.14887  1.0000
  H   H291      1.0  0.75867  0.47187  0.34540  1.0000
  H   H292      1.0  0.74071  0.08398  0.21956  1.0000
  H   H293      1.0  0.83703  0.03854  0.28251  1.0000
  C   C292      1.0  0.52462  0.07793  0.17055  1.0000
  C   C293      1.0  0.65721  0.27203  0.25569  1.0000
  C   C294      1.0  0.64504  0.24892  0.27304  1.0000
  C   C295      1.0  0.64579  0.25081  0.30441  1.0000
  C   C296      1.0  0.65928  0.27547  0.31858  1.0000
  C   C297      1.0  0.67189  0.29834  0.30125  1.0000
  C   C298      1.0  0.67049  0.29679  0.26986  1.0000
  H   H294      1.0  0.63444  0.22991  0.26237  1.0000
  H   H295      1.0  0.63589  0.23313  0.31775  1.0000
  H   H296      1.0  0.68196  0.31764  0.31200  1.0000
  H   H297      1.0  0.67972  0.31485  0.25655  1.0000
  C   C299      1.0  0.54824  0.16267  0.20552  1.0000
  C   C300      1.0  0.54613  0.15615  0.17498  1.0000
  C   C301      1.0  0.97904  0.13928  0.33781  1.0000
  H   H298      1.0  0.57002  0.16698  0.21555  1.0000
  H   H299      1.0  0.58940  0.26930  0.23802  1.0000
  C   C302      1.0  0.52773  0.23041  0.19076  1.0000
  C   C303      1.0  0.69496  0.13734  0.04097  1.0000
  C   C304      1.0  0.69533  0.15374  0.06789  1.0000
  C   C305      1.0  0.71438  0.17857  0.07085  1.0000
  C   C306      1.0  0.73318  0.18672  0.04691  1.0000
  H   H300      1.0  0.73586  0.04785  0.30851  1.0000
  H   H301      1.0  0.68005  0.11826  0.03870  1.0000
  H   H302      1.0  0.68077  0.14732  0.08624  1.0000
  H   H303      1.0  0.74815  0.20577  0.04921  1.0000
  C   C307      1.0  0.80226  0.13943  0.26151  1.0000
  C   C308      1.0  0.78192  0.13703  0.28529  1.0000
  C   C309      1.0  0.75074  0.13815  0.28003  1.0000
  C   C310      1.0  0.73962  0.14266  0.25104  1.0000
  C   C311      1.0  0.75990  0.14740  0.22749  1.0000
  C   C312      1.0  0.79119  0.14552  0.23271  1.0000
  H   H304      1.0  0.79010  0.13409  0.30777  1.0000
  H   H305      1.0  0.73520  0.13481  0.29840  1.0000
  H   H306      1.0  0.75151  0.15091  0.20502  1.0000
  H   H307      1.0  0.80678  0.14789  0.21423  1.0000
  H   H308      1.0  0.79570  0.07421  0.21904  1.0000
  H   H309      1.0  0.69902  0.19598  0.31445  1.0000
  H   H310      1.0  0.73626  0.50083  0.28788  1.0000
  H   H311      1.0  0.56533  0.09006  0.19433  1.0000
  H   H312      1.0  0.70031  0.20338  0.25969  1.0000
  H   H313      1.0  0.65939  0.18724  0.02107  1.0000
  H   H314      1.0  0.53616  0.07660  0.14919  1.0000
  C   C313      1.0  0.71329  0.14597  0.01683  1.0000
  S   S106      1.0  0.88708  0.07413  0.31534  1.0000
  H   H315      1.0  0.53912  0.09491  0.24336  1.0000
  H   H316      1.0  0.71071  0.07170  0.26465  1.0000
  C   C314      1.0  0.55653  0.23461  0.17861  1.0000
  N   N24       1.0  0.79613  0.05448  0.26249  1.0000
  C   C315      1.0  0.74764  0.25376  0.31199  1.0000
  C   C316      1.0  0.73454  0.06610  0.26387  1.0000
  H   H317      1.0  0.84122  0.06960  0.25742  1.0000
  H   H318      1.0  0.73126  0.24450  0.23815  1.0000
  C   C317      1.0  0.77964  0.04703  0.28731  1.0000
  C   C318      1.0  0.73122  0.24064  0.26213  1.0000
  C   C319      1.0  0.78247  0.06747  0.23833  1.0000
  N   N25       1.0  0.72945  0.23192  0.32370  1.0000
  C   C320      1.0  0.54315  0.25345  0.23624  1.0000
  C   C321      1.0  0.74849  0.25872  0.28108  1.0000
  H   H319      1.0  0.70563  0.24528  0.03921  1.0000
  C   C322      1.0  0.74868  0.05301  0.28849  1.0000
  C   C323      1.0  0.75143  0.07304  0.23847  1.0000
  C   C324      1.0  0.54134  0.08536  0.19610  1.0000
  C   C325      1.0  0.57867  0.24895  0.19562  1.0000
  H   H320      1.0  0.60101  0.25265  0.18643  1.0000
  C   C326      1.0  0.52201  0.16355  0.22318  1.0000
  C   C327      1.0  0.68118  0.24165  0.03487  1.0000
  C   C328      1.0  0.71307  0.21360  0.30523  1.0000
  H   H321      1.0  0.83362  0.03248  0.24290  1.0000
  H   H322      1.0  0.76229  0.27657  0.27193  1.0000
  C   C329      1.0  0.52663  0.08816  0.22357  1.0000
  S   S107      1.0  0.81936  0.09130  0.33991  1.0000
  H   H323      1.0  0.76144  0.26765  0.32655  1.0000
  H   H324      1.0  0.52378  0.16865  0.24681  1.0000
  C   C330      1.0  0.71371  0.21766  0.27421  1.0000
  H   H325      1.0  0.66910  0.26330  0.03695  1.0000
  N   N26       1.0  0.52138  0.23978  0.21926  1.0000
  H   H326      1.0  0.67273  0.22657  0.05286  1.0000
  H   H327      1.0  0.95689  0.14262  0.32820  1.0000
  H   H328      1.0  0.53826  0.26058  0.25895  1.0000
  H   H329      1.0  0.00015  0.17392  0.31136  1.0000
  H   H330      1.0  0.58655  0.24158  0.67780  1.0000
  Fe  Fe54      1.0  0.84269  0.11543  0.37728  1.0000
  S   S108      1.0  0.81660  0.14072  0.41242  1.0000
  S   S109      1.0  0.87283  0.07636  0.38770  1.0000
  Fe  Fe55      1.0  0.70127  0.30341  0.64682  1.0000
  H   H331      1.0  0.91535  0.12209  0.42316  1.0000
  S   S110      1.0  0.72821  0.29349  0.60494  1.0000
  C   C331      1.0  0.67541  0.26242  0.51133  1.0000
  H   H332      1.0  0.87853  0.13255  0.43573  1.0000
  Fe  Fe56      1.0  0.71404  0.33739  0.43717  1.0000
  S   S111      1.0  0.75875  0.35108  0.41771  1.0000
  S   S112      1.0  0.69656  0.35503  0.48145  1.0000
  Fe  Fe57      1.0  0.69321  0.30898  0.37867  1.0000
  H   H333      1.0  0.68368  0.41984  0.37708  1.0000
  Fe  Fe58      1.0  0.75871  0.30572  0.39576  1.0000
  S   S113      1.0  0.79925  0.27776  0.38352  1.0000
  Fe  Fe59      1.0  0.73139  0.36631  0.37830  1.0000
  H   H334      1.0  0.91142  0.14486  0.45646  1.0000
  S   S114      1.0  0.71663  0.29034  0.41913  1.0000
  S   S115      1.0  0.68657  0.35478  0.39859  1.0000
  C   C332      1.0  0.72581  0.47456  0.43902  1.0000
  H   H335      1.0  0.74856  0.48092  0.43273  1.0000
  S   S116      1.0  0.74554  0.41032  0.35718  1.0000
  C   C333      1.0  0.74326  0.42306  0.44532  1.0000
  H   H336      1.0  0.86476  0.23201  0.40403  1.0000
  C   C334      1.0  0.69357  0.44128  0.37153  1.0000
  C   C335      1.0  0.72226  0.31332  0.57136  1.0000
  C   C336      1.0  0.70294  0.33798  0.57017  1.0000
  C   C337      1.0  0.69615  0.35131  0.54250  1.0000
  C   C338      1.0  0.70861  0.34003  0.51589  1.0000
  C   C339      1.0  0.72880  0.31608  0.51716  1.0000
  C   C340      1.0  0.73568  0.30284  0.54487  1.0000
  H   H337      1.0  0.69295  0.34656  0.59052  1.0000
  H   H338      1.0  0.68073  0.37003  0.54166  1.0000
  H   H339      1.0  0.73863  0.30736  0.49677  1.0000
  H   H340      1.0  0.75083  0.28389  0.54572  1.0000
  S   S117      1.0  0.66273  0.27241  0.65654  1.0000
  C   C341      1.0  0.80695  0.17768  0.40243  1.0000
  C   C342      1.0  0.79317  0.19653  0.42353  1.0000
  C   C343      1.0  0.78885  0.22709  0.41722  1.0000
  C   C344      1.0  0.79884  0.23895  0.39001  1.0000
  C   C345      1.0  0.81148  0.21987  0.36850  1.0000
  C   C346      1.0  0.81509  0.18925  0.37451  1.0000
  H   H341      1.0  0.78672  0.18769  0.44515  1.0000
  H   H342      1.0  0.77925  0.24175  0.43400  1.0000
  H   H343      1.0  0.73690  0.40250  0.45790  1.0000
  H   H344      1.0  0.73690  0.24719  0.36850  1.0000
  H   H345      1.0  0.74801  0.41679  0.42172  1.0000
  S   S118      1.0  0.67586  0.34519  0.65909  1.0000
  C   C347      1.0  0.67653  0.46763  0.37458  1.0000
  N   N27       1.0  0.71922  0.44548  0.44612  1.0000
  C   C348      1.0  0.65666  0.28685  0.50585  1.0000
  H   H346      1.0  0.64388  0.45138  0.45678  1.0000
  S   S119      1.0  0.95329  0.09474  0.37272  1.0000
  C   C349      1.0  0.67971  0.25257  0.54066  1.0000
  C   C350      1.0  0.73569  0.47068  0.35349  1.0000
  S   S120      1.0  0.59076  0.31558  0.65261  1.0000
  C   C351      1.0  0.56277  0.33803  0.66946  1.0000
  C   C352      1.0  0.90227  0.14053  0.43373  1.0000
  N   N28       1.0  0.64731  0.29174  0.55865  1.0000
  C   C353      1.0  0.64258  0.30127  0.52991  1.0000
  S   S121      1.0  0.65947  0.27734  0.35792  1.0000
  H   H347      1.0  0.68481  0.41380  0.45706  1.0000
  H   H348      1.0  0.64934  0.31061  0.60233  1.0000
  C   C354      1.0  0.63292  0.30726  0.58381  1.0000
  H   H349      1.0  0.68728  0.25174  0.49297  1.0000
  H   H350      1.0  0.69503  0.23425  0.54535  1.0000
  H   H351      1.0  0.65404  0.29540  0.48325  1.0000
  H   H352      1.0  0.52705  0.31900  0.64266  1.0000
  C   C355      1.0  0.66529  0.26750  0.56417  1.0000
  C   C356      1.0  0.69018  0.43706  0.45235  1.0000
  H   H353      1.0  0.62883  0.32081  0.52547  1.0000
  C   C357      1.0  0.01228  0.11305  0.37175  1.0000
  H   H354      1.0  0.66968  0.26042  0.58700  1.0000
  H   H355      1.0  0.61356  0.29395  0.59236  1.0000
  H   H356      1.0  0.62475  0.32988  0.57746  1.0000
  C   C358      1.0  0.68916  0.49562  0.36758  1.0000
  C   C359      1.0  0.53260  0.33458  0.66041  1.0000
  N   N29       1.0  0.90374  0.16795  0.41580  1.0000
  C   C360      1.0  0.92770  0.17279  0.39708  1.0000
  C   C361      1.0  0.88166  0.18912  0.41879  1.0000
  C   C362      1.0  0.92925  0.19877  0.37967  1.0000
  C   C363      1.0  0.70316  0.49634  0.43899  1.0000
  H   H357      1.0  0.97703  0.03412  0.38935  1.0000
  H   H358      1.0  0.94145  0.03641  0.40869  1.0000
  H   H359      1.0  0.94555  0.15632  0.39517  1.0000
  H   H360      1.0  0.65565  0.50457  0.44432  1.0000
  H   H361      1.0  0.76426  0.43190  0.45567  1.0000
  C   C364      1.0  0.66693  0.45822  0.45229  1.0000
  C   C365      1.0  0.67354  0.48804  0.44558  1.0000
  H   H362      1.0  0.94796  0.20212  0.36435  1.0000
  H   H363      1.0  0.86286  0.18548  0.43394  1.0000
  C   C366      1.0  0.72805  0.22741  0.35615  1.0000
  H   H364      1.0  0.82494  0.17485  0.35778  1.0000
  C   C367      1.0  0.71878  0.49707  0.35696  1.0000
  C   C368      1.0  0.90642  0.22015  0.38204  1.0000
  Fe  Fe60      1.0  0.63817  0.31370  0.67154  1.0000
  C   C369      1.0  0.88262  0.21549  0.40194  1.0000
  C   C370      1.0  0.72322  0.44274  0.36098  1.0000
  Fe  Fe61      1.0  0.90529  0.09821  0.35570  1.0000
  H   H365      1.0  0.90709  0.24031  0.36850  1.0000
  H   H366      1.0  0.70424  0.22441  0.36345  1.0000
  S   S122      1.0  0.73531  0.32215  0.35455  1.0000
  H   H367      1.0  0.65357  0.46635  0.38271  1.0000
  C   C371      1.0  0.98339  0.11719  0.35954  1.0000
  H   H368      1.0  0.01580  0.09614  0.38871  1.0000
  H   H369      1.0  0.93337  0.03589  0.34878  1.0000
  S   S123      1.0  0.87669  0.13901  0.34851  1.0000
  H   H370      1.0  0.74161  0.20752  0.36256  1.0000
  C   C372      1.0  0.95884  0.02068  0.40009  1.0000
  H   H371      1.0  0.81912  0.22889  0.34734  1.0000
  Fe  Fe62      1.0  0.85301  0.05464  0.34697  1.0000
  Fe  Fe63      1.0  0.73423  0.14570  0.94218  1.0000
  S   S124      1.0  0.77924  0.12897  0.92645  1.0000
  S   S125      1.0  0.71041  0.12658  0.98261  1.0000
  Fe  Fe64      1.0  0.72462  0.18330  0.88641  1.0000
  S   S126      1.0  0.76816  0.16886  0.86547  1.0000
  S   S127      1.0  0.69510  0.21988  0.86778  1.0000
  Fe  Fe65      1.0  0.75629  0.12277  0.88214  1.0000
  S   S128      1.0  0.76845  0.08068  0.85660  1.0000
  Fe  Fe66      1.0  0.78741  0.17623  0.91123  1.0000
  S   S129      1.0  0.83239  0.19960  0.91380  1.0000
  S   S130      1.0  0.71051  0.13653  0.89864  1.0000
  S   S131      1.0  0.74468  0.19372  0.93143  1.0000
  Fe  Fe67      1.0  0.92752  0.35559  0.83704  1.0000
  S   S132      1.0  0.91428  0.37723  0.88023  1.0000
  S   S133      1.0  0.96797  0.32527  0.83176  1.0000
  Fe  Fe68      1.0  0.87223  0.38015  0.80409  1.0000
  S   S134      1.0  0.85480  0.40430  0.84476  1.0000
  S   S135      1.0  0.85170  0.37692  0.75800  1.0000
  Fe  Fe69      1.0  0.90336  0.41761  0.85217  1.0000
  S   S136      1.0  0.92498  0.46177  0.86565  1.0000
  Fe  Fe70      1.0  0.86737  0.36177  0.86889  1.0000
  S   S137      1.0  0.83737  0.34065  0.90397  1.0000
  S   S138      1.0  0.91989  0.39667  0.80945  1.0000
  S   S139      1.0  0.88145  0.33698  0.82771  1.0000
  Fe  Fe71      1.0  0.68078  0.26993  0.70328  1.0000
  S   S140      1.0  0.65268  0.30829  0.71942  1.0000
  S   S141      1.0  0.68577  0.22536  0.72643  1.0000
  Fe  Fe72      1.0  0.69295  0.33612  0.70590  1.0000
  S   S142      1.0  0.70977  0.36873  0.74079  1.0000
  C   C373      1.0  0.55821  0.30853  0.75120  1.0000
  H   H372      1.0  0.88186  0.30642  0.95221  1.0000
  C   C374      1.0  0.91074  0.23169  0.91233  1.0000
  C   C375      1.0  0.76694  0.01711  0.78655  1.0000
  H   H373      1.0  0.55590  0.28348  0.69678  1.0000
  H   H374      1.0  0.99861  0.45433  0.84213  1.0000
  C   C376      1.0  0.92893  0.28899  0.89652  1.0000
  C   C377      1.0  0.00225  0.33591  0.84869  1.0000
  C   C378      1.0  0.81220  0.37538  0.75359  1.0000
  C   C379      1.0  0.80019  0.36379  0.72692  1.0000
  C   C380      1.0  0.76882  0.36173  0.72279  1.0000
  C   C381      1.0  0.74922  0.37164  0.74520  1.0000
  C   C382      1.0  0.76119  0.38365  0.77174  1.0000
  C   C383      1.0  0.79263  0.38541  0.77601  1.0000
  H   H375      1.0  0.81523  0.35631  0.70937  1.0000
  C   C384      1.0  0.70304  0.02179  0.88041  1.0000
  H   H376      1.0  0.74611  0.39154  0.78906  1.0000
  H   H377      1.0  0.80169  0.39472  0.79650  1.0000
  C   C385      1.0  0.71176  0.04626  0.96157  1.0000
  H   H378      1.0  0.62184  0.21510  0.71220  1.0000
  H   H379      1.0  0.89989  0.33072  0.92640  1.0000
  H   H380      1.0  0.98321  0.37190  0.87452  1.0000
  C   C386      1.0  0.61068  0.24298  0.74997  1.0000
  H   H381      1.0  0.90750  0.49653  0.93506  1.0000
  H   H382      1.0  0.62613  0.23167  0.76498  1.0000
  H   H383      1.0  0.86045  0.47265  0.86034  1.0000
  C   C387      1.0  0.69354  0.22166  0.82845  1.0000
  C   C388      1.0  0.68484  0.24839  0.81441  1.0000
  C   C389      1.0  0.68358  0.25018  0.78300  1.0000
  C   C390      1.0  0.69005  0.22492  0.76560  1.0000
  C   C391      1.0  0.69887  0.19829  0.77967  1.0000
  C   C392      1.0  0.70104  0.19677  0.81100  1.0000
  H   H384      1.0  0.67936  0.26782  0.82783  1.0000
  H   H385      1.0  0.67698  0.27089  0.77233  1.0000
  H   H386      1.0  0.70394  0.17871  0.76630  1.0000
  H   H387      1.0  0.70783  0.17610  0.82165  1.0000
  C   C393      1.0  0.83006  0.23851  0.90862  1.0000
  C   C394      1.0  0.81488  0.25646  0.92937  1.0000
  C   C395      1.0  0.81685  0.28783  0.92743  1.0000
  C   C396      1.0  0.83394  0.30134  0.90474  1.0000
  C   C397      1.0  0.84839  0.28331  0.88356  1.0000
  C   C398      1.0  0.84633  0.25200  0.88541  1.0000
  H   H388      1.0  0.80248  0.24616  0.94752  1.0000
  H   H389      1.0  0.80555  0.30164  0.94388  1.0000
  H   H390      1.0  0.86162  0.29328  0.86603  1.0000
  H   H391      1.0  0.85809  0.23819  0.86928  1.0000
  C   C399      1.0  0.74870  0.04762  0.86522  1.0000
  C   C400      1.0  0.71906  0.04855  0.87578  1.0000
  H   H392      1.0  0.78561  0.01903  0.85228  1.0000
  C   C401      1.0  0.68099  0.23353  0.95145  1.0000
  H   H393      1.0  0.70822  0.06987  0.87969  1.0000
  N   N30       1.0  0.91177  0.28472  0.92163  1.0000
  H   H394      1.0  0.93319  0.21696  0.87216  1.0000
  C   C402      1.0  0.90303  0.49454  0.86827  1.0000
  C   C403      1.0  0.70402  0.01616  0.95799  1.0000
  H   H395      1.0  0.74666  0.07923  0.95694  1.0000
  H   H396      1.0  0.85444  0.51276  0.93975  1.0000
  H   H397      1.0  0.54918  0.30513  0.77413  1.0000
  C   C404      1.0  0.59399  0.26768  0.75979  1.0000
  C   C405      1.0  0.92763  0.23591  0.88632  1.0000
  C   C406      1.0  0.66519  0.20057  0.00161  1.0000
  H   H398      1.0  0.74679  0.17735  0.00145  1.0000
  C   C407      1.0  0.00361  0.36021  0.86838  1.0000
  H   H399      1.0  0.93624  0.31128  0.89008  1.0000
  C   C408      1.0  0.90355  0.31044  0.94032  1.0000
  C   C409      1.0  0.74093  0.05576  0.95428  1.0000
  N   N31       1.0  0.76185  0.03586  0.94380  1.0000
  N   N32       1.0  0.76979  0.28638  0.79076  1.0000
  C   C410      1.0  0.78282  0.30838  0.80777  1.0000
  C   C411      1.0  0.76066  0.26009  0.80362  1.0000
  C   C412      1.0  0.78675  0.30450  0.83858  1.0000
  C   C413      1.0  0.76438  0.25539  0.83434  1.0000
  C   C414      1.0  0.77725  0.27785  0.85190  1.0000
  C   C415      1.0  0.76414  0.29190  0.75894  1.0000
  H   H400      1.0  0.79014  0.32913  0.79753  1.0000
  H   H401      1.0  0.75015  0.24267  0.79022  1.0000
  H   H402      1.0  0.79698  0.32210  0.85202  1.0000
  H   H403      1.0  0.75693  0.23461  0.84455  1.0000
  H   H404      1.0  0.77981  0.27458  0.87580  1.0000
  H   H405      1.0  0.78417  0.30244  0.74823  1.0000
  H   H406      1.0  0.75906  0.27088  0.74652  1.0000
  H   H407      1.0  0.74457  0.30726  0.75648  1.0000
  H   H408      1.0  0.59708  0.27562  0.78255  1.0000
  H   H409      1.0  0.75985  0.35290  0.70206  1.0000
  H   H410      1.0  0.59294  0.36096  0.69958  1.0000
  H   H411      1.0  0.53876  0.31398  0.73639  1.0000
  H   H412      1.0  0.90257  0.20952  0.91830  1.0000
  H   H413      1.0  0.80085  0.06232  0.95275  1.0000
  H   H414      1.0  0.57374  0.32813  0.75125  1.0000
  H   H415      1.0  0.88918  0.25305  0.94960  1.0000
  C   C416      1.0  0.90311  0.25648  0.92993  1.0000
  C   C417      1.0  0.66154  0.18800  0.97311  1.0000
  H   H416      1.0  0.55216  0.39036  0.72397  1.0000
  C   C418      1.0  0.66936  0.20469  0.94790  1.0000
  H   H417      1.0  0.80833  0.02809  0.93300  1.0000
  H   H418      1.0  0.65347  0.16515  0.97068  1.0000
  C   C419      1.0  0.56974  0.35811  0.69248  1.0000
  H   H419      1.0  0.98483  0.38785  0.79331  1.0000
  C   C420      1.0  0.54663  0.37470  0.70627  1.0000
  C   C421      1.0  0.93696  0.26470  0.87841  1.0000
  N   N33       1.0  0.57443  0.28187  0.74083  1.0000
  H   H420      1.0  0.92164  0.31505  0.95689  1.0000
  C   C422      1.0  0.87165  0.49362  0.86536  1.0000
  C   C423      1.0  0.60809  0.23351  0.72033  1.0000
  C   C424      1.0  0.57126  0.27226  0.71191  1.0000
  C   C425      1.0  0.79194  0.04672  0.93545  1.0000
  H   H421      1.0  0.68764  0.24636  0.93186  1.0000
  H   H422      1.0  0.95009  0.26834  0.85820  1.0000
  H   H423      1.0  0.69529  0.06232  0.96967  1.0000
  H   H424      1.0  0.77734  0.03915  0.78758  1.0000
  C   C426      1.0  0.68477  0.24525  0.98031  1.0000
  C   C427      1.0  0.00808  0.39269  0.79927  1.0000
  C   C428      1.0  0.58830  0.24825  0.70110  1.0000
  H   H425      1.0  0.97780  0.42032  0.84839  1.0000
  H   H426      1.0  0.72356  0.03310  0.80052  1.0000
  H   H427      1.0  0.79071  0.05885  0.91378  1.0000
  S   S143      1.0  0.72168  0.29715  0.69245  1.0000
  C   C429      1.0  0.76255  0.01983  0.86021  1.0000
  H   H428      1.0  0.66706  0.19512  0.92564  1.0000
  H   H429      1.0  0.67994  0.02263  0.88823  1.0000
  N   N34       1.0  0.67676  0.22882  0.00492  1.0000
  H   H430      1.0  0.97405  0.44032  0.81358  1.0000
  C   C430      1.0  0.99026  0.43350  0.83129  1.0000
  N   N35       1.0  0.01481  0.41551  0.81864  1.0000
  H   H431      1.0  0.69438  0.26746  0.98293  1.0000
  C   C431      1.0  0.91257  0.64840  0.02857  1.0000
  Fe  Fe73      1.0  0.90678  0.66632  0.16451  1.0000
  S   S144      1.0  0.92109  0.62340  0.18678  1.0000
  S   S145      1.0  0.87748  0.66839  0.12288  1.0000
  Fe  Fe74      1.0  0.93127  0.70494  0.21541  1.0000
  S   S146      1.0  0.94844  0.66534  0.24066  1.0000
  S   S147      1.0  0.93341  0.75164  0.23478  1.0000
  Fe  Fe75      1.0  0.96432  0.64837  0.19633  1.0000
  H   H432      1.0  0.66932  0.70857  0.31497  1.0000
  Fe  Fe76      1.0  0.90403  0.64439  0.22922  1.0000
  S   S148      1.0  0.88046  0.62415  0.26902  1.0000
  S   S149      1.0  0.95118  0.69014  0.17133  1.0000
  S   S150      1.0  0.88588  0.68507  0.20646  1.0000
  C   C432      1.0  0.58675  0.66128  0.33913  1.0000
  H   H433      1.0  0.82561  0.54907  0.22874  1.0000
  S   S151      1.0  0.66897  0.58673  0.30971  1.0000
  Fe  Fe77      1.0  0.71609  0.60440  0.30455  1.0000
  S   S152      1.0  0.74069  0.59978  0.26084  1.0000
  C   C433      1.0  0.85820  0.69376  0.31561  1.0000
  H   H434      1.0  0.76520  0.74260  0.33490  1.0000
  C   C434      1.0  0.84961  0.75400  0.30341  1.0000
  N   N36       1.0  0.86247  0.72903  0.02028  1.0000
  C   C435      1.0  0.73936  0.52470  0.28155  1.0000
  C   C436      1.0  0.56133  0.67656  0.32836  1.0000
  H   H435      1.0  0.85817  0.73253  0.09592  1.0000
  H   H436      1.0  0.56224  0.68757  0.30681  1.0000
  C   C437      1.0  0.84109  0.62138  0.26630  1.0000
  C   C438      1.0  0.82674  0.62032  0.23843  1.0000
  C   C439      1.0  0.79557  0.61471  0.23684  1.0000
  C   C440      1.0  0.77868  0.61085  0.26310  1.0000
  C   C441      1.0  0.79285  0.61351  0.29093  1.0000
  C   C442      1.0  0.82407  0.61835  0.29252  1.0000
  H   H437      1.0  0.83981  0.62271  0.21811  1.0000
  H   H438      1.0  0.78463  0.61280  0.21525  1.0000
  H   H439      1.0  0.78000  0.61080  0.31126  1.0000
  H   H440      1.0  0.83510  0.61911  0.31412  1.0000
  H   H441      1.0  0.84672  0.77771  0.29904  1.0000
  C   C443      1.0  0.93249  0.64798  0.05302  1.0000
  C   C444      1.0  0.92190  0.65308  0.08226  1.0000
  C   C445      1.0  0.89122  0.65836  0.08720  1.0000
  C   C446      1.0  0.87117  0.65787  0.06281  1.0000
  C   C447      1.0  0.00180  0.73433  0.32525  1.0000
  H   H442      1.0  0.95631  0.64425  0.04928  1.0000
  H   H443      1.0  0.93749  0.65345  0.10090  1.0000
  H   H444      1.0  0.84740  0.66189  0.06655  1.0000
  H   H445      1.0  0.86210  0.67020  0.31998  1.0000
  C   C448      1.0  0.83273  0.54597  0.27631  1.0000
  C   C449      1.0  0.92904  0.73175  0.32323  1.0000
  C   C450      1.0  0.92907  0.72892  0.29196  1.0000
  C   C451      1.0  0.92830  0.75441  0.27384  1.0000
  C   C452      1.0  0.92559  0.78270  0.28723  1.0000
  C   C453      1.0  0.92477  0.78552  0.31859  1.0000
  H   H446      1.0  0.99474  0.78055  0.31352  1.0000
  H   H447      1.0  0.93063  0.70702  0.28207  1.0000
  H   H448      1.0  0.92488  0.80254  0.27337  1.0000
  H   H449      1.0  0.77132  0.53657  0.23199  1.0000
  H   H450      1.0  0.66404  0.74840  0.31901  1.0000
  C   C454      1.0  0.85149  0.74364  0.33287  1.0000
  H   H451      1.0  0.85138  0.74143  0.25678  1.0000
  C   C455      1.0  0.53450  0.67720  0.34508  1.0000
  C   C456      1.0  0.85619  0.70332  0.28589  1.0000
  C   C457      1.0  0.85210  0.73367  0.27978  1.0000
  H   H452      1.0  0.85829  0.68728  0.26777  1.0000
  Fe  Fe78      1.0  0.65898  0.63107  0.33111  1.0000
  H   H453      1.0  0.56053  0.62749  0.28487  1.0000
  H   H454      1.0  0.74730  0.69100  0.34524  1.0000
  S   S153      1.0  0.70494  0.65004  0.32185  1.0000
  H   H455      1.0  0.00835  0.68673  0.32965  1.0000
  C   C458      1.0  0.89933  0.72857  0.07068  1.0000
  C   C459      1.0  0.91188  0.72548  0.04221  1.0000
  C   C460      1.0  0.99978  0.75823  0.30529  1.0000
  C   C461      1.0  0.86816  0.73161  0.07374  1.0000
  H   H456      1.0  0.92365  0.80748  0.32881  1.0000
  H   H457      1.0  0.00022  0.77146  0.25909  1.0000
  H   H458      1.0  0.91350  0.72720  0.09047  1.0000
  C   C462      1.0  0.88180  0.65306  0.03354  1.0000
  H   H459      1.0  0.55717  0.58725  0.28070  1.0000
  C   C463      1.0  0.92737  0.76006  0.33662  1.0000
  S   S154      1.0  0.61921  0.65924  0.31661  1.0000
  H   H460      1.0  0.93104  0.71198  0.33706  1.0000
  C   C464      1.0  0.01021  0.70102  0.28346  1.0000
  H   H461      1.0  0.85630  0.55265  0.27509  1.0000
  H   H462      1.0  0.82565  0.73315  0.05079  1.0000
  N   N37       1.0  0.52285  0.60768  0.30684  1.0000
  C   C465      1.0  0.81550  0.54396  0.25025  1.0000
  H   H463      1.0  0.00613  0.69615  0.22550  1.0000
  C   C466      1.0  0.55421  0.60631  0.29639  1.0000
  H   H464      1.0  0.90631  0.94774  0.32111  1.0000
  S   S155      1.0  0.00853  0.62315  0.19589  1.0000
  H   H465      1.0  0.57044  0.60344  0.31518  1.0000
  C   C467      1.0  0.91895  0.99320  0.33164  1.0000
  H   H466      1.0  0.90813  0.00263  0.31202  1.0000
  C   C468      1.0  0.84992  0.73165  0.04815  1.0000
  H   H467      1.0  0.99587  0.73417  0.21878  1.0000
  N   N38       1.0  0.85574  0.71387  0.33864  1.0000
  C   C469      1.0  0.89299  0.72563  0.01711  1.0000
  C   C470      1.0  0.91799  0.96238  0.33670  1.0000
  H   H468      1.0  0.72826  0.53919  0.29849  1.0000
  C   C471      1.0  0.78478  0.53690  0.25227  1.0000
  H   H469      1.0  0.63475  0.72296  0.33043  1.0000
  H   H470      1.0  0.93594  0.72180  0.03965  1.0000
  N   N39       1.0  0.77159  0.53199  0.27954  1.0000
  C   C472      1.0  0.00280  0.75292  0.27456  1.0000
  C   C473      1.0  0.65962  0.72631  0.32955  1.0000
  H   H471      1.0  0.83217  0.94271  0.33651  1.0000
  H   H472      1.0  0.72744  0.52897  0.26008  1.0000
  C   C474      1.0  0.00708  0.70551  0.31433  1.0000
  N   N40       1.0  0.00764  0.72455  0.26402  1.0000
  S   S156      1.0  0.83899  0.00658  0.33877  1.0000
  C   C475      1.0  0.01146  0.71965  0.23180  1.0000
  C   C476      1.0  0.78843  0.53348  0.30518  1.0000
  C   C477      1.0  0.81919  0.54060  0.30398  1.0000
  H   H473      1.0  0.01428  0.67854  0.27510  1.0000
  H   H474      1.0  0.77795  0.52968  0.32677  1.0000
  H   H475      1.0  0.83230  0.54262  0.32439  1.0000
  H   H476      1.0  0.86625  0.65326  0.01489  1.0000
  Fe  Fe79      1.0  0.86680  0.80132  0.45927  1.0000
  S   S157      1.0  0.83393  0.83422  0.43968  1.0000
  S   S158      1.0  0.86097  0.78604  0.50732  1.0000
  Fe  Fe80      1.0  0.89959  0.79349  0.39935  1.0000
  H   H477      1.0  0.82716  0.84788  0.50620  1.0000
  Fe  Fe81      1.0  0.87486  0.85449  0.41778  1.0000
  S   S159      1.0  0.88587  0.90376  0.42464  1.0000
  Fe  Fe82      1.0  0.83257  0.80343  0.39979  1.0000
  S   S160      1.0  0.79301  0.78716  0.37230  1.0000
  S   S161      1.0  0.90788  0.82288  0.43949  1.0000
  S   S162      1.0  0.86162  0.76883  0.42125  1.0000
  Fe  Fe83      1.0  0.93905  0.82773  0.65941  1.0000
  H   H478      1.0  0.90339  0.90657  0.51634  1.0000
  S   S163      1.0  0.94371  0.83932  0.61020  1.0000
  H   H479      1.0  0.88440  0.86853  0.61237  1.0000
  C   C478      1.0  0.94442  0.97003  0.38332  1.0000
  H   H480      1.0  0.88075  0.71236  0.37901  1.0000
  S   S164      1.0  0.74583  0.65621  0.40060  1.0000
  H   H481      1.0  0.82578  0.84077  0.56091  1.0000
  C   C479      1.0  0.76830  0.73299  0.35690  1.0000
  H   H482      1.0  0.96877  0.00860  0.41943  1.0000
  C   C480      1.0  0.55882  0.64823  0.38393  1.0000
  H   H483      1.0  0.84610  0.88246  0.61181  1.0000
  H   H484      1.0  0.00642  0.83521  0.64297  1.0000
  H   H485      1.0  0.55786  0.63715  0.40544  1.0000
  H   H486      1.0  0.99834  0.73809  0.34905  1.0000
  C   C481      1.0  0.78224  0.74990  0.37949  1.0000
  C   C482      1.0  0.69194  0.74586  0.37000  1.0000
  H   H487      1.0  0.69820  0.76470  0.35601  1.0000
  C   C483      1.0  0.76145  0.69137  0.39131  1.0000
  C   C484      1.0  0.77603  0.70808  0.41367  1.0000
  C   C485      1.0  0.78637  0.73726  0.40781  1.0000
  C   C486      1.0  0.88596  0.89260  0.52613  1.0000
  H   H488      1.0  0.77872  0.69870  0.43584  1.0000
  H   H489      1.0  0.79675  0.75024  0.42552  1.0000
  C   C487      1.0  0.86985  0.93195  0.40207  1.0000
  H   H490      1.0  0.88687  0.96756  0.43005  1.0000
  C   C488      1.0  0.58546  0.64711  0.36696  1.0000
  C   C489      1.0  0.84965  0.97832  0.36424  1.0000
  C   C490      1.0  0.84299  0.85989  0.52037  1.0000
  C   C491      1.0  0.85412  0.92505  0.37581  1.0000
  C   C492      1.0  0.53322  0.66304  0.37292  1.0000
  C   C493      1.0  0.93287  0.01191  0.35268  1.0000
  H   H491      1.0  0.85019  0.90189  0.36976  1.0000
  C   C494      1.0  0.88631  0.79818  0.53536  1.0000
  C   C495      1.0  0.91013  0.81764  0.52874  1.0000
  C   C496      1.0  0.92828  0.82913  0.55187  1.0000
  C   C497      1.0  0.92279  0.82129  0.58179  1.0000
  C   C498      1.0  0.89960  0.80108  0.58840  1.0000
  C   C499      1.0  0.88135  0.78964  0.56522  1.0000
  H   H492      1.0  0.91419  0.82433  0.50586  1.0000
  H   H493      1.0  0.94625  0.84469  0.54659  1.0000
  H   H494      1.0  0.89528  0.79477  0.61139  1.0000
  H   H495      1.0  0.86303  0.77447  0.57047  1.0000
  C   C500      1.0  0.88470  0.88812  0.55714  1.0000
  H   H496      1.0  0.70889  0.71605  0.43790  1.0000
  C   C501      1.0  0.86176  0.86581  0.60191  1.0000
  H   H497      1.0  0.90148  0.89877  0.57132  1.0000
  C   C502      1.0  0.84241  0.85586  0.55141  1.0000
  H   H498      1.0  0.86605  0.88113  0.48356  1.0000
  H   H499      1.0  0.53364  0.59641  0.35205  1.0000
  N   N41       1.0  0.86326  0.86970  0.56934  1.0000
  S   S165      1.0  0.93236  0.76319  0.37551  1.0000
  N   N42       1.0  0.94526  0.00025  0.37816  1.0000
  H   H500      1.0  0.60486  0.63511  0.37536  1.0000
  C   C503      1.0  0.85898  0.70400  0.36974  1.0000
  H   H501      1.0  0.72064  0.76041  0.40638  1.0000
  H   H502      1.0  0.95345  0.96071  0.40385  1.0000
  H   H503      1.0  0.84998  0.75962  0.35113  1.0000
  C   C504      1.0  0.86497  0.87832  0.50768  1.0000
  C   C505      1.0  0.87481  0.96209  0.40970  1.0000
  C   C506      1.0  0.86485  0.98522  0.39081  1.0000
  S   S166      1.0  0.67076  0.61588  0.37749  1.0000
  Fe  Fe84      1.0  0.71784  0.63125  0.36642  1.0000
  C   C507      1.0  0.75809  0.70374  0.36274  1.0000
  C   C508      1.0  0.67850  0.69674  0.40550  1.0000
  H   H504      1.0  0.85835  0.67922  0.37175  1.0000
  C   C509      1.0  0.66580  0.69990  0.37701  1.0000
  C   C510      1.0  0.70466  0.74364  0.39858  1.0000
  H   H505      1.0  0.84020  0.71295  0.38355  1.0000
  C   C511      1.0  0.84399  0.94820  0.35699  1.0000
  S   S167      1.0  0.87043  0.82687  0.37572  1.0000
  H   H506      1.0  0.85396  0.84286  0.60775  1.0000
  H   H507      1.0  0.67407  0.67685  0.41872  1.0000
  H   H508      1.0  0.92931  0.92682  0.36732  1.0000
  S   S168      1.0  0.66829  0.52845  0.37476  1.0000
  C   C512      1.0  0.69800  0.71881  0.41632  1.0000
  N   N43       1.0  0.67258  0.72423  0.35968  1.0000
  H   H509      1.0  0.86917  0.00832  0.39667  1.0000
  C   C513      1.0  0.93094  0.95064  0.36261  1.0000
  S   S169      1.0  0.96167  0.78732  0.67931  1.0000
  H   H510      1.0  0.72878  0.51856  0.35206  1.0000
  H   H511      1.0  0.65085  0.68255  0.36863  1.0000
  Fe  Fe85      1.0  0.68435  0.57255  0.35546  1.0000
  H   H512      1.0  0.00171  0.80037  0.62302  1.0000
  C   C514      1.0  0.01672  0.82014  0.62602  1.0000
  H   H513      1.0  0.70822  0.51924  0.43251  1.0000
  S   S170      1.0  0.73254  0.58648  0.34857  1.0000
  H   H514      1.0  0.01727  0.83208  0.60423  1.0000
  Fe  Fe86      1.0  0.92238  0.78654  0.71125  1.0000
  S   S171      1.0  0.94526  0.81582  0.74482  1.0000
  S   S172      1.0  0.89471  0.74834  0.72972  1.0000
  Fe  Fe87      1.0  0.98255  0.82043  0.71123  1.0000
  H   H515      1.0  0.83201  0.61875  0.82715  1.0000
  Fe  Fe88      1.0  0.92234  0.85314  0.72054  1.0000
  S   S173      1.0  0.89930  0.88606  0.75115  1.0000
  Fe  Fe89      1.0  0.71322  0.91623  0.86506  1.0000
  S   S174      1.0  0.69130  0.89481  0.82492  1.0000
  S   S175      1.0  0.69571  0.96110  0.88095  1.0000
  Fe  Fe90      1.0  0.75490  0.86298  0.87516  1.0000
  S   S176      1.0  0.73545  0.83727  0.83665  1.0000
  S   S177      1.0  0.79749  0.84637  0.89719  1.0000
  Fe  Fe91      1.0  0.73841  0.88091  0.81237  1.0000
  S   S178      1.0  0.75691  0.88178  0.76532  1.0000
  Fe  Fe92      1.0  0.69031  0.85333  0.85318  1.0000
  S   S179      1.0  0.65050  0.82128  0.85387  1.0000
  S   S180      1.0  0.76023  0.90613  0.84988  1.0000
  S   S181      1.0  0.70961  0.87535  0.89432  1.0000
  Fe  Fe93      1.0  0.90274  0.67841  0.88787  1.0000
  S   S182      1.0  0.85512  0.66569  0.87657  1.0000
  S   S183      1.0  0.93570  0.70087  0.85671  1.0000
  Fe  Fe94      1.0  0.89877  0.65329  0.95115  1.0000
  S   S184      1.0  0.85071  0.63898  0.94515  1.0000
  S   S185      1.0  0.92706  0.64358  0.99213  1.0000
  Fe  Fe95      1.0  0.86552  0.62248  0.90003  1.0000
  S   S186      1.0  0.84633  0.57906  0.88224  1.0000
  Fe  Fe96      1.0  0.84464  0.68335  0.92238  1.0000
  S   S187      1.0  0.80199  0.70892  0.93144  1.0000
  S   S188      1.0  0.91422  0.63347  0.90748  1.0000
  S   S189      1.0  0.89165  0.69931  0.93227  1.0000
  C   C515      1.0  0.86880  0.54711  0.87623  1.0000
  H   H516      1.0  0.67757  0.98141  0.78134  1.0000
  H   H517      1.0  0.60673  0.82582  0.79739  1.0000
  C   C516      1.0  0.90024  0.54816  0.87883  1.0000
  N   N44       1.0  0.56006  0.81357  0.79822  1.0000
  C   C517      1.0  0.59037  0.80769  0.79797  1.0000
  H   H518      1.0  0.91141  0.56898  0.88435  1.0000
  C   C518      1.0  0.58015  0.75477  0.80220  1.0000
  C   C519      1.0  0.79850  0.80779  0.90506  1.0000
  C   C520      1.0  0.82644  0.79347  0.90846  1.0000
  C   C521      1.0  0.82775  0.76280  0.91535  1.0000
  C   C522      1.0  0.80108  0.74659  0.91986  1.0000
  C   C523      1.0  0.77317  0.76093  0.91642  1.0000
  C   C524      1.0  0.77186  0.79135  0.90853  1.0000
  H   H519      1.0  0.84710  0.80613  0.90585  1.0000
  H   H520      1.0  0.84936  0.75191  0.91777  1.0000
  H   H521      1.0  0.75248  0.74848  0.91986  1.0000
  H   H522      1.0  0.75023  0.80225  0.90596  1.0000
  C   C525      1.0  0.61469  0.83542  0.86365  1.0000
  C   C526      1.0  0.59047  0.81544  0.86746  1.0000
  C   C527      1.0  0.56098  0.82616  0.87176  1.0000
  C   C528      1.0  0.55571  0.85699  0.87314  1.0000
  C   C529      1.0  0.58008  0.87695  0.87058  1.0000
  C   C530      1.0  0.60947  0.86622  0.86559  1.0000
  H   H523      1.0  0.59446  0.79156  0.86634  1.0000
  C   C531      1.0  0.54933  0.84457  0.79660  1.0000
  H   H524      1.0  0.57615  0.90083  0.87182  1.0000
  H   H525      1.0  0.62801  0.88180  0.86286  1.0000
  H   H526      1.0  0.56711  0.86072  0.80372  1.0000
  H   H527      1.0  0.93593  0.57871  0.97717  1.0000
  H   H528      1.0  0.84774  0.58342  0.81554  1.0000
  H   H529      1.0  0.75733  0.97176  0.86084  1.0000
  C   C532      1.0  0.90538  0.73778  0.76615  1.0000
  C   C533      1.0  0.93533  0.74071  0.77553  1.0000
  C   C534      1.0  0.94406  0.73030  0.80387  1.0000
  C   C535      1.0  0.92290  0.71709  0.82309  1.0000
  C   C536      1.0  0.89268  0.71514  0.81415  1.0000
  C   C537      1.0  0.88399  0.72526  0.78562  1.0000
  H   H530      1.0  0.95205  0.75009  0.76058  1.0000
  H   H531      1.0  0.96747  0.73188  0.81063  1.0000
  H   H532      1.0  0.87616  0.70516  0.82884  1.0000
  H   H533      1.0  0.86074  0.72312  0.77852  1.0000
  C   C538      1.0  0.85987  0.88290  0.75509  1.0000
  C   C539      1.0  0.84145  0.87453  0.73102  1.0000
  C   C540      1.0  0.80987  0.87408  0.73436  1.0000
  C   C541      1.0  0.79662  0.88119  0.76197  1.0000
  C   C542      1.0  0.81515  0.88868  0.78622  1.0000
  C   C543      1.0  0.84660  0.88998  0.78266  1.0000
  H   H534      1.0  0.85147  0.86939  0.70957  1.0000
  H   H535      1.0  0.79570  0.86831  0.71548  1.0000
  H   H536      1.0  0.80537  0.89403  0.80762  1.0000
  H   H537      1.0  0.86072  0.89646  0.80136  1.0000
  H   H538      1.0  0.88271  0.59332  0.98287  1.0000
  C   C544      1.0  0.69156  0.98221  0.80194  1.0000
  H   H539      1.0  0.85828  0.64263  0.76230  1.0000
  H   H540      1.0  0.72955  0.93899  0.78540  1.0000
  C   C545      1.0  0.83375  0.56283  0.96466  1.0000
  H   H541      1.0  0.68790  0.96133  0.81498  1.0000
  H   H542      1.0  0.80775  0.99437  0.77332  1.0000
  C   C546      1.0  0.60088  0.77828  0.80039  1.0000
  H   H543      1.0  0.94119  0.63236  0.83550  1.0000
  C   C547      1.0  0.53958  0.79060  0.79937  1.0000
  H   H544      1.0  0.83057  0.58018  0.98224  1.0000
  H   H545      1.0  0.89262  0.60587  0.84330  1.0000
  H   H546      1.0  0.82069  0.73832  0.99771  1.0000
  C   C548      1.0  0.84304  0.72775  0.99374  1.0000
  H   H547      1.0  0.62496  0.77399  0.80173  1.0000
  C   C549      1.0  0.91729  0.52194  0.87470  1.0000
  C   C550      1.0  0.77038  0.96383  0.77827  1.0000
  C   C551      1.0  0.78400  0.99203  0.77881  1.0000
  H   H548      1.0  0.54240  0.81058  0.87396  1.0000
  H   H549      1.0  0.82925  0.60678  0.78860  1.0000
  H   H550      1.0  0.78333  0.94417  0.77206  1.0000
  H   H551      1.0  0.54206  0.84989  0.77345  1.0000
  H   H552      1.0  0.94858  0.66336  0.79005  1.0000
  H   H553      1.0  0.71939  0.97269  0.94353  1.0000
  H   H554      1.0  0.90681  0.66862  0.75333  1.0000
  N   N45       1.0  0.86879  0.81450  0.80579  1.0000
  C   C552      1.0  0.84735  0.81928  0.82731  1.0000
  C   C553      1.0  0.86047  0.80823  0.77696  1.0000
  C   C554      1.0  0.81668  0.81746  0.82022  1.0000
  C   C555      1.0  0.82998  0.80636  0.76908  1.0000
  C   C556      1.0  0.80796  0.81113  0.79088  1.0000
  C   C557      1.0  0.90093  0.81721  0.81305  1.0000
  H   H555      1.0  0.85372  0.82478  0.85012  1.0000
  H   H556      1.0  0.87745  0.80499  0.75980  1.0000
  H   H557      1.0  0.79986  0.82132  0.83738  1.0000
  H   H558      1.0  0.82358  0.80182  0.74608  1.0000
  H   H559      1.0  0.78421  0.81052  0.78496  1.0000
  H   H560      1.0  0.90490  0.81805  0.83759  1.0000
  H   H561      1.0  0.91350  0.79757  0.80421  1.0000
  H   H562      1.0  0.91020  0.83800  0.80281  1.0000
  S   S190      1.0  0.89751  0.82379  0.68815  1.0000
  C   C558      1.0  0.92533  0.53632  0.95618  1.0000
  N   N46       1.0  0.72349  0.98566  0.79409  1.0000
  C   C559      1.0  0.73990  0.96104  0.78590  1.0000
  C   C560      1.0  0.72547  0.99599  0.94730  1.0000
  C   C561      1.0  0.74654  0.99305  0.86492  1.0000
  C   C562      1.0  0.71664  0.99401  0.87479  1.0000
  C   C563      1.0  0.54929  0.76090  0.80146  1.0000
  C   C564      1.0  0.91820  0.56372  0.96944  1.0000
  H   H563      1.0  0.94159  0.52276  0.87700  1.0000
  H   H564      1.0  0.85342  0.73989  0.97464  1.0000
  N   N47       1.0  0.86537  0.55352  0.96238  1.0000
  H   H565      1.0  0.77052  0.99064  0.93071  1.0000
  H   H566      1.0  0.83031  0.51893  0.86702  1.0000
  H   H567      1.0  0.58798  0.73187  0.80441  1.0000
  N   N48       1.0  0.87298  0.62196  0.80287  1.0000
  C   C565      1.0  0.89585  0.61912  0.82324  1.0000
  C   C566      1.0  0.87666  0.63952  0.77801  1.0000
  C   C567      1.0  0.92345  0.63371  0.81880  1.0000
  C   C568      1.0  0.90411  0.65413  0.77268  1.0000
  C   C569      1.0  0.92761  0.65114  0.79325  1.0000
  C   C570      1.0  0.84404  0.60709  0.80867  1.0000
  H   H568      1.0  0.53006  0.84804  0.81216  1.0000
  H   H569      1.0  0.83919  0.70406  0.98705  1.0000
  S   S191      1.0  0.96197  0.86095  0.69003  1.0000
  C   C571      1.0  0.88792  0.57197  0.97248  1.0000
  C   C572      1.0  0.75438  0.00632  0.94002  1.0000
  H   H570      1.0  0.81903  0.54351  0.97044  1.0000
  H   H571      1.0  0.94872  0.52977  0.95336  1.0000
  H   H572      1.0  0.90285  0.72225  0.99514  1.0000
  H   H573      1.0  0.82613  0.57219  0.94288  1.0000
  C   C573      1.0  0.85462  0.51987  0.86921  1.0000
  H   H574      1.0  0.68131  0.00852  0.96295  1.0000
  H   H575      1.0  0.68369  0.00084  0.81651  1.0000
  H   H576      1.0  0.53286  0.74283  0.80279  1.0000
  S   S192      1.0  0.51894  0.87134  0.87738  1.0000
  C   C574      1.0  0.90221  0.51761  0.94605  1.0000
  C   C575      1.0  0.87220  0.52684  0.94890  1.0000
  C   C576      1.0  0.73645  0.01353  0.79391  1.0000
