data_image0
_chemical_formula_structural       CHFeSHSFeSFeSHCFeS2FeSHFe2S2H2CHSCFeSFeSHSHCHCFeHNHNHCH2SCHCHFeSC2H5SCHC6H4C6H7CHC6NCHCSHCNHC3HC4H2SCNC2HCHC5H2CH2CHCHSHC3H2NCHC2H3C2H2NC3H2C3H4NC3HC2HSC2HC2HC3H2CHC2HSCHCHC3HCHFeH2FeCHS2C2H2C2SCHFeS2FeS2Fe2S2C6H2SC2H2C3H2SCHSFeSHCH2SCH3SHFeS2FeS2Fe2S2CHC3SCHC4H3C2H2C5H3C3HC2H2CHNHSH3C3NH2C2HCSHNH5CSFeC2H2CHNC2NH3SHC2HC3HC3HC3HSCH7CFeCFeC2H3SFeCH3FeHSCSHCH4CFeSFeSCSH3CH4FeSFeSFeSFeS3CFeSCFeS2Fe2S2C6H4FeCSN2HFeH4CHCH2C2HC3S2C6H4C2SHC3H3FeC2HNHCHC4HSH2CHFeHC2NCHCH2C2H2SC3H3C3HCSH2C3H2C2H2CH6CHC2HC2SCHCSC2H2CHCHCHNSFeH3CNC3SCFe2H4CSHC3NCHSH2CSH2SC2SHCHCFeCHSHSH7CHSH2S2FeCHC3NH5FeC2NCHCH2C4HCHCH2CHCH2SC2H5CSC2HCH2CH2CHC3NS2HC2H6CNHC3HCHS2CH2C2HFeHSHSCHCH2C2H2CS2HFeSH3C2H2CH2FeHFeHSC2HSH2S3CH2SNFeHCHCH3NHC4FeHSC2H3SCHSH2CHFeHC3HSH2SHC4HCNCH2C2HC2SCHCHC3HSCHC3H3CH2C3HCNHSHFeHC2H3CH2CHCH2CH2CHCHC2NSCH2NHCHFeSHSFeSFeHSHFeSFeSFeSFeS3H3NFeSCSFeS2C6HCHC7H5FeC3H3NC4H2CHCHC7H6C3SH2C3SHFeH3NC7HCHCHCSNC4H4CHC2H2SHCH3CHNC2H6NCH3SCHS2C2H2CH4C3HNH2CHC3H2C4SC2H6C2HCSFeSHCHSCHCFeSFeSFeSFeS3FeSHCHSC5H3SC2H2C3H2FeH2C6H2CHNSCSFeSFeSH2CHCH4SC2H2C3H2C4HCFeH2SHCFeC4H2CSH2C2H3CH2SHCH2CNCHSHCSNCNHNC5H4C4SC2H2SFeC2FeCHSCHC2SH2CNH2SH5CSFeS2C2FeCFeC3HSHCFeSFeSFeCFeS3NFeSFeSCH3SCHC2FeSFeSFeSFeS3CHC2H2C7H5CHCHC7H4CH2SC2HCHNHCHC2H2SCHC2SCHC2H2CHNC6H8NCHCHCH3C2FeHC3HCH4C2FeH2CSNSC4H3C2SC2SHC2H2CH2CSH2CHFeHC2SH2C2H2CSC2HSH4CHCSHCSFe
_chemical_formula_sum              "C576 H576 Fe96 S192 N48"
_cell_length_a       40.3153
_cell_length_b       40.2026
_cell_length_c       48.2645
_cell_angle_alpha    89.7494
_cell_angle_beta     89.9592
_cell_angle_gamma    89.722

_space_group_name_H-M_alt    "P 1"
_space_group_IT_number       1

loop_
  _space_group_symop_operation_xyz
  'x, y, z'

loop_
  _atom_site_type_symbol
  _atom_site_label
  _atom_site_symmetry_multiplicity
  _atom_site_fract_x
  _atom_site_fract_y
  _atom_site_fract_z
  _atom_site_occupancy
  C   C1        1.0  0.07165  0.38090  0.12115  1.0000
  H   H1        1.0  0.06246  0.39088  0.10166  1.0000
  Fe  Fe1       1.0  0.28266  0.44688  0.19146  1.0000
  S   S1        1.0  0.26932  0.39422  0.18078  1.0000
  H   H2        1.0  0.10337  0.00309  0.26659  1.0000
  S   S2        1.0  0.20221  0.40308  0.21992  1.0000
  Fe  Fe2       1.0  0.25571  0.38899  0.22566  1.0000
  S   S3        1.0  0.26677  0.34436  0.25236  1.0000
  Fe  Fe3       1.0  0.21742  0.41397  0.17608  1.0000
  S   S4        1.0  0.18534  0.40193  0.13917  1.0000
  H   H3        1.0  0.34203  0.39739  0.16928  1.0000
  C   C2        1.0  0.21304  0.20196  0.03966  1.0000
  Fe  Fe4       1.0  0.09082  0.24411  0.10491  1.0000
  S   S5        1.0  0.04060  0.26080  0.11954  1.0000
  S   S6        1.0  0.13820  0.25265  0.12851  1.0000
  Fe  Fe5       1.0  0.06301  0.20974  0.05486  1.0000
  S   S7        1.0  0.01057  0.22405  0.06529  1.0000
  H   H4        1.0  0.18620  0.20262  0.09954  1.0000
  Fe  Fe6       1.0  0.03182  0.27473  0.07442  1.0000
  Fe  Fe7       1.0  0.02438  0.20861  0.10912  1.0000
  S   S8        1.0  0.08329  0.26094  0.06109  1.0000
  S   S9        1.0  0.07532  0.19133  0.09747  1.0000
  H   H5        1.0  0.42262  0.05050  0.16665  1.0000
  H   H6        1.0  0.40729  0.04679  0.33804  1.0000
  C   C3        1.0  0.40799  0.08496  0.07278  1.0000
  H   H7        1.0  0.20355  0.24370  0.09753  1.0000
  S   S10       1.0  0.33350  0.46825  0.17865  1.0000
  C   C4        1.0  0.43226  0.09259  0.09232  1.0000
  Fe  Fe8       1.0  0.44940  0.19905  0.31533  1.0000
  S   S11       1.0  0.40065  0.22006  0.30066  1.0000
  Fe  Fe9       1.0  0.42360  0.27025  0.30728  1.0000
  S   S12       1.0  0.41724  0.31507  0.27952  1.0000
  H   H8        1.0  0.17765  0.13970  0.05829  1.0000
  S   S13       1.0  0.23093  0.46730  0.18442  1.0000
  H   H9        1.0  0.15237  0.02848  0.30277  1.0000
  C   C5        1.0  0.35965  0.45716  0.09679  1.0000
  H   H10       1.0  0.34116  0.29543  0.21831  1.0000
  C   C6        1.0  0.04823  0.08937  0.11658  1.0000
  Fe  Fe10      1.0  0.00115  0.02401  0.25443  1.0000
  H   H11       1.0  0.41103  0.09235  0.05129  1.0000
  N   N1        1.0  0.09300  0.39885  0.13721  1.0000
  H   H12       1.0  0.15423  0.25190  0.06626  1.0000
  N   N2        1.0  0.37548  0.32971  0.20084  1.0000
  H   H13       1.0  0.46823  0.14246  0.19700  1.0000
  C   C7        1.0  0.20435  0.21842  0.08822  1.0000
  H   H14       1.0  0.29901  0.12366  0.31510  1.0000
  H   H15       1.0  0.34834  0.44801  0.07801  1.0000
  S   S14       1.0  0.01324  0.32727  0.06276  1.0000
  C   C8        1.0  0.07491  0.07790  0.32545  1.0000
  H   H16       1.0  0.06780  0.31016  0.15986  1.0000
  C   C9        1.0  0.41565  0.37355  0.19727  1.0000
  H   H17       1.0  0.19283  0.34407  0.32018  1.0000
  Fe  Fe11      1.0  0.21899  0.45482  0.22922  1.0000
  S   S15       1.0  0.41325  0.47122  0.06313  1.0000
  C   C10       1.0  0.13189  0.15716  0.04026  1.0000
  C   C11       1.0  0.10445  0.43141  0.12742  1.0000
  H   H18       1.0  0.12351  0.16880  0.05910  1.0000
  H   H19       1.0  0.30685  0.99557  0.04350  1.0000
  H   H20       1.0  0.44035  0.38288  0.20137  1.0000
  H   H21       1.0  0.04501  0.33490  0.11634  1.0000
  H   H22       1.0  0.42515  0.32583  0.21593  1.0000
  S   S16       1.0  0.99991  0.02003  0.30134  1.0000
  C   C12       1.0  0.38047  0.12951  0.29782  1.0000
  H   H23       1.0  0.12373  0.42791  0.11119  1.0000
  C   C13       1.0  0.17441  0.35989  0.13530  1.0000
  C   C14       1.0  0.15358  0.35067  0.11338  1.0000
  C   C15       1.0  0.14203  0.31788  0.11129  1.0000
  C   C16       1.0  0.15200  0.29397  0.13073  1.0000
  C   C17       1.0  0.17364  0.30294  0.15214  1.0000
  C   C18       1.0  0.18454  0.33593  0.15463  1.0000
  H   H24       1.0  0.14586  0.36906  0.09826  1.0000
  H   H25       1.0  0.12548  0.31115  0.09464  1.0000
  H   H26       1.0  0.18149  0.28447  0.16717  1.0000
  H   H27       1.0  0.20056  0.34286  0.17161  1.0000
  C   C19       1.0  0.30828  0.33850  0.26230  1.0000
  C   C20       1.0  0.33267  0.36180  0.25553  1.0000
  C   C21       1.0  0.36603  0.35537  0.26225  1.0000
  C   C22       1.0  0.37509  0.32545  0.27531  1.0000
  C   C23       1.0  0.35048  0.30283  0.28299  1.0000
  C   C24       1.0  0.31717  0.30935  0.27651  1.0000
  H   H28       1.0  0.32597  0.38451  0.24476  1.0000
  H   H29       1.0  0.38490  0.37325  0.25671  1.0000
  H   H30       1.0  0.35713  0.27987  0.29336  1.0000
  H   H31       1.0  0.29835  0.29136  0.28197  1.0000
  H   H32       1.0  0.11588  0.44601  0.14443  1.0000
  H   H33       1.0  0.05574  0.06598  0.28528  1.0000
  H   H34       1.0  0.39811  0.14633  0.28827  1.0000
  C   C25       1.0  0.13013  0.05767  0.33502  1.0000
  H   H35       1.0  0.11163  0.41355  0.30930  1.0000
  C   C26       1.0  0.07938  0.08413  0.10469  1.0000
  C   C27       1.0  0.07442  0.33526  0.15371  1.0000
  C   C28       1.0  0.10716  0.46403  0.32377  1.0000
  C   C29       1.0  0.39226  0.46964  0.09582  1.0000
  C   C30       1.0  0.38795  0.48099  0.14535  1.0000
  C   C31       1.0  0.34141  0.45633  0.12183  1.0000
  N   N3        1.0  0.40156  0.06304  0.12723  1.0000
  C   C32       1.0  0.37712  0.05643  0.10843  1.0000
  H   H36       1.0  0.31884  0.06901  0.33234  1.0000
  C   C33       1.0  0.32481  0.11655  0.31248  1.0000
  S   S17       1.0  0.99071  0.17304  0.13371  1.0000
  H   H37       1.0  0.44757  0.08747  0.13467  1.0000
  C   C34       1.0  0.39839  0.05050  0.15567  1.0000
  N   N4        1.0  0.21224  0.39341  0.31511  1.0000
  H   H38       1.0  0.12330  0.39927  0.17349  1.0000
  C   C35       1.0  0.40635  0.48147  0.12036  1.0000
  C   C36       1.0  0.02335  0.10497  0.10099  1.0000
  C   C37       1.0  0.21028  0.35838  0.30697  1.0000
  H   H39       1.0  0.38978  0.02423  0.15560  1.0000
  C   C38       1.0  0.35535  0.46844  0.14633  1.0000
  C   C39       1.0  0.19140  0.44015  0.34084  1.0000
  C   C40       1.0  0.10530  0.38564  0.16132  1.0000
  C   C41       1.0  0.16825  0.23803  0.05093  1.0000
  H   H40       1.0  0.08354  0.44625  0.11880  1.0000
  H   H41       1.0  0.12968  0.03584  0.25327  1.0000
  S   S18       1.0  0.46783  0.14784  0.29991  1.0000
  C   C42       1.0  0.01350  0.09831  0.20513  1.0000
  N   N5        1.0  0.36918  0.07760  0.32071  1.0000
  C   C43       1.0  0.33622  0.08572  0.32225  1.0000
  C   C44       1.0  0.34720  0.13868  0.30043  1.0000
  H   H42       1.0  0.05005  0.16189  0.16843  1.0000
  C   C45       1.0  0.00456  0.38062  0.02680  1.0000
  H   H43       1.0  0.45432  0.10616  0.08626  1.0000
  C   C46       1.0  0.13098  0.04329  0.30867  1.0000
  C   C47       1.0  0.39114  0.09873  0.30815  1.0000
  C   C48       1.0  0.47996  0.09464  0.21498  1.0000
  C   C49       1.0  0.14418  0.44589  0.28598  1.0000
  C   C50       1.0  0.11261  0.15912  0.01626  1.0000
  H   H44       1.0  0.33892  0.16307  0.29353  1.0000
  H   H45       1.0  0.39827  0.41914  0.17819  1.0000
  C   C51       1.0  0.01179  0.34634  0.02913  1.0000
  H   H46       1.0  0.32740  0.34032  0.18444  1.0000
  H   H47       1.0  0.15403  0.42612  0.27324  1.0000
  C   C52       1.0  0.12006  0.43884  0.30651  1.0000
  H   H48       1.0  0.36122  0.06057  0.06581  1.0000
  C   C53       1.0  0.46685  0.14519  0.24173  1.0000
  H   H49       1.0  0.10912  0.08993  0.06772  1.0000
  S   S19       1.0  0.02270  0.07134  0.23384  1.0000
  H   H50       1.0  0.05248  0.09069  0.33192  1.0000
  C   C54       1.0  0.47996  0.09399  0.26564  1.0000
  C   C55       1.0  0.35238  0.34935  0.18784  1.0000
  C   C56       1.0  0.08512  0.09412  0.07736  1.0000
  H   H51       1.0  0.10710  0.34277  0.18842  1.0000
  H   H52       1.0  0.00046  0.39495  0.04541  1.0000
  N   N6        1.0  0.10463  0.04663  0.29102  1.0000
  C   C57       1.0  0.23689  0.44721  0.30891  1.0000
  H   H53       1.0  0.04331  0.08169  0.13780  1.0000
  C   C58       1.0  0.16257  0.14065  0.03977  1.0000
  C   C59       1.0  0.10587  0.03045  0.26388  1.0000
  H   H54       1.0  0.37755  0.02580  0.31625  1.0000
  H   H55       1.0  0.25423  0.46325  0.29810  1.0000
  H   H56       1.0  0.09894  0.07217  0.11658  1.0000
  C   C60       1.0  0.03127  0.14420  0.17458  1.0000
  C   C61       1.0  0.36656  0.29582  0.20927  1.0000
  H   H57       1.0  0.22964  0.20809  0.09149  1.0000
  H   H58       1.0  0.41726  0.09222  0.30644  1.0000
  N   N7        1.0  0.02956  0.11582  0.07461  1.0000
  C   C62       1.0  0.06181  0.34902  0.12928  1.0000
  C   C63       1.0  0.09632  0.35363  0.16986  1.0000
  C   C64       1.0  0.38227  0.98525  0.07576  1.0000
  H   H59       1.0  0.06125  0.12215  0.20699  1.0000
  H   H60       1.0  0.35602  0.04130  0.11432  1.0000
  C   C65       1.0  0.37998  0.06721  0.08092  1.0000
  C   C66       1.0  0.00327  0.13270  0.05890  1.0000
  C   C67       1.0  0.39212  0.39386  0.18429  1.0000
  H   H61       1.0  0.46059  0.17137  0.24205  1.0000
  H   H62       1.0  0.38356  0.28610  0.22561  1.0000
  H   H63       1.0  0.38061  0.06609  0.16746  1.0000
  H   H64       1.0  0.08549  0.03917  0.25007  1.0000
  N   N8        1.0  0.19549  0.21995  0.05879  1.0000
  C   C68       1.0  0.40693  0.34124  0.20530  1.0000
  C   C69       1.0  0.36038  0.38166  0.17936  1.0000
  C   C70       1.0  0.05965  0.10976  0.06246  1.0000
  H   H65       1.0  0.36759  0.27898  0.19114  1.0000
  C   C71       1.0  0.33351  0.99483  0.04596  1.0000
  C   C72       1.0  0.07682  0.06368  0.29909  1.0000
  H   H66       1.0  0.01382  0.14939  0.04271  1.0000
  S   S20       1.0  0.27225  0.44004  0.23730  1.0000
  C   C73       1.0  0.15766  0.23815  0.02330  1.0000
  C   C74       1.0  0.47122  0.12865  0.21612  1.0000
  H   H67       1.0  0.98708  0.11408  0.04883  1.0000
  C   C75       1.0  0.42839  0.08175  0.11971  1.0000
  C   C76       1.0  0.03757  0.12151  0.19649  1.0000
  H   H68       1.0  0.99912  0.10876  0.11027  1.0000
  C   C77       1.0  0.19035  0.40639  0.33394  1.0000
  C   C78       1.0  0.00046  0.14450  0.16122  1.0000
  C   C79       1.0  0.23541  0.41328  0.30275  1.0000
  H   H69       1.0  0.31641  0.44665  0.12210  1.0000
  H   H70       1.0  0.20193  0.35665  0.28506  1.0000
  C   C80       1.0  0.47160  0.12808  0.26676  1.0000
  H   H71       1.0  0.46761  0.36196  0.33699  1.0000
  C   C81       1.0  0.15626  0.47828  0.28266  1.0000
  C   C82       1.0  0.10177  0.07481  0.34351  1.0000
  H   H72       1.0  0.25244  0.40297  0.28760  1.0000
  S   S21       1.0  0.47387  0.24963  0.31868  1.0000
  C   C83       1.0  0.35393  0.00077  0.02299  1.0000
  H   H73       1.0  0.23376  0.18636  0.04593  1.0000
  C   C84       1.0  0.21465  0.46069  0.32801  1.0000
  H   H74       1.0  0.23514  0.34636  0.30853  1.0000
  C   C85       1.0  0.17449  0.12663  0.01514  1.0000
  C   C86       1.0  0.40269  0.99186  0.05293  1.0000
  C   C87       1.0  0.38860  0.99921  0.02675  1.0000
  H   H75       1.0  0.06415  0.11718  0.04118  1.0000
  C   C88       1.0  0.38072  0.04564  0.33196  1.0000
  H   H76       1.0  0.98795  0.14863  0.07280  1.0000
  Fe  Fe12      1.0  0.46467  0.48184  0.04392  1.0000
  H   H77       1.0  0.42936  0.99085  0.05535  1.0000
  H   H78       1.0  0.17118  0.39103  0.34309  1.0000
  Fe  Fe13      1.0  0.38779  0.22354  0.34573  1.0000
  C   C89       1.0  0.48070  0.33978  0.34549  1.0000
  H   H79       1.0  0.13537  0.25155  0.01724  1.0000
  S   S22       1.0  0.07455  0.18063  0.01628  1.0000
  S   S23       1.0  0.21555  0.11192  0.01421  1.0000
  C   C90       1.0  0.34760  0.98680  0.07201  1.0000
  C   C91       1.0  0.29355  0.16263  0.45116  1.0000
  H   H80       1.0  0.37627  0.09664  0.38183  1.0000
  H   H81       1.0  0.08037  0.32465  0.67117  1.0000
  C   C92       1.0  0.08421  0.99772  0.36853  1.0000
  C   C93       1.0  0.10062  0.00873  0.39270  1.0000
  S   S24       1.0  0.45087  0.99283  0.67470  1.0000
  C   C94       1.0  0.09441  0.34759  0.67005  1.0000
  H   H82       1.0  0.98534  0.30189  0.51167  1.0000
  Fe  Fe14      1.0  0.23743  0.08768  0.47476  1.0000
  S   S25       1.0  0.21349  0.04031  0.48810  1.0000
  S   S26       1.0  0.23057  0.13526  0.49849  1.0000
  Fe  Fe15      1.0  0.27761  0.05297  0.43054  1.0000
  S   S27       1.0  0.39840  0.46870  0.55940  1.0000
  S   S28       1.0  0.31897  0.06067  0.39967  1.0000
  Fe  Fe16      1.0  0.20727  0.02979  0.44232  1.0000
  Fe  Fe17      1.0  0.26497  0.01820  0.48560  1.0000
  S   S29       1.0  0.22838  0.07936  0.42954  1.0000
  S   S30       1.0  0.28881  0.06642  0.47453  1.0000
  C   C95       1.0  0.32380  0.10209  0.38914  1.0000
  C   C96       1.0  0.29659  0.12371  0.38793  1.0000
  C   C97       1.0  0.30076  0.15655  0.37874  1.0000
  C   C98       1.0  0.33210  0.16782  0.37063  1.0000
  C   C99       1.0  0.35924  0.14607  0.37153  1.0000
  C   C100      1.0  0.35514  0.11331  0.38096  1.0000
  H   H83       1.0  0.27223  0.11505  0.39365  1.0000
  H   H84       1.0  0.41731  0.08029  0.62082  1.0000
  S   S31       1.0  0.45971  0.47121  0.49519  1.0000
  C   C101      1.0  0.18440  0.32604  0.66242  1.0000
  C   C102      1.0  0.34127  0.02449  0.53928  1.0000
  H   H85       1.0  0.41244  0.11037  0.66586  1.0000
  H   H86       1.0  0.45738  0.37849  0.44739  1.0000
  C   C103      1.0  0.18874  0.14512  0.50493  1.0000
  C   C104      1.0  0.18068  0.16939  0.52465  1.0000
  C   C105      1.0  0.14733  0.17683  0.53062  1.0000
  H   H87       1.0  0.20023  0.18233  0.53545  1.0000
  H   H88       1.0  0.14126  0.19548  0.54591  1.0000
  S   S32       1.0  0.33684  0.20945  0.36051  1.0000
  C   C106      1.0  0.07144  0.33322  0.46438  1.0000
  H   H89       1.0  0.15577  0.09950  0.54806  1.0000
  S   S33       1.0  0.43509  0.20037  0.36074  1.0000
  Fe  Fe18      1.0  0.03805  0.47495  0.37872  1.0000
  S   S34       1.0  0.98708  0.18094  0.64024  1.0000
  H   H90       1.0  0.13291  0.04226  0.54694  1.0000
  C   C107      1.0  0.36910  0.03019  0.55642  1.0000
  H   H91       1.0  0.10595  0.35121  0.60146  1.0000
  H   H92       1.0  0.40204  0.39721  0.66708  1.0000
  S   S35       1.0  0.22252  0.45663  0.67361  1.0000
  C   C108      1.0  0.99432  0.32639  0.50625  1.0000
  H   H93       1.0  0.32274  0.21660  0.42997  1.0000
  H   H94       1.0  0.25755  0.39825  0.58276  1.0000
  H   H95       1.0  0.99480  0.45984  0.52117  1.0000
  S   S36       1.0  0.21007  0.37848  0.63281  1.0000
  H   H96       1.0  0.38250  0.05330  0.55443  1.0000
  Fe  Fe19      1.0  0.08995  0.23788  0.61128  1.0000
  S   S37       1.0  0.03932  0.25904  0.61821  1.0000
  S   S38       1.0  0.12604  0.24724  0.64584  1.0000
  Fe  Fe20      1.0  0.06800  0.20186  0.55960  1.0000
  S   S39       1.0  0.01523  0.21986  0.56362  1.0000
  S   S40       1.0  0.07999  0.16971  0.52284  1.0000
  Fe  Fe21      1.0  0.03857  0.26989  0.57212  1.0000
  Fe  Fe22      1.0  0.02183  0.20687  0.60919  1.0000
  S   S41       1.0  0.09101  0.25179  0.56625  1.0000
  S   S42       1.0  0.07280  0.18572  0.60399  1.0000
  C   C109      1.0  0.29139  0.43025  0.56042  1.0000
  H   H97       1.0  0.10037  0.08485  0.36432  1.0000
  C   C110      1.0  0.02810  0.37427  0.51614  1.0000
  C   C111      1.0  0.05072  0.33284  0.44124  1.0000
  C   C112      1.0  0.30557  0.46195  0.55930  1.0000
  S   S43       1.0  0.41482  0.01577  0.59743  1.0000
  C   C113      1.0  0.35030  0.14060  0.44828  1.0000
  H   H98       1.0  0.27539  0.04042  0.57009  1.0000
  C   C114      1.0  0.17207  0.07815  0.55087  1.0000
  C   C115      1.0  0.12197  0.16038  0.51651  1.0000
  C   C116      1.0  0.13009  0.13616  0.49679  1.0000
  C   C117      1.0  0.16339  0.12832  0.49117  1.0000
  H   H99       1.0  0.11055  0.12331  0.48587  1.0000
  H   H100      1.0  0.16938  0.10945  0.47601  1.0000
  H   H101      1.0  0.27745  0.17836  0.43773  1.0000
  C   C118      1.0  0.47411  0.35748  0.44577  1.0000
  C   C119      1.0  0.46767  0.33162  0.42634  1.0000
  H   H102      1.0  0.03677  0.12768  0.63345  1.0000
  H   H103      1.0  0.40087  0.12314  0.44473  1.0000
  C   C120      1.0  0.18851  0.34091  0.63642  1.0000
  C   C121      1.0  0.17430  0.32626  0.61301  1.0000
  C   C122      1.0  0.15549  0.29714  0.61565  1.0000
  C   C123      1.0  0.15095  0.28257  0.64173  1.0000
  C   C124      1.0  0.37992  0.00623  0.57589  1.0000
  H   H104      1.0  0.26902  0.08465  0.56892  1.0000
  H   H105      1.0  0.17762  0.33757  0.59282  1.0000
  H   H106      1.0  0.14453  0.28599  0.59753  1.0000
  C   C125      1.0  0.38401  0.14399  0.44194  1.0000
  C   C126      1.0  0.39556  0.17413  0.43129  1.0000
  C   C127      1.0  0.21465  0.02415  0.55654  1.0000
  H   H107      1.0  0.44601  0.33295  0.41318  1.0000
  C   C128      1.0  0.34251  0.44897  0.62783  1.0000
  C   C129      1.0  0.36166  0.44494  0.60351  1.0000
  H   H108      1.0  0.32509  0.42993  0.63397  1.0000
  H   H109      1.0  0.35848  0.42287  0.59105  1.0000
  C   C130      1.0  0.05483  0.24975  0.49577  1.0000
  H   H110      1.0  0.28526  0.13655  0.44822  1.0000
  N   N9        1.0  0.32868  0.16646  0.44395  1.0000
  H   H111      1.0  0.04578  0.38679  0.52928  1.0000
  S   S44       1.0  0.03297  0.32321  0.55458  1.0000
  H   H112      1.0  0.08774  0.30638  0.50055  1.0000
  H   H113      1.0  0.08540  0.35541  0.46929  1.0000
  H   H114      1.0  0.01807  0.25589  0.44984  1.0000
  C   C131      1.0  0.01659  0.39032  0.49180  1.0000
  C   C132      1.0  0.07270  0.30541  0.48192  1.0000
  C   C133      1.0  0.26293  0.06091  0.55847  1.0000
  N   N10       1.0  0.05419  0.27782  0.47631  1.0000
  H   H115      1.0  0.08069  0.24372  0.50214  1.0000
  H   H116      1.0  0.27964  0.17326  0.37790  1.0000
  C   C134      1.0  0.44216  0.09045  0.61954  1.0000
  C   C135      1.0  0.43893  0.10364  0.66888  1.0000
  H   H117      1.0  0.06427  0.35588  0.61470  1.0000
  C   C136      1.0  0.01730  0.34208  0.52350  1.0000
  S   S45       1.0  0.25667  0.00254  0.44099  1.0000
  H   H118      1.0  0.44786  0.07676  0.57660  1.0000
  N   N11       1.0  0.45684  0.10383  0.64242  1.0000
  H   H119      1.0  0.02567  0.41474  0.48630  1.0000
  H   H120      1.0  0.34141  0.11687  0.45602  1.0000
  H   H121      1.0  0.21613  0.10767  0.55360  1.0000
  H   H122      1.0  0.04011  0.25614  0.51447  1.0000
  H   H123      1.0  0.04566  0.07433  0.65857  1.0000
  C   C137      1.0  0.12035  0.38996  0.64345  1.0000
  S   S46       1.0  0.15412  0.01820  0.42758  1.0000
  Fe  Fe23      1.0  0.45304  0.99250  0.62776  1.0000
  C   C138      1.0  0.03162  0.30476  0.43587  1.0000
  C   C139      1.0  0.20624  0.08262  0.55413  1.0000
  H   H124      1.0  0.42151  0.17697  0.42574  1.0000
  H   H125      1.0  0.12712  0.40054  0.62355  1.0000
  C   C140      1.0  0.38343  0.46998  0.59426  1.0000
  H   H126      1.0  0.24262  0.44135  0.61697  1.0000
  N   N12       1.0  0.22700  0.05579  0.55706  1.0000
  C   C141      1.0  0.02034  0.12076  0.65020  1.0000
  C   C142      1.0  0.37341  0.20047  0.42725  1.0000
  N   N13       1.0  0.10227  0.36125  0.64488  1.0000
  H   H127      1.0  0.33368  0.04312  0.52435  1.0000
  H   H128      1.0  0.38195  0.22372  0.41826  1.0000
  H   H129      1.0  0.32396  0.46728  0.54344  1.0000
  S   S47       1.0  0.28655  0.98730  0.52169  1.0000
  H   H130      1.0  0.28936  0.16953  0.47316  1.0000
  C   C143      1.0  0.02530  0.09041  0.66453  1.0000
  C   C144      1.0  0.33989  0.19624  0.43388  1.0000
  H   H131      1.0  0.17307  0.45069  0.35484  1.0000
  C   C145      1.0  0.16576  0.29682  0.66505  1.0000
  C   C146      1.0  0.03359  0.27731  0.45378  1.0000
  C   C147      1.0  0.15925  0.04601  0.55027  1.0000
  H   H132      1.0  0.27330  0.06141  0.53715  1.0000
  C   C148      1.0  0.45933  0.08850  0.59439  1.0000
  C   C149      1.0  0.27499  0.47844  0.59909  1.0000
  C   C150      1.0  0.34463  0.47836  0.64318  1.0000
  H   H133      1.0  0.06206  0.21658  0.66840  1.0000
  C   C151      1.0  0.99340  0.37472  0.47468  1.0000
  C   C152      1.0  0.08948  0.34611  0.61944  1.0000
  C   C153      1.0  0.13505  0.00400  0.39632  1.0000
  H   H134      1.0  0.08803  0.31860  0.62155  1.0000
  S   S48       1.0  0.03761  0.46938  0.42553  1.0000
  C   C154      1.0  0.26018  0.44708  0.60065  1.0000
  H   H135      1.0  0.01463  0.30476  0.41844  1.0000
  H   H136      1.0  0.00808  0.47895  0.48896  1.0000
  H   H137      1.0  0.08650  0.02101  0.40879  1.0000
  H   H138      1.0  0.23127  0.00284  0.55778  1.0000
  H   H139      1.0  0.17106  0.99364  0.55203  1.0000
  H   H140      1.0  0.46258  0.32418  0.35696  1.0000
  H   H141      1.0  0.38339  0.15437  0.36501  1.0000
  C   C155      1.0  0.18060  0.01877  0.55320  1.0000
  Fe  Fe24      1.0  0.45081  0.47776  0.54150  1.0000
  C   C156      1.0  0.99394  0.14183  0.65728  1.0000
  Fe  Fe25      1.0  0.45445  0.25289  0.36260  1.0000
  C   C157      1.0  0.32331  0.99486  0.54161  1.0000
  C   C158      1.0  0.26858  0.42282  0.58130  1.0000
  H   H142      1.0  0.29850  0.41145  0.54546  1.0000
  H   H143      1.0  0.05782  0.00172  0.36614  1.0000
  H   H144      1.0  0.04841  0.35477  0.42810  1.0000
  S   S49       1.0  0.99049  0.44607  0.37370  1.0000
  Fe  Fe26      1.0  0.22720  0.40116  0.67283  1.0000
  C   C159      1.0  0.13087  0.40584  0.66765  1.0000
  H   H145      1.0  0.15069  0.05418  0.34929  1.0000
  H   H146      1.0  0.14545  0.42845  0.66656  1.0000
  H   H147      1.0  0.36653  0.03887  0.35098  1.0000
  Fe  Fe27      1.0  0.98934  0.44290  0.42058  1.0000
  H   H148      1.0  0.04452  0.22667  0.48659  1.0000
  S   S50       1.0  0.40578  0.27582  0.35099  1.0000
  C   C160      1.0  0.15281  0.98774  0.37538  1.0000
  S   S51       1.0  0.08029  0.45254  0.35182  1.0000
  H   H149      1.0  0.10817  0.17579  0.66640  1.0000
  C   C161      1.0  0.99092  0.48127  0.50690  1.0000
  H   H150      1.0  0.48317  0.39318  0.37805  1.0000
  H   H151      1.0  0.44054  0.07840  0.67834  1.0000
  H   H152      1.0  0.27437  0.29026  0.76391  1.0000
  H   H153      1.0  0.15738  0.04424  0.89386  1.0000
  C   C162      1.0  0.46934  0.37844  0.91239  1.0000
  Fe  Fe28      1.0  0.20521  0.45000  0.71793  1.0000
  S   S52       1.0  0.20668  0.39436  0.71568  1.0000
  Fe  Fe29      1.0  0.25964  0.39931  0.72932  1.0000
  S   S53       1.0  0.27785  0.37056  0.76650  1.0000
  C   C163      1.0  0.08649  0.14331  0.69743  1.0000
  S   S54       1.0  0.25772  0.45493  0.73355  1.0000
  H   H154      1.0  0.32431  0.42264  0.74733  1.0000
  H   H155      1.0  0.10642  0.12520  0.69611  1.0000
  H   H156      1.0  0.35401  0.45101  0.76201  1.0000
  C   C164      1.0  0.14393  0.02334  0.88552  1.0000
  H   H157      1.0  0.21658  0.18649  0.99695  1.0000
  H   H158      1.0  0.36224  0.10890  0.94703  1.0000
  H   H159      1.0  0.25409  0.30122  0.85057  1.0000
  H   H160      1.0  0.35266  0.25048  0.77371  1.0000
  Fe  Fe30      1.0  0.00030  0.01120  0.74313  1.0000
  S   S55       1.0  0.42165  0.28568  0.84490  1.0000
  Fe  Fe31      1.0  0.45508  0.19889  0.81845  1.0000
  S   S56       1.0  0.40397  0.21839  0.80904  1.0000
  Fe  Fe32      1.0  0.42900  0.26727  0.80146  1.0000
  S   S57       1.0  0.41545  0.29538  0.76243  1.0000
  Fe  Fe33      1.0  0.40200  0.23460  0.85328  1.0000
  S   S58       1.0  0.35976  0.22969  0.88348  1.0000
  S   S59       1.0  0.48072  0.24760  0.80876  1.0000
  S   S60       1.0  0.45116  0.21222  0.86396  1.0000
  C   C165      1.0  0.12261  0.39232  0.69338  1.0000
  Fe  Fe34      1.0  0.23143  0.07815  0.97925  1.0000
  S   S61       1.0  0.23329  0.02293  0.98709  1.0000
  C   C166      1.0  0.41852  0.38178  0.73505  1.0000
  Fe  Fe35      1.0  0.26684  0.07212  0.92390  1.0000
  S   S62       1.0  0.27179  0.01698  0.92873  1.0000
  S   S63       1.0  0.28730  0.09051  0.88314  1.0000
  Fe  Fe36      1.0  0.21811  0.01923  0.94177  1.0000
  Fe  Fe37      1.0  0.28667  0.02679  0.97308  1.0000
  S   S64       1.0  0.21287  0.07429  0.93530  1.0000
  S   S65       1.0  0.28501  0.08212  0.96684  1.0000
  C   C167      1.0  0.30669  0.12953  0.88339  1.0000
  C   C168      1.0  0.30430  0.15049  0.90635  1.0000
  C   C169      1.0  0.32042  0.18140  0.90612  1.0000
  C   C170      1.0  0.33944  0.19113  0.88317  1.0000
  C   C171      1.0  0.34191  0.17010  0.86027  1.0000
  C   C172      1.0  0.32530  0.13950  0.86028  1.0000
  H   H161      1.0  0.28984  0.14298  0.92418  1.0000
  H   H162      1.0  0.31834  0.19765  0.92385  1.0000
  H   H163      1.0  0.35644  0.17741  0.84246  1.0000
  H   H164      1.0  0.32718  0.12332  0.84248  1.0000
  Fe  Fe38      1.0  0.47141  0.26305  0.85344  1.0000
  C   C173      1.0  0.32580  0.24802  0.76898  1.0000
  S   S66       1.0  0.15537  0.47250  0.73173  1.0000
  N   N14       1.0  0.37244  0.41949  0.73001  1.0000
  N   N15       1.0  0.30575  0.26246  0.79130  1.0000
  H   H165      1.0  0.31979  0.22128  0.76648  1.0000
  Fe  Fe39      1.0  0.03475  0.98657  0.79680  1.0000
  H   H166      1.0  0.18014  0.06655  0.81452  1.0000
  H   H167      1.0  0.02226  0.30187  0.00605  1.0000
  H   H168      1.0  0.06937  0.08637  0.72145  1.0000
  H   H169      1.0  0.42705  0.25528  0.91117  1.0000
  C   C174      1.0  0.10249  0.48235  0.76758  1.0000
  H   H170      1.0  0.17845  0.45468  0.78787  1.0000
  C   C175      1.0  0.06184  0.19487  0.68183  1.0000
  H   H171      1.0  0.40160  0.11453  0.84011  1.0000
  H   H172      1.0  0.16390  0.11695  0.97221  1.0000
  C   C176      1.0  0.01682  0.32822  0.00477  1.0000
  C   C177      1.0  0.36055  0.06407  0.92290  1.0000
  H   H173      1.0  0.15046  0.45700  0.83375  1.0000
  C   C178      1.0  0.03543  0.18960  0.69997  1.0000
  C   C179      1.0  0.10348  0.47430  0.81779  1.0000
  C   C180      1.0  0.01422  0.34402  0.97861  1.0000
  S   S67       1.0  0.33771  0.00915  0.98910  1.0000
  S   S68       1.0  0.07774  0.00918  0.82240  1.0000
  C   C181      1.0  0.31693  0.35146  0.76477  1.0000
  C   C182      1.0  0.33128  0.34305  0.73937  1.0000
  C   C183      1.0  0.36155  0.32566  0.73879  1.0000
  C   C184      1.0  0.37752  0.31683  0.76357  1.0000
  C   C185      1.0  0.36316  0.32537  0.78891  1.0000
  C   C186      1.0  0.33298  0.34275  0.78950  1.0000
  H   H174      1.0  0.31876  0.34926  0.72022  1.0000
  H   H175      1.0  0.37254  0.31887  0.71913  1.0000
  H   H176      1.0  0.37537  0.31879  0.80808  1.0000
  H   H177      1.0  0.32184  0.34915  0.80919  1.0000
  C   C187      1.0  0.39998  0.39836  0.68949  1.0000
  C   C188      1.0  0.00710  0.37827  0.97625  1.0000
  S   S69       1.0  0.46227  0.14396  0.80586  1.0000
  H   H178      1.0  0.30009  0.26156  0.86127  1.0000
  C   C189      1.0  0.40853  0.32660  0.94555  1.0000
  C   C190      1.0  0.19032  0.04470  0.82472  1.0000
  C   C191      1.0  0.39340  0.40145  0.74662  1.0000
  H   H179      1.0  0.47175  0.04694  0.74372  1.0000
  H   H180      1.0  0.36179  0.02375  0.89378  1.0000
  H   H181      1.0  0.13036  0.40470  0.71229  1.0000
  Fe  Fe40      1.0  0.27526  0.45504  0.68886  1.0000
  C   C192      1.0  0.40477  0.30004  0.92715  1.0000
  C   C193      1.0  0.08632  0.48325  0.79364  1.0000
  H   H182      1.0  0.11681  0.05314  0.85574  1.0000
  N   N16       1.0  0.06031  0.13814  0.71498  1.0000
  H   H183      1.0  0.38320  0.29847  0.91377  1.0000
  C   C194      1.0  0.27987  0.28342  0.78520  1.0000
  H   H184      1.0  0.39026  0.40152  0.76896  1.0000
  C   C195      1.0  0.36866  0.04936  0.89766  1.0000
  C   C196      1.0  0.29420  0.26795  0.83994  1.0000
  C   C197      1.0  0.22815  0.01949  0.85741  1.0000
  C   C198      1.0  0.10325  0.00152  0.85220  1.0000
  H   H185      1.0  0.07542  0.11259  0.75152  1.0000
  S   S70       1.0  0.01301  0.04241  0.70420  1.0000
  H   H186      1.0  0.45601  0.34255  0.88093  1.0000
  H   H187      1.0  0.22667  0.07203  0.84827  1.0000
  C   C199      1.0  0.37522  0.41785  0.70178  1.0000
  H   H188      1.0  0.44869  0.39478  0.90770  1.0000
  Fe  Fe41      1.0  0.03430  0.48283  0.87287  1.0000
  H   H189      1.0  0.35814  0.43151  0.68860  1.0000
  C   C200      1.0  0.03516  0.16104  0.71665  1.0000
  C   C201      1.0  0.12384  0.14384  0.99191  1.0000
  N   N17       1.0  0.39360  0.10043  0.88228  1.0000
  C   C202      1.0  0.00436  0.08072  0.68648  1.0000
  H   H190      1.0  0.38952  0.34574  0.94634  1.0000
  C   C203      1.0  0.26106  0.29781  0.80640  1.0000
  H   H191      1.0  0.01415  0.15679  0.73022  1.0000
  H   H192      1.0  0.32169  0.26110  0.74891  1.0000
  C   C204      1.0  0.13587  0.47205  0.76513  1.0000
  C   C205      1.0  0.47343  0.34875  0.89710  1.0000
  H   H193      1.0  0.01777  0.32949  0.96002  1.0000
  H   H194      1.0  0.01465  0.20687  0.70024  1.0000
  S   S71       1.0  0.99516  0.44293  0.87326  1.0000
  C   C206      1.0  0.15281  0.46255  0.78923  1.0000
  C   C207      1.0  0.13682  0.46396  0.81531  1.0000
  C   C208      1.0  0.26834  0.29001  0.83393  1.0000
  H   H195      1.0  0.43459  0.36683  0.74828  1.0000
  H   H196      1.0  0.09832  0.35198  0.71459  1.0000
  H   H197      1.0  0.03434  0.10214  0.73952  1.0000
  C   C209      1.0  0.21617  0.04782  0.84374  1.0000
  C   C210      1.0  0.41201  0.11901  0.86109  1.0000
  C   C211      1.0  0.42172  0.38018  0.70630  1.0000
  H   H198      1.0  0.33299  0.23741  0.82316  1.0000
  C   C212      1.0  0.00244  0.39654  0.00061  1.0000
  S   S72       1.0  0.28056  0.39976  0.68615  1.0000
  H   H199      1.0  0.39164  0.05639  0.85790  1.0000
  H   H200      1.0  0.16248  0.28547  0.68523  1.0000
  C   C213      1.0  0.34565  0.43907  0.74254  1.0000
  C   C214      1.0  0.38538  0.06798  0.87748  1.0000
  C   C215      1.0  0.15486  0.12772  0.99129  1.0000
  H   H201      1.0  0.43854  0.11130  0.86103  1.0000
  H   H202      1.0  0.39200  0.14088  0.91078  1.0000
  C   C216      1.0  0.38581  0.11506  0.90703  1.0000
  C   C217      1.0  0.12078  0.02832  0.86386  1.0000
  H   H203      1.0  0.33705  0.45933  0.72843  1.0000
  H   H204      1.0  0.34752  0.04988  0.93869  1.0000
  C   C218      1.0  0.36904  0.09715  0.92764  1.0000
  H   H205      1.0  0.24814  0.02227  0.87218  1.0000
  H   H206      1.0  0.41084  0.14628  0.86457  1.0000
  H   H207      1.0  0.44975  0.12156  0.68381  1.0000
  H   H208      1.0  0.24153  0.31557  0.80142  1.0000
  H   H209      1.0  0.42531  0.35088  0.00090  1.0000
  H   H210      1.0  0.10886  0.14505  0.97333  1.0000
  C   C219      1.0  0.17530  0.21981  0.00370  1.0000
  H   H211      1.0  0.16659  0.21861  0.98245  1.0000
  C   C220      1.0  0.31277  0.25432  0.81824  1.0000
  C   C221      1.0  0.05997  0.10851  0.73283  1.0000
  H   H212      1.0  0.42951  0.37992  0.97227  1.0000
  C   C222      1.0  0.10452  0.36285  0.69465  1.0000
  C   C223      1.0  0.46698  0.09022  0.77021  1.0000
  S   S73       1.0  0.00208  0.39603  0.94237  1.0000
  C   C224      1.0  0.17700  0.01339  0.81943  1.0000
  H   H213      1.0  0.45387  0.07683  0.78628  1.0000
  C   C225      1.0  0.45714  0.27774  0.94282  1.0000
  S   S74       1.0  0.08540  0.47693  0.85167  1.0000
  C   C226      1.0  0.14990  0.99137  0.89607  1.0000
  C   C227      1.0  0.42933  0.27559  0.92576  1.0000
  H   H214      1.0  0.40474  0.00353  0.00920  1.0000
  H   H215      1.0  0.47699  0.25951  0.94104  1.0000
  C   C228      1.0  0.20343  0.20192  0.01180  1.0000
  H   H216      1.0  0.15608  0.01079  0.80543  1.0000
  C   C229      1.0  0.46006  0.30454  0.96105  1.0000
  H   H217      1.0  0.48220  0.30646  0.97370  1.0000
  C   C230      1.0  0.47714  0.07312  0.74602  1.0000
  H   H218      1.0  0.19560  0.33697  0.68051  1.0000
  N   N18       1.0  0.21442  0.98897  0.85261  1.0000
  S   S75       1.0  0.99407  0.02442  0.78828  1.0000
  Fe  Fe42      1.0  0.99724  0.44681  0.92006  1.0000
  H   H219      1.0  0.44065  0.36442  0.69711  1.0000
  H   H220      1.0  0.99676  0.42282  0.99930  1.0000
  H   H221      1.0  0.46555  0.36127  0.98681  1.0000
  C   C231      1.0  0.47397  0.12427  0.77396  1.0000
  N   N19       1.0  0.43608  0.32872  0.96201  1.0000
  C   C232      1.0  0.18942  0.98562  0.83367  1.0000
  C   C233      1.0  0.43914  0.35639  0.98155  1.0000
  C   C234      1.0  0.08765  0.17174  0.68059  1.0000
  S   S76       1.0  0.39843  0.97639  0.10958  1.0000
  C   C235      1.0  0.01842  0.83452  0.17827  1.0000
  Fe  Fe43      1.0  0.03172  0.97436  0.29583  1.0000
  Fe  Fe44      1.0  0.98787  0.94791  0.24751  1.0000
  H   H222      1.0  0.36474  0.50705  0.02785  1.0000
  H   H223      1.0  0.99518  0.75895  0.20895  1.0000
  H   H224      1.0  0.15186  0.52875  0.29718  1.0000
  H   H225      1.0  0.47179  0.60186  0.03678  1.0000
  C   C236      1.0  0.11844  0.49660  0.31980  1.0000
  S   S77       1.0  0.98811  0.93878  0.29375  1.0000
  H   H226      1.0  0.45203  0.57803  0.08151  1.0000
  C   C237      1.0  0.01133  0.86298  0.19443  1.0000
  C   C238      1.0  0.99072  0.59316  0.02047  1.0000
  C   C239      1.0  0.44888  0.58775  0.03765  1.0000
  N   N20       1.0  0.39115  0.55022  0.03940  1.0000
  C   C240      1.0  0.43779  0.57442  0.06272  1.0000
  H   H227      1.0  0.04212  0.82209  0.18057  1.0000
  S   S78       1.0  0.45911  0.98057  0.17349  1.0000
  H   H228      1.0  0.15028  0.96315  0.33569  1.0000
  H   H229      1.0  0.02945  0.87214  0.20901  1.0000
  C   C241      1.0  0.40875  0.55551  0.06322  1.0000
  S   S79       1.0  0.00297  0.78284  0.14296  1.0000
  H   H230      1.0  0.39905  0.49049  0.16410  1.0000
  H   H231      1.0  0.01351  0.79897  0.24450  1.0000
  S   S80       1.0  0.98653  0.74900  0.06527  1.0000
  C   C242      1.0  0.36081  0.53025  0.03992  1.0000
  C   C243      1.0  0.46939  0.63526  0.32980  1.0000
  S   S81       1.0  0.08291  0.96705  0.31643  1.0000
  H   H232      1.0  0.40079  0.54447  0.08267  1.0000
  C   C244      1.0  0.98843  0.80026  0.23644  1.0000
  H   H233      1.0  0.10909  0.51629  0.33292  1.0000
  C   C245      1.0  0.99478  0.82151  0.15980  1.0000
  Fe  Fe45      1.0  0.45165  0.97768  0.12696  1.0000
  C   C246      1.0  0.14287  0.50357  0.29952  1.0000
  H   H234      1.0  0.35398  0.52256  0.06135  1.0000
  S   S82       1.0  0.03407  0.97911  0.24912  1.0000
  H   H235      1.0  0.33970  0.54456  0.03104  1.0000
  S   S83       1.0  0.18951  0.48806  0.25935  1.0000
  H   H236      1.0  0.21449  0.48725  0.33192  1.0000
  H   H237      1.0  0.99585  0.57937  0.03930  1.0000
  H   H238      1.0  0.45278  0.65443  0.32197  1.0000
  H   H239      1.0  0.33144  0.98164  0.08940  1.0000
  H   H240      1.0  0.47555  0.87296  0.28162  1.0000
  H   H241      1.0  0.48121  0.90716  0.23876  1.0000
  H   H242      1.0  0.43130  0.49123  0.12008  1.0000
  C   C247      1.0  0.40200  0.56301  0.01470  1.0000
  H   H243      1.0  0.36999  0.52524  0.64668  1.0000
  S   S84       1.0  0.01251  0.54873  0.46677  1.0000
  H   H244      1.0  0.06366  0.67588  0.58612  1.0000
  H   H245      1.0  0.40326  0.51817  0.60372  1.0000
  S   S85       1.0  0.01159  0.52479  0.38072  1.0000
  S   S86       1.0  0.31778  0.48693  0.67180  1.0000
  Fe  Fe46      1.0  0.00678  0.51682  0.42716  1.0000
  C   C248      1.0  0.33400  0.97096  0.56118  1.0000
  H   H246      1.0  0.08272  0.75333  0.62464  1.0000
  C   C249      1.0  0.99254  0.61561  0.46124  1.0000
  C   C250      1.0  0.00067  0.58921  0.47905  1.0000
  C   C251      1.0  0.99276  0.62700  0.51867  1.0000
  N   N21       1.0  0.46165  0.61799  0.35339  1.0000
  H   H247      1.0  0.06451  0.78181  0.58424  1.0000
  H   H248      1.0  0.40904  0.61662  0.35466  1.0000
  H   H249      1.0  0.99304  0.63104  0.54081  1.0000
  H   H250      1.0  0.04462  0.72743  0.50982  1.0000
  H   H251      1.0  0.05041  0.67464  0.53598  1.0000
  Fe  Fe47      1.0  0.48228  0.94568  0.67360  1.0000
  C   C252      1.0  0.07209  0.72921  0.61785  1.0000
  C   C253      1.0  0.05124  0.72792  0.53163  1.0000
  N   N22       1.0  0.06601  0.72887  0.58789  1.0000
  C   C254      1.0  0.06201  0.69910  0.57467  1.0000
  H   H252      1.0  0.08975  0.70922  0.62398  1.0000
  C   C255      1.0  0.13629  0.97613  0.35146  1.0000
  H   H253      1.0  0.04829  0.72576  0.62915  1.0000
  H   H254      1.0  0.47707  0.58084  0.38249  1.0000
  C   C256      1.0  0.05504  0.75814  0.54531  1.0000
  C   C257      1.0  0.06234  0.75817  0.57364  1.0000
  C   C258      1.0  0.98550  0.65363  0.50082  1.0000
  C   C259      1.0  0.98530  0.81317  0.67657  1.0000
  H   H255      1.0  0.05160  0.78139  0.53417  1.0000
  C   C260      1.0  0.01120  0.82008  0.65814  1.0000
  H   H256      1.0  0.05262  0.85251  0.65013  1.0000
  C   C261      1.0  0.05462  0.69818  0.54636  1.0000
  H   H257      1.0  0.01162  0.96158  0.66322  1.0000
  H   H258      1.0  0.45050  0.64795  0.43412  1.0000
  C   C262      1.0  0.99275  0.95175  0.67785  1.0000
  H   H259      1.0  0.00707  0.57524  0.52193  1.0000
  C   C263      1.0  0.31266  0.51849  0.57727  1.0000
  H   H260      1.0  0.99260  0.61166  0.43908  1.0000
  H   H261      1.0  0.29651  0.53559  0.56517  1.0000
  S   S87       1.0  0.01858  0.79532  0.62800  1.0000
  C   C264      1.0  0.03226  0.84706  0.66400  1.0000
  C   C265      1.0  0.47360  0.63432  0.43224  1.0000
  H   H262      1.0  0.32043  0.94795  0.56329  1.0000
  H   H263      1.0  0.31644  0.52880  0.59838  1.0000
  H   H264      1.0  0.45931  0.59642  0.46205  1.0000
  H   H265      1.0  0.36998  0.95775  0.59289  1.0000
  H   H266      1.0  0.42884  0.61265  0.38811  1.0000
  C   C266      1.0  0.36783  0.50251  0.63489  1.0000
  S   S88       1.0  0.48013  0.94351  0.62678  1.0000
  C   C267      1.0  0.36221  0.97644  0.57803  1.0000
  C   C268      1.0  0.00066  0.59524  0.50784  1.0000
  H   H267      1.0  0.33760  0.51741  0.56735  1.0000
  C   C269      1.0  0.38707  0.49841  0.61063  1.0000
  H   H268      1.0  0.26896  0.49684  0.61473  1.0000
  H   H269      1.0  0.00395  0.91969  0.63007  1.0000
  C   C270      1.0  0.47852  0.60505  0.44814  1.0000
  H   H270      1.0  0.17915  0.98347  0.37789  1.0000
  H   H271      1.0  0.42778  0.65225  0.37131  1.0000
  C   C271      1.0  0.43019  0.62505  0.36751  1.0000
  H   H272      1.0  0.99754  0.50437  0.51818  1.0000
  C   C272      1.0  0.10192  0.98117  0.34773  1.0000
  C   C273      1.0  0.98549  0.64759  0.47205  1.0000
  C   C274      1.0  0.48288  0.59421  0.36352  1.0000
  N   N23       1.0  0.29765  0.48538  0.57875  1.0000
  S   S89       1.0  0.99219  0.57620  0.93654  1.0000
  S   S90       1.0  0.99870  0.94382  0.80266  1.0000
  H   H273      1.0  0.04441  0.58547  0.85856  1.0000
  C   C275      1.0  0.10871  0.96962  0.86313  1.0000
  C   C276      1.0  0.10870  0.53203  0.90312  1.0000
  H   H274      1.0  0.00017  0.55089  0.99373  1.0000
  H   H275      1.0  0.46953  0.82822  0.71594  1.0000
  H   H276      1.0  0.13598  0.93980  0.89290  1.0000
  H   H277      1.0  0.05685  0.60435  0.93297  1.0000
  H   H278      1.0  0.00584  0.94262  0.69671  1.0000
  H   H279      1.0  0.20643  0.94270  0.87307  1.0000
  C   C277      1.0  0.04993  0.59825  0.87840  1.0000
  N   N24       1.0  0.07044  0.57741  0.89666  1.0000
  H   H280      1.0  0.46940  0.57263  0.93996  1.0000
  C   C278      1.0  0.09040  0.56425  0.94234  1.0000
  C   C279      1.0  0.98741  0.59451  0.97000  1.0000
  C   C280      1.0  0.13182  0.96465  0.88488  1.0000
  H   H281      1.0  0.12333  0.52193  0.94525  1.0000
  C   C281      1.0  0.47988  0.61335  0.91168  1.0000
  H   H282      1.0  0.08864  0.54687  0.86381  1.0000
  S   S91       1.0  0.99667  0.52461  0.87108  1.0000
  S   S92       1.0  0.99357  0.88393  0.73676  1.0000
  C   C282      1.0  0.00145  0.85998  0.70626  1.0000
  H   H283      1.0  0.02557  0.60368  0.88834  1.0000
  H   H284      1.0  0.24494  0.94581  0.85366  1.0000
  C   C283      1.0  0.22718  0.95943  0.86707  1.0000
  C   C284      1.0  0.02723  0.86711  0.68771  1.0000
  H   H285      1.0  0.04371  0.88762  0.69192  1.0000
  Fe  Fe48      1.0  0.00252  0.93552  0.75620  1.0000
  H   H286      1.0  0.12271  0.51138  0.89447  1.0000
  S   S93       1.0  0.18082  0.98321  0.92193  1.0000
  H   H287      1.0  0.17809  0.96157  0.83022  1.0000
  S   S94       1.0  0.04194  0.97472  0.75135  1.0000
  C   C285      1.0  0.48209  0.84242  0.73173  1.0000
  H   H288      1.0  0.23965  0.96620  0.88679  1.0000
  C   C286      1.0  0.07152  0.58413  0.92441  1.0000
  H   H289      1.0  0.46170  0.60557  0.89659  1.0000
  H   H290      1.0  0.09005  0.56894  0.96447  1.0000
  C   C287      1.0  0.08918  0.55213  0.88585  1.0000
  C   C288      1.0  0.10902  0.53795  0.93158  1.0000
  H   H291      1.0  0.06279  0.62201  0.87392  1.0000
  H   H292      1.0  0.09557  0.94868  0.85451  1.0000
  C   C289      1.0  0.99322  0.57688  0.99462  1.0000
  S   S95       1.0  0.46139  0.49495  0.99843  1.0000
  S   S96       1.0  0.47428  0.89519  0.69544  1.0000
  H   H293      1.0  0.43986  0.59178  0.99381  1.0000
  Fe  Fe49      1.0  0.99635  0.52365  0.91797  1.0000
  S   S97       1.0  0.03758  0.48539  0.91968  1.0000
  H   H294      1.0  0.06077  0.49138  0.79505  1.0000
  H   H295      1.0  0.38847  0.55821  0.99574  1.0000
  H   H296      1.0  0.08905  0.48987  0.74918  1.0000
  C   C290      1.0  0.43094  0.58202  0.01346  1.0000
  C   C291      1.0  0.87480  0.47865  0.32643  1.0000
  H   H297      1.0  0.95255  0.12094  0.15955  1.0000
  H   H298      1.0  0.49078  0.05130  0.23969  1.0000
  C   C292      1.0  0.84672  0.47288  0.30955  1.0000
  H   H299      1.0  0.88580  0.45843  0.33816  1.0000
  H   H300      1.0  0.49013  0.32532  0.32753  1.0000
  Fe  Fe50      1.0  0.49403  0.02273  0.16393  1.0000
  H   H301      1.0  0.83636  0.44813  0.30852  1.0000
  Fe  Fe51      1.0  0.54092  0.48041  0.04202  1.0000
  H   H302      1.0  0.96411  0.08052  0.19758  1.0000
  S   S98       1.0  0.59285  0.47802  0.06234  1.0000
  C   C293      1.0  0.98299  0.09803  0.19126  1.0000
  C   C294      1.0  0.97649  0.12110  0.16966  1.0000
  H   H303      1.0  0.85339  0.46468  0.23089  1.0000
  S   S99       1.0  0.48501  0.02055  0.11762  1.0000
  H   H304      1.0  0.81588  0.04709  0.29479  1.0000
  H   H305      1.0  0.78060  0.01706  0.33286  1.0000
  S   S100      1.0  0.95488  0.99331  0.25031  1.0000
  S   S101      1.0  0.50161  0.44026  0.03683  1.0000
  S   S102      1.0  0.53946  0.98927  0.16033  1.0000
  C   C295      1.0  0.48391  0.07734  0.24003  1.0000
  H   H306      1.0  0.83621  0.00701  0.29920  1.0000
  H   H307      1.0  0.90015  0.46337  0.26402  1.0000
  S   S103      1.0  0.48625  0.07563  0.18178  1.0000
  N   N25       1.0  0.83021  0.03482  0.33606  1.0000
  Fe  Fe52      1.0  0.95632  0.98492  0.29673  1.0000
  H   H308      1.0  0.48394  0.08040  0.28475  1.0000
  C   C296      1.0  0.83572  0.03338  0.30604  1.0000
  H   H309      1.0  0.86000  0.04432  0.30002  1.0000
  C   C297      1.0  0.80017  0.02529  0.34659  1.0000
  H   H310      1.0  0.87965  0.05006  0.34521  1.0000
  H   H311      1.0  0.95395  0.42981  0.49206  1.0000
  H   H312      1.0  0.81654  0.03290  0.41537  1.0000
  N   N26       1.0  0.50772  0.34916  0.36418  1.0000
  H   H313      1.0  0.57939  0.31812  0.39027  1.0000
  C   C298      1.0  0.90944  0.45398  0.47814  1.0000
  C   C299      1.0  0.85532  0.04406  0.35344  1.0000
  C   C300      1.0  0.82005  0.03441  0.39308  1.0000
  C   C301      1.0  0.55646  0.36420  0.40286  1.0000
  Fe  Fe53      1.0  0.49998  0.01924  0.67307  1.0000
  H   H314      1.0  0.89789  0.43093  0.47171  1.0000
  S   S104      1.0  0.49110  0.44191  0.55414  1.0000
  C   C302      1.0  0.55908  0.33545  0.38690  1.0000
  C   C303      1.0  0.50257  0.35619  0.46274  1.0000
  H   H315      1.0  0.61304  0.46195  0.57799  1.0000
  H   H316      1.0  0.54561  0.32701  0.47332  1.0000
  H   H317      1.0  0.77117  0.01639  0.38362  1.0000
  S   S105      1.0  0.51486  0.38816  0.48637  1.0000
  C   C304      1.0  0.53424  0.32817  0.36764  1.0000
  H   H318      1.0  0.57709  0.47517  0.66873  1.0000
  S   S106      1.0  0.53903  0.47881  0.50959  1.0000
  H   H319      1.0  0.61005  0.00494  0.58876  1.0000
  H   H320      1.0  0.53549  0.30485  0.35643  1.0000
  C   C305      1.0  0.94130  0.45348  0.48958  1.0000
  H   H321      1.0  0.96413  0.33046  0.46935  1.0000
  Fe  Fe54      1.0  0.50134  0.43739  0.50808  1.0000
  H   H322      1.0  0.66885  0.45666  0.59972  1.0000
  C   C306      1.0  0.50493  0.37737  0.37981  1.0000
  C   C307      1.0  0.50668  0.11363  0.61630  1.0000
  C   C308      1.0  0.52928  0.38536  0.39931  1.0000
  H   H323      1.0  0.52630  0.40693  0.41259  1.0000
  S   S107      1.0  0.48591  0.27172  0.39889  1.0000
  H   H324      1.0  0.53439  0.28232  0.44000  1.0000
  H   H325      1.0  0.62222  0.41059  0.67772  1.0000
  S   S108      1.0  0.50117  0.02098  0.62615  1.0000
  H   H326      1.0  0.57471  0.36940  0.41878  1.0000
  C   C309      1.0  0.97278  0.13203  0.67910  1.0000
  C   C310      1.0  0.51730  0.30310  0.44139  1.0000
  C   C311      1.0  0.85059  0.04411  0.38217  1.0000
  C   C312      1.0  0.64494  0.99011  0.55678  1.0000
  H   H327      1.0  0.87091  0.05021  0.39592  1.0000
  C   C313      1.0  0.52374  0.32861  0.46038  1.0000
  N   N27       1.0  0.95664  0.48243  0.49686  1.0000
  C   C314      1.0  0.65178  0.47560  0.60695  1.0000
  H   H328      1.0  0.65566  0.43197  0.66012  1.0000
  H   H329      1.0  0.61425  0.43653  0.64765  1.0000
  C   C315      1.0  0.62006  0.47845  0.59462  1.0000
  C   C316      1.0  0.98222  0.34276  0.48225  1.0000
  H   H330      1.0  0.65839  0.01331  0.55742  1.0000
  C   C317      1.0  0.89323  0.48439  0.47423  1.0000
  C   C318      1.0  0.79462  0.02496  0.37523  1.0000
  S   S109      1.0  0.97755  0.39383  0.44375  1.0000
  C   C319      1.0  0.62929  0.43389  0.66685  1.0000
  H   H331      1.0  0.50577  0.09770  0.57368  1.0000
  C   C320      1.0  0.48963  0.30436  0.42390  1.0000
  H   H332      1.0  0.53224  0.12191  0.61559  1.0000
  C   C321      1.0  0.61741  0.98546  0.57462  1.0000
  C   C322      1.0  0.48870  0.11535  0.64106  1.0000
  C   C323      1.0  0.49184  0.10007  0.59283  1.0000
  H   H333      1.0  0.50076  0.12503  0.65941  1.0000
  S   S110      1.0  0.50593  0.28884  0.88459  1.0000
  C   C324      1.0  0.49153  0.38709  0.93372  1.0000
  H   H334      1.0  0.83187  0.06268  0.82991  1.0000
  C   C325      1.0  0.83981  0.03712  0.83572  1.0000
  C   C326      1.0  0.93342  0.37399  0.91167  1.0000
  C   C327      1.0  0.92916  0.38372  0.88403  1.0000
  H   H335      1.0  0.89790  0.37535  0.97191  1.0000
  H   H336      1.0  0.96166  0.09489  0.71053  1.0000
  H   H337      1.0  0.87411  0.44668  0.89426  1.0000
  C   C328      1.0  0.52248  0.33610  0.92382  1.0000
  H   H338      1.0  0.88281  0.42886  0.94292  1.0000
  H   H339      1.0  0.76939  0.00775  0.90681  1.0000
  C   C329      1.0  0.79386  0.99781  0.83002  1.0000
  C   C330      1.0  0.89548  0.41567  0.92644  1.0000
  C   C331      1.0  0.80261  0.02252  0.87400  1.0000
  H   H340      1.0  0.95220  0.14798  0.68479  1.0000
  C   C332      1.0  0.89041  0.42583  0.89901  1.0000
  N   N28       1.0  0.91662  0.38992  0.93245  1.0000
  H   H341      1.0  0.53549  0.37174  0.95564  1.0000
  S   S111      1.0  0.51060  0.06908  0.69499  1.0000
  H   H342      1.0  0.51623  0.13684  0.71349  1.0000
  Fe  Fe55      1.0  0.49966  0.45462  0.99147  1.0000
  H   H343      1.0  0.95114  0.35438  0.91647  1.0000
  C   C333      1.0  0.97811  0.10189  0.69379  1.0000
  C   C334      1.0  0.92192  0.38041  0.96149  1.0000
  H   H344      1.0  0.92975  0.47921  0.79747  1.0000
  H   H345      1.0  0.81695  0.03843  0.88754  1.0000
  H   H346      1.0  0.86017  0.03850  0.85121  1.0000
  C   C335      1.0  0.90743  0.40976  0.87771  1.0000
  H   H347      1.0  0.90432  0.41808  0.85642  1.0000
  H   H348      1.0  0.93499  0.40076  0.97247  1.0000
  C   C336      1.0  0.77564  0.00516  0.88505  1.0000
  H   H349      1.0  0.67127  0.45529  0.70532  1.0000
  C   C337      1.0  0.51810  0.36557  0.93941  1.0000
  H   H350      1.0  0.54329  0.31986  0.92833  1.0000
  H   H351      1.0  0.85063  0.02470  0.81721  1.0000
  C   C338      1.0  0.50013  0.32732  0.90263  1.0000
  H   H352      1.0  0.93770  0.35773  0.96346  1.0000
  H   H353      1.0  0.49715  0.16701  0.75548  1.0000
  C   C339      1.0  0.49524  0.08962  0.72540  1.0000
  H   H354      1.0  0.92459  0.99680  0.86605  1.0000
  C   C340      1.0  0.59594  0.48080  0.68404  1.0000
  H   H355      1.0  0.89429  0.99301  0.91084  1.0000
  C   C341      1.0  0.64845  0.46971  0.70445  1.0000
  C   C342      1.0  0.49120  0.14100  0.75294  1.0000
  N   N29       1.0  0.81163  0.01842  0.84689  1.0000
  S   S112      1.0  0.48385  0.42440  0.95295  1.0000
  C   C343      1.0  0.50204  0.12371  0.72906  1.0000
  H   H356      1.0  0.90105  0.48312  0.75193  1.0000
  H   H357      1.0  0.94325  0.37172  0.86771  1.0000
  N   N30       1.0  0.62461  0.46246  0.68527  1.0000
  H   H358      1.0  0.80110  0.99447  0.80856  1.0000
  C   C344      1.0  0.49663  0.88534  0.24168  1.0000
  H   H359      1.0  0.97560  0.84465  0.25917  1.0000
  Fe  Fe56      1.0  0.96190  0.69858  0.06849  1.0000
  S   S113      1.0  0.91185  0.71734  0.05494  1.0000
  H   H360      1.0  0.84261  0.51564  0.20295  1.0000
  S   S114      1.0  0.92137  0.77958  0.09867  1.0000
  Fe  Fe57      1.0  0.90300  0.72712  0.09999  1.0000
  S   S115      1.0  0.85332  0.71693  0.11936  1.0000
  Fe  Fe58      1.0  0.93532  0.76783  0.05485  1.0000
  H   H361      1.0  0.94348  0.53533  0.28753  1.0000
  S   S116      1.0  0.95144  0.70585  0.11423  1.0000
  H   H362      1.0  0.54498  0.60141  0.31606  1.0000
  Fe  Fe59      1.0  0.71610  0.53131  0.19372  1.0000
  S   S117      1.0  0.73528  0.58187  0.18178  1.0000
  Fe  Fe60      1.0  0.77206  0.52299  0.23927  1.0000
  S   S118      1.0  0.79271  0.57334  0.23017  1.0000
  Fe  Fe61      1.0  0.73980  0.59044  0.22744  1.0000
  S   S119      1.0  0.72427  0.63944  0.24590  1.0000
  Fe  Fe62      1.0  0.78621  0.55954  0.18565  1.0000
  S   S120      1.0  0.83075  0.56841  0.15833  1.0000
  S   S121      1.0  0.71888  0.54116  0.23998  1.0000
  S   S122      1.0  0.76748  0.50781  0.19427  1.0000
  H   H363      1.0  0.54162  0.89820  0.08627  1.0000
  H   H364      1.0  0.57857  0.92295  0.33594  1.0000
  H   H365      1.0  0.50541  0.64301  0.29722  1.0000
  N   N31       1.0  0.70744  0.63545  0.32016  1.0000
  Fe  Fe63      1.0  0.53297  0.76569  0.31822  1.0000
  S   S123      1.0  0.58440  0.74849  0.30672  1.0000
  C   C345      1.0  0.69684  0.70111  0.33605  1.0000
  S   S124      1.0  0.49270  0.94002  0.12226  1.0000
  Fe  Fe64      1.0  0.56252  0.69708  0.30738  1.0000
  S   S125      1.0  0.57309  0.65468  0.27815  1.0000
  S   S126      1.0  0.51038  0.71438  0.31590  1.0000
  C   C346      1.0  0.96714  0.82580  0.24477  1.0000
  C   C347      1.0  0.83015  0.59497  0.08414  1.0000
  C   C348      1.0  0.92020  0.57956  0.06906  1.0000
  C   C349      1.0  0.64485  0.50712  0.14494  1.0000
  C   C350      1.0  0.98185  0.62707  0.02218  1.0000
  C   C351      1.0  0.52137  0.60557  0.32638  1.0000
  H   H366      1.0  0.68964  0.50533  0.12075  1.0000
  C   C352      1.0  0.82666  0.62790  0.07533  1.0000
  H   H367      1.0  0.93319  0.87827  0.17142  1.0000
  C   C353      1.0  0.96435  0.83806  0.15698  1.0000
  C   C354      1.0  0.68237  0.64287  0.25543  1.0000
  C   C355      1.0  0.67060  0.67304  0.26608  1.0000
  C   C356      1.0  0.63729  0.67644  0.27396  1.0000
  C   C357      1.0  0.61546  0.64983  0.27080  1.0000
  C   C358      1.0  0.62725  0.61953  0.26036  1.0000
  C   C359      1.0  0.66067  0.61604  0.25269  1.0000
  H   H368      1.0  0.68722  0.69394  0.26807  1.0000
  H   H369      1.0  0.62838  0.69995  0.28180  1.0000
  H   H370      1.0  0.61042  0.59888  0.25779  1.0000
  H   H371      1.0  0.66943  0.59279  0.24423  1.0000
  H   H372      1.0  0.82425  0.78334  0.09677  1.0000
  Fe  Fe65      1.0  0.97091  0.75816  0.10967  1.0000
  C   C360      1.0  0.87373  0.53636  0.31251  1.0000
  C   C361      1.0  0.84590  0.53052  0.29540  1.0000
  C   C362      1.0  0.63557  0.95900  0.02232  1.0000
  H   H373      1.0  0.83515  0.55068  0.28348  1.0000
  H   H374      1.0  0.60972  0.55974  0.19846  1.0000
  H   H375      1.0  0.87804  0.56521  0.20914  1.0000
  N   N32       1.0  0.91520  0.51319  0.25526  1.0000
  C   C363      1.0  0.73115  0.65891  0.31485  1.0000
  C   C364      1.0  0.53610  0.82829  0.24984  1.0000
  C   C365      1.0  0.85385  0.64450  0.06403  1.0000
  C   C366      1.0  0.51950  0.87642  0.22112  1.0000
  H   H376      1.0  0.91399  0.74292  0.19038  1.0000
  H   H377      1.0  0.68087  0.97327  0.08025  1.0000
  C   C367      1.0  0.51311  0.83709  0.27033  1.0000
  H   H378      1.0  0.91969  0.55340  0.07650  1.0000
  C   C368      1.0  0.90921  0.54146  0.24013  1.0000
  H   H379      1.0  0.86373  0.55406  0.08980  1.0000
  C   C369      1.0  0.59910  0.97248  0.06175  1.0000
  C   C370      1.0  0.84839  0.67643  0.13271  1.0000
  C   C371      1.0  0.81779  0.66707  0.14405  1.0000
  C   C372      1.0  0.81262  0.63423  0.15309  1.0000
  C   C373      1.0  0.83800  0.61059  0.15069  1.0000
  C   C374      1.0  0.86894  0.62020  0.14017  1.0000
  C   C375      1.0  0.87411  0.65302  0.13114  1.0000
  H   H380      1.0  0.79785  0.68510  0.14543  1.0000
  H   H381      1.0  0.78873  0.62708  0.16124  1.0000
  H   H382      1.0  0.88871  0.60204  0.13836  1.0000
  H   H383      1.0  0.89772  0.65989  0.12234  1.0000
  H   H384      1.0  0.60346  0.68815  0.21245  1.0000
  H   H385      1.0  0.74469  0.71073  0.31787  1.0000
  C   C376      1.0  0.83210  0.49869  0.29379  1.0000
  C   C377      1.0  0.57931  0.90990  0.13038  1.0000
  C   C378      1.0  0.62730  0.97555  0.07846  1.0000
  S   S127      1.0  0.50801  0.81353  0.30168  1.0000
  H   H386      1.0  0.94599  0.82870  0.14276  1.0000
  H   H387      1.0  0.66310  0.69264  0.19964  1.0000
  C   C379      1.0  0.93607  0.75714  0.18346  1.0000
  C   C380      1.0  0.92560  0.80498  0.21341  1.0000
  C   C381      1.0  0.49351  0.86583  0.26605  1.0000
  S   S128      1.0  0.96755  0.91128  0.21508  1.0000
  H   H388      1.0  0.81322  0.91410  0.04623  1.0000
  Fe  Fe66      1.0  0.50374  0.94672  0.16783  1.0000
  H   H389      1.0  0.80950  0.58217  0.09387  1.0000
  H   H390      1.0  0.76741  0.87391  0.03914  1.0000
  H   H391      1.0  0.77540  0.81483  0.05186  1.0000
  N   N33       1.0  0.82505  0.82150  0.06616  1.0000
  C   C382      1.0  0.79535  0.83226  0.05559  1.0000
  C   C383      1.0  0.85042  0.84346  0.07017  1.0000
  C   C384      1.0  0.79066  0.86568  0.04832  1.0000
  C   C385      1.0  0.84656  0.87708  0.06316  1.0000
  C   C386      1.0  0.81646  0.88819  0.05215  1.0000
  C   C387      1.0  0.82937  0.78654  0.07429  1.0000
  C   C388      1.0  0.64660  0.49424  0.09548  1.0000
  H   H392      1.0  0.87412  0.83492  0.07824  1.0000
  C   C389      1.0  0.88852  0.51051  0.32810  1.0000
  H   H393      1.0  0.86700  0.89424  0.06584  1.0000
  C   C390      1.0  0.63511  0.88930  0.07083  1.0000
  H   H394      1.0  0.95600  0.73917  0.17781  1.0000
  C   C391      1.0  0.61212  0.88391  0.04976  1.0000
  S   S129      1.0  0.66398  0.51711  0.17750  1.0000
  N   N34       1.0  0.61601  0.61046  0.18767  1.0000
  C   C392      1.0  0.64877  0.61271  0.18055  1.0000
  C   C393      1.0  0.59969  0.63722  0.19877  1.0000
  C   C394      1.0  0.66608  0.64242  0.18445  1.0000
  C   C395      1.0  0.59900  0.57865  0.18410  1.0000
  H   H395      1.0  0.66173  0.59120  0.17223  1.0000
  H   H396      1.0  0.60242  0.56963  0.16253  1.0000
  H   H397      1.0  0.57195  0.58061  0.18813  1.0000
  H   H398      1.0  0.64183  0.90275  0.11344  1.0000
  C   C396      1.0  0.60358  0.96444  0.03357  1.0000
  H   H399      1.0  0.73213  0.59843  0.29577  1.0000
  C   C397      1.0  0.71326  0.60062  0.31252  1.0000
  C   C398      1.0  0.57827  0.88659  0.05546  1.0000
  H   H400      1.0  0.85509  0.77790  0.07007  1.0000
  H   H401      1.0  0.92893  0.57961  0.04721  1.0000
  S   S130      1.0  0.50389  0.52101  0.05124  1.0000
  H   H402      1.0  0.92449  0.56330  0.24297  1.0000
  C   C399      1.0  0.97785  0.77764  0.21636  1.0000
  H   H403      1.0  0.57734  0.93744  0.13090  1.0000
  H   H404      1.0  0.53908  0.87830  0.32241  1.0000
  H   H405      1.0  0.80320  0.64083  0.07803  1.0000
  C   C400      1.0  0.49919  0.62911  0.31583  1.0000
  H   H406      1.0  0.90137  0.80763  0.20392  1.0000
  N   N35       1.0  0.59060  0.89944  0.10291  1.0000
  C   C401      1.0  0.62384  0.89722  0.09744  1.0000
  C   C402      1.0  0.56790  0.89458  0.08228  1.0000
  H   H407      1.0  0.56017  0.88386  0.03903  1.0000
  H   H408      1.0  0.72205  0.58623  0.33080  1.0000
  H   H409      1.0  0.55701  0.84054  0.20984  1.0000
  H   H410      1.0  0.65985  0.62558  0.33766  1.0000
  H   H411      1.0  0.81268  0.76999  0.06237  1.0000
  H   H412      1.0  0.57404  0.63522  0.20535  1.0000
  N   N36       1.0  0.88764  0.59576  0.07088  1.0000
  C   C403      1.0  0.61620  0.66735  0.20281  1.0000
  H   H413      1.0  0.59569  0.50585  0.16260  1.0000
  H   H414      1.0  0.69232  0.64389  0.17961  1.0000
  H   H415      1.0  0.88403  0.56111  0.31354  1.0000
  S   S131      1.0  0.52475  0.89979  0.18966  1.0000
  C   C404      1.0  0.64964  0.66985  0.19566  1.0000
  H   H416      1.0  0.84156  0.95368  0.32972  1.0000
  S   S132      1.0  0.79755  0.48961  0.27182  1.0000
  S   S133      1.0  0.70492  0.95516  0.02615  1.0000
  C   C405      1.0  0.88311  0.54273  0.22101  1.0000
  C   C406      1.0  0.72614  0.69209  0.32257  1.0000
  H   H417      1.0  0.85155  0.67035  0.05778  1.0000
  H   H418      1.0  0.66148  0.88892  0.06625  1.0000
  C   C407      1.0  0.66295  0.50279  0.12043  1.0000
  H   H419      1.0  0.69019  0.58925  0.30434  1.0000
  H   H420      1.0  0.55464  0.89919  0.13539  1.0000
  H   H421      1.0  0.92988  0.77118  0.16426  1.0000
  H   H422      1.0  0.91946  0.84893  0.23873  1.0000
  C   C408      1.0  0.88434  0.62792  0.06189  1.0000
  C   C409      1.0  0.98032  0.87863  0.19244  1.0000
  C   C410      1.0  0.86106  0.57922  0.08188  1.0000
  H   H423      1.0  0.93854  0.59340  0.08176  1.0000
  N   N37       1.0  0.94676  0.78024  0.20511  1.0000
  H   H424      1.0  0.55144  0.80640  0.25270  1.0000
  H   H425      1.0  0.59650  0.90145  0.14698  1.0000
  C   C411      1.0  0.65933  0.97052  0.06712  1.0000
  H   H426      1.0  0.62446  0.98205  0.10006  1.0000
  C   C412      1.0  0.67871  0.64407  0.33351  1.0000
  C   C413      1.0  0.86319  0.51483  0.21743  1.0000
  C   C414      1.0  0.61008  0.50327  0.14382  1.0000
  H   H427      1.0  0.90560  0.64104  0.05346  1.0000
  H   H428      1.0  0.75375  0.65219  0.30394  1.0000
  C   C415      1.0  0.61181  0.49063  0.09431  1.0000
  C   C416      1.0  0.93550  0.82820  0.23326  1.0000
  C   C417      1.0  0.53921  0.84778  0.22549  1.0000
  C   C418      1.0  0.66377  0.96204  0.03902  1.0000
  S   S134      1.0  0.92617  0.80855  0.02350  1.0000
  C   C419      1.0  0.67299  0.67698  0.34163  1.0000
  C   C420      1.0  0.95717  0.86627  0.17327  1.0000
  H   H429      1.0  0.96693  0.51001  0.26336  1.0000
  H   H430      1.0  0.62060  0.87903  0.02882  1.0000
  H   H431      1.0  0.62143  0.80800  0.34388  1.0000
  H   H432      1.0  0.58206  0.96221  0.02035  1.0000
  H   H433      1.0  0.87382  0.76015  0.01732  1.0000
  H   H434      1.0  0.69248  0.72677  0.34212  1.0000
  C   C421      1.0  0.59365  0.49558  0.11872  1.0000
  C   C422      1.0  0.55103  0.87781  0.34261  1.0000
  H   H435      1.0  0.56703  0.49243  0.11844  1.0000
  C   C423      1.0  0.94311  0.51235  0.27475  1.0000
  S   S135      1.0  0.55777  0.97739  0.07481  1.0000
  Fe  Fe67      1.0  0.52697  0.98326  0.11495  1.0000
  S   S136      1.0  0.97872  0.64609  0.05550  1.0000
  H   H436      1.0  0.66106  0.49022  0.07690  1.0000
  C   C424      1.0  0.86955  0.48607  0.23283  1.0000
  H   H437      1.0  0.94114  0.49127  0.28967  1.0000
  S   S137      1.0  0.90423  0.98406  0.31686  1.0000
  C   C425      1.0  0.89592  0.48560  0.25167  1.0000
  H   H438      1.0  0.76442  0.82594  0.56701  1.0000
  C   C426      1.0  0.90900  0.51382  0.48179  1.0000
  Fe  Fe68      1.0  0.77855  0.93711  0.44279  1.0000
  S   S138      1.0  0.76303  0.88719  0.42696  1.0000
  Fe  Fe69      1.0  0.71656  0.94139  0.48262  1.0000
  S   S139      1.0  0.69796  0.89165  0.46890  1.0000
  Fe  Fe70      1.0  0.75123  0.87509  0.47123  1.0000
  S   S140      1.0  0.76440  0.82455  0.48867  1.0000
  Fe  Fe71      1.0  0.71166  0.90877  0.42607  1.0000
  S   S141      1.0  0.67794  0.90038  0.38957  1.0000
  S   S142      1.0  0.76945  0.92365  0.48772  1.0000
  S   S143      1.0  0.72737  0.96009  0.43912  1.0000
  Fe  Fe72      1.0  0.52506  0.48651  0.55421  1.0000
  S   S144      1.0  0.63764  0.74947  0.37667  1.0000
  H   H439      1.0  0.58004  0.87683  0.43789  1.0000
  C   C427      1.0  0.77433  0.90938  0.57232  1.0000
  H   H440      1.0  0.91655  0.81042  0.51243  1.0000
  S   S145      1.0  0.54137  0.76013  0.36452  1.0000
  C   C428      1.0  0.66890  0.85806  0.38467  1.0000
  C   C429      1.0  0.68071  0.83407  0.40331  1.0000
  C   C430      1.0  0.67130  0.80071  0.40044  1.0000
  C   C431      1.0  0.64954  0.79129  0.37929  1.0000
  C   C432      1.0  0.49813  0.64599  0.41382  1.0000
  H   H441      1.0  0.53044  0.56989  0.35905  1.0000
  H   H442      1.0  0.69694  0.84120  0.42007  1.0000
  H   H443      1.0  0.68051  0.78224  0.41493  1.0000
  S   S146      1.0  0.56601  0.94702  0.59750  1.0000
  C   C433      1.0  0.85222  0.95909  0.39968  1.0000
  C   C434      1.0  0.58945  0.54868  0.50695  1.0000
  H   H444      1.0  0.89701  0.53770  0.47831  1.0000
  H   H445      1.0  0.83623  0.88605  0.43351  1.0000
  C   C435      1.0  0.79923  0.82218  0.51042  1.0000
  C   C436      1.0  0.81753  0.85060  0.51658  1.0000
  C   C437      1.0  0.84438  0.84862  0.53489  1.0000
  H   H446      1.0  0.81101  0.87417  0.50740  1.0000
  H   H447      1.0  0.85819  0.87085  0.53981  1.0000
  Fe  Fe73      1.0  0.59113  0.73982  0.35238  1.0000
  H   H448      1.0  0.56049  0.60868  0.58204  1.0000
  H   H449      1.0  0.89756  0.97538  0.41892  1.0000
  C   C438      1.0  0.58840  0.90136  0.37625  1.0000
  C   C439      1.0  0.61942  0.53868  0.51886  1.0000
  C   C440      1.0  0.50810  0.58690  0.44576  1.0000
  C   C441      1.0  0.80790  0.64495  0.66559  1.0000
  C   C442      1.0  0.52791  0.62811  0.41180  1.0000
  C   C443      1.0  0.53272  0.59873  0.42751  1.0000
  H   H450      1.0  0.54705  0.63663  0.39779  1.0000
  H   H451      1.0  0.55575  0.58503  0.42547  1.0000
  C   C444      1.0  0.57307  0.90281  0.35023  1.0000
  H   H452      1.0  0.54301  0.57371  0.51358  1.0000
  N   N38       1.0  0.73088  0.86251  0.55097  1.0000
  S   S147      1.0  0.90926  0.71540  0.56735  1.0000
  C   C445      1.0  0.54763  0.88436  0.64862  1.0000
  S   S148      1.0  0.92823  0.75946  0.62312  1.0000
  Fe  Fe74      1.0  0.92873  0.70571  0.61037  1.0000
  S   S149      1.0  0.91397  0.66081  0.63560  1.0000
  Fe  Fe75      1.0  0.91460  0.76942  0.57871  1.0000
  S   S150      1.0  0.88704  0.81723  0.56978  1.0000
  H   H453      1.0  0.81152  0.94387  0.37397  1.0000
  H   H454      1.0  0.63689  0.52377  0.50709  1.0000
  C   C446      1.0  0.88545  0.96985  0.39950  1.0000
  H   H455      1.0  0.61789  0.89311  0.42341  1.0000
  C   C447      1.0  0.87858  0.87834  0.45989  1.0000
  H   H456      1.0  0.91846  0.86316  0.48665  1.0000
  H   H457      1.0  0.68568  0.83596  0.55395  1.0000
  H   H458      1.0  0.70182  0.90388  0.53728  1.0000
  H   H459      1.0  0.58336  0.54166  0.48585  1.0000
  S   S151      1.0  0.51561  0.54900  0.46429  1.0000
  C   C448      1.0  0.61022  0.93045  0.55585  1.0000
  C   C449      1.0  0.72395  0.89568  0.54810  1.0000
  H   H460      1.0  0.59687  0.90719  0.55533  1.0000
  H   H461      1.0  0.64435  0.91599  0.52329  1.0000
  C   C450      1.0  0.85355  0.81809  0.54670  1.0000
  C   C451      1.0  0.83586  0.78939  0.54009  1.0000
  C   C452      1.0  0.80855  0.79150  0.52207  1.0000
  H   H462      1.0  0.84287  0.76572  0.54921  1.0000
  H   H463      1.0  0.79453  0.76936  0.51726  1.0000
  C   C453      1.0  0.87191  0.65515  0.64393  1.0000
  C   C454      1.0  0.86077  0.62294  0.64988  1.0000
  C   C455      1.0  0.82889  0.61785  0.66067  1.0000
  C   C456      1.0  0.81858  0.67713  0.65872  1.0000
  H   H464      1.0  0.86878  0.48519  0.46485  1.0000
  C   C457      1.0  0.85054  0.68225  0.64781  1.0000
  Fe  Fe76      1.0  0.52825  0.97191  0.62722  1.0000
  H   H465      1.0  0.53299  0.57391  0.57689  1.0000
  H   H466      1.0  0.85907  0.70719  0.64340  1.0000
  S   S152      1.0  0.69105  0.97211  0.51685  1.0000
  H   H467      1.0  0.81727  0.82737  0.43757  1.0000
  C   C458      1.0  0.83700  0.95218  0.37431  1.0000
  Fe  Fe77      1.0  0.96387  0.49532  0.37721  1.0000
  C   C459      1.0  0.85020  0.86823  0.44584  1.0000
  C   C460      1.0  0.63896  0.52081  0.63796  1.0000
  C   C461      1.0  0.60714  0.52339  0.62588  1.0000
  C   C462      1.0  0.64809  0.84842  0.36289  1.0000
  H   H468      1.0  0.64583  0.53706  0.65480  1.0000
  H   H469      1.0  0.58988  0.54191  0.63351  1.0000
  C   C463      1.0  0.96443  0.88415  0.63011  1.0000
  S   S153      1.0  0.95824  0.48969  0.42358  1.0000
  H   H470      1.0  0.69910  0.84546  0.51896  1.0000
  H   H471      1.0  0.53258  0.60875  0.55310  1.0000
  C   C464      1.0  0.92816  0.88599  0.66981  1.0000
  C   C465      1.0  0.74553  0.91960  0.55867  1.0000
  H   H472      1.0  0.79152  0.92773  0.58021  1.0000
  H   H473      1.0  0.88650  0.90410  0.45846  1.0000
  H   H474      1.0  0.89008  0.77778  0.50133  1.0000
  C   C466      1.0  0.59992  0.95544  0.57445  1.0000
  H   H475      1.0  0.92596  0.78828  0.48071  1.0000
  H   H476      1.0  0.55596  0.83011  0.40058  1.0000
  S   S154      1.0  0.98274  0.70557  0.59834  1.0000
  H   H477      1.0  0.80352  0.86716  0.58583  1.0000
  C   C467      1.0  0.78097  0.87548  0.57558  1.0000
  H   H478      1.0  0.56042  0.90794  0.64670  1.0000
  H   H479      1.0  0.84986  0.78715  0.46543  1.0000
  C   C468      1.0  0.83985  0.83525  0.44784  1.0000
  N   N39       1.0  0.88606  0.82281  0.47767  1.0000
  C   C469      1.0  0.51243  0.84262  0.62847  1.0000
  H   H480      1.0  0.61133  0.84918  0.42357  1.0000
  S   S155      1.0  0.77803  0.53891  0.67735  1.0000
  H   H481      1.0  0.87719  0.60191  0.64685  1.0000
  C   C470      1.0  0.54454  0.85184  0.36103  1.0000
  S   S156      1.0  0.48933  0.68130  0.39235  1.0000
  N   N40       1.0  0.54817  0.86715  0.67312  1.0000
  C   C471      1.0  0.89642  0.85512  0.47574  1.0000
  N   N41       1.0  0.58227  0.87540  0.39398  1.0000
  H   H482      1.0  0.82098  0.59302  0.66583  1.0000
  N   N42       1.0  0.57382  0.57547  0.54943  1.0000
  C   C472      1.0  0.60332  0.56609  0.56118  1.0000
  C   C473      1.0  0.56666  0.56689  0.52272  1.0000
  C   C474      1.0  0.62649  0.54744  0.54616  1.0000
  C   C475      1.0  0.98228  0.91082  0.64110  1.0000
  C   C476      1.0  0.54874  0.59264  0.56619  1.0000
  H   H483      1.0  0.60858  0.57201  0.58261  1.0000
  H   H484      1.0  0.74001  0.94590  0.55592  1.0000
  H   H485      1.0  0.49777  0.83360  0.61126  1.0000
  H   H486      1.0  0.95338  0.53545  0.49810  1.0000
  C   C477      1.0  0.90280  0.97495  0.37435  1.0000
  C   C478      1.0  0.94095  0.51238  0.49304  1.0000
  C   C479      1.0  0.93717  0.87175  0.64456  1.0000
  C   C480      1.0  0.66135  0.49648  0.62890  1.0000
  S   S157      1.0  0.96696  0.77188  0.56347  1.0000
  C   C481      1.0  0.90568  0.79866  0.49370  1.0000
  C   C482      1.0  0.85834  0.81265  0.46376  1.0000
  H   H487      1.0  0.64935  0.53915  0.55593  1.0000
  H   H488      1.0  0.60606  0.92053  0.38179  1.0000
  S   S158      1.0  0.55642  0.50642  0.59058  1.0000
  Fe  Fe78      1.0  0.52379  0.70707  0.36101  1.0000
  C   C483      1.0  0.75874  0.85224  0.56483  1.0000
  C   C484      1.0  0.56063  0.85084  0.38667  1.0000
  Fe  Fe79      1.0  0.96324  0.71662  0.55550  1.0000
  C   C485      1.0  0.63735  0.93532  0.53767  1.0000
  H   H489      1.0  0.92781  0.98458  0.37464  1.0000
  S   S159      1.0  0.53136  0.97211  0.67409  1.0000
  C   C486      1.0  0.59733  0.50211  0.60429  1.0000
  H   H490      1.0  0.52728  0.83244  0.35531  1.0000
  C   C487      1.0  0.59859  0.87362  0.42109  1.0000
  C   C488      1.0  0.70752  0.83803  0.54004  1.0000
  S   S160      1.0  0.83007  0.95795  0.43181  1.0000
  H   H491      1.0  0.92368  0.85053  0.63654  1.0000
  H   H492      1.0  0.71935  0.81313  0.53772  1.0000
  C   C489      1.0  0.65522  0.96513  0.53818  1.0000
  N   N43       1.0  0.97318  0.92473  0.66584  1.0000
  H   H493      1.0  0.63957  0.86671  0.34800  1.0000
  H   H494      1.0  0.65016  0.68390  0.35209  1.0000
  S   S161      1.0  0.70012  0.48923  0.64580  1.0000
  H   H495      1.0  0.49947  0.80217  0.65585  1.0000
  H   H496      1.0  0.80239  0.69819  0.66241  1.0000
  H   H497      1.0  0.97226  0.87243  0.61095  1.0000
  H   H498      1.0  0.52915  0.88642  0.60668  1.0000
  H   H499      1.0  0.96907  0.79238  0.67266  1.0000
  C   C490      1.0  0.63790  0.81519  0.36049  1.0000
  S   S162      1.0  0.57422  0.68677  0.35188  1.0000
  Fe  Fe80      1.0  0.72535  0.51993  0.67984  1.0000
  S   S163      1.0  0.92494  0.51944  0.34795  1.0000
  S   S164      1.0  0.97882  0.69525  0.51308  1.0000
  C   C491      1.0  0.53181  0.83753  0.67559  1.0000
  C   C492      1.0  0.52994  0.87229  0.62590  1.0000
  Fe  Fe81      1.0  0.98048  0.76074  0.60777  1.0000
  C   C493      1.0  0.88701  0.96971  0.34891  1.0000
  Fe  Fe82      1.0  0.49667  0.51325  0.49843  1.0000
  C   C494      1.0  0.51320  0.58790  0.35036  1.0000
  C   C495      1.0  0.51345  0.82497  0.65342  1.0000
  C   C496      1.0  0.85417  0.95777  0.34917  1.0000
  H   H500      1.0  0.98014  0.66787  0.45791  1.0000
  S   S165      1.0  0.48406  0.52292  0.54336  1.0000
  H   H501      1.0  0.94248  0.88149  0.94544  1.0000
  C   C497      1.0  0.88452  0.98051  0.89280  1.0000
  Fe  Fe83      1.0  0.78396  0.93818  0.94098  1.0000
  S   S166      1.0  0.76959  0.88921  0.92271  1.0000
  Fe  Fe84      1.0  0.72569  0.93557  0.98476  1.0000
  S   S167      1.0  0.70823  0.88649  0.96852  1.0000
  Fe  Fe85      1.0  0.76211  0.87244  0.96660  1.0000
  C   C498      1.0  0.58911  0.89259  0.89225  1.0000
  Fe  Fe86      1.0  0.71741  0.90824  0.92630  1.0000
  S   S168      1.0  0.68263  0.90153  0.89021  1.0000
  S   S169      1.0  0.77971  0.91996  0.98521  1.0000
  S   S170      1.0  0.73158  0.95892  0.94216  1.0000
  N   N44       1.0  0.55121  0.57625  0.88972  1.0000
  Fe  Fe87      1.0  0.78420  0.52366  0.72230  1.0000
  S   S171      1.0  0.76609  0.57253  0.73879  1.0000
  Fe  Fe88      1.0  0.71515  0.55055  0.73642  1.0000
  S   S172      1.0  0.67912  0.55773  0.77171  1.0000
  C   C499      1.0  0.52591  0.63354  0.95108  1.0000
  H   H502      1.0  0.59164  0.88680  0.69162  1.0000
  H   H503      1.0  0.75323  0.96299  0.82726  1.0000
  H   H504      1.0  0.87982  0.79688  0.93863  1.0000
  S   S173      1.0  0.54189  0.49093  0.99580  1.0000
  C   C500      1.0  0.85799  0.84337  0.92615  1.0000
  H   H505      1.0  0.82003  0.63059  0.73787  1.0000
  C   C501      1.0  0.76682  0.97992  0.84046  1.0000
  C   C502      1.0  0.88900  0.96790  0.84349  1.0000
  Fe  Fe89      1.0  0.53265  0.77178  0.82091  1.0000
  S   S174      1.0  0.58562  0.76002  0.81038  1.0000
  Fe  Fe90      1.0  0.52493  0.70412  0.85331  1.0000
  S   S175      1.0  0.57756  0.68947  0.84448  1.0000
  Fe  Fe91      1.0  0.58999  0.74242  0.85412  1.0000
  S   S176      1.0  0.63464  0.75240  0.88061  1.0000
  Fe  Fe92      1.0  0.56790  0.70840  0.80154  1.0000
  S   S177      1.0  0.58529  0.68359  0.76224  1.0000
  S   S178      1.0  0.53805  0.75642  0.86610  1.0000
  S   S179      1.0  0.51423  0.72070  0.80906  1.0000
  C   C503      1.0  0.90194  0.98253  0.86741  1.0000
  H   H506      1.0  0.58315  0.59670  0.85913  1.0000
  C   C504      1.0  0.50779  0.84439  0.77747  1.0000
  C   C505      1.0  0.89460  0.64820  0.70861  1.0000
  H   H507      1.0  0.81595  0.76587  0.00054  1.0000
  H   H508      1.0  0.83402  0.83257  0.92141  1.0000
  C   C506      1.0  0.83781  0.50886  0.79316  1.0000
  C   C507      1.0  0.65038  0.59058  0.76863  1.0000
  C   C508      1.0  0.64267  0.60450  0.74283  1.0000
  C   C509      1.0  0.62180  0.63243  0.74107  1.0000
  C   C510      1.0  0.60836  0.64651  0.76509  1.0000
  C   C511      1.0  0.61489  0.63171  0.79081  1.0000
  C   C512      1.0  0.63574  0.60370  0.79256  1.0000
  H   H509      1.0  0.65288  0.59405  0.72419  1.0000
  H   H510      1.0  0.61650  0.64353  0.72108  1.0000
  H   H511      1.0  0.60435  0.64204  0.80937  1.0000
  H   H512      1.0  0.64130  0.59279  0.81257  1.0000
  H   H513      1.0  0.84228  0.57344  0.73283  1.0000
  C   C513      1.0  0.64401  0.49610  0.72290  1.0000
  H   H514      1.0  0.54358  0.64180  0.96642  1.0000
  C   C514      1.0  0.86347  0.65368  0.72042  1.0000
  H   H515      1.0  0.92976  0.61163  0.69505  1.0000
  C   C515      1.0  0.50315  0.89472  0.74838  1.0000
  C   C516      1.0  0.67213  0.85943  0.88547  1.0000
  C   C517      1.0  0.68359  0.83517  0.90401  1.0000
  C   C518      1.0  0.67252  0.80224  0.90185  1.0000
  C   C519      1.0  0.64977  0.79339  0.88127  1.0000
  C   C520      1.0  0.63899  0.81741  0.86216  1.0000
  C   C521      1.0  0.65037  0.85035  0.86415  1.0000
  H   H516      1.0  0.70069  0.84175  0.92028  1.0000
  H   H517      1.0  0.68117  0.78371  0.91652  1.0000
  H   H518      1.0  0.62160  0.81075  0.84611  1.0000
  H   H519      1.0  0.64164  0.86896  0.84961  1.0000
  C   C522      1.0  0.86466  0.78414  0.01060  1.0000
  H   H520      1.0  0.55283  0.90503  0.70306  1.0000
  H   H521      1.0  0.59637  0.91775  0.88692  1.0000
  S   S180      1.0  0.96141  0.97133  0.74605  1.0000
  C   C523      1.0  0.53244  0.52203  0.92208  1.0000
  C   C524      1.0  0.89910  0.55500  0.70999  1.0000
  H   H522      1.0  0.49971  0.50991  0.88843  1.0000
  C   C525      1.0  0.87357  0.84272  0.00187  1.0000
  H   H523      1.0  0.53193  0.82400  0.69506  1.0000
  N   N45       1.0  0.88736  0.58920  0.71394  1.0000
  H   H524      1.0  0.95778  0.80943  0.93552  1.0000
  C   C526      1.0  0.50712  0.60472  0.95629  1.0000
  H   H525      1.0  0.50719  0.92112  0.74564  1.0000
  C   C527      1.0  0.51833  0.52702  0.89600  1.0000
  C   C528      1.0  0.90619  0.61558  0.70538  1.0000
  H   H526      1.0  0.97432  0.64243  0.95288  1.0000
  H   H527      1.0  0.85354  0.67874  0.72181  1.0000
  S   S181      1.0  0.51853  0.82595  0.81011  1.0000
  C   C529      1.0  0.59102  0.50781  0.70183  1.0000
  H   H528      1.0  0.62041  0.89132  0.92854  1.0000
  C   C530      1.0  0.55527  0.89003  0.84988  1.0000
  C   C531      1.0  0.52214  0.65185  0.92621  1.0000
  S   S182      1.0  0.51287  0.58308  0.98835  1.0000
  C   C532      1.0  0.85715  0.59440  0.72612  1.0000
  H   H529      1.0  0.84052  0.51185  0.83779  1.0000
  C   C533      1.0  0.84085  0.84599  0.99232  1.0000
  C   C534      1.0  0.60277  0.87776  0.91595  1.0000
  H   H530      1.0  0.96093  0.82669  0.71481  1.0000
  H   H531      1.0  0.90777  0.87581  0.68175  1.0000
  C   C535      1.0  0.84463  0.62666  0.72936  1.0000
  H   H532      1.0  0.84868  0.93872  0.82745  1.0000
  N   N46       1.0  0.69525  0.66682  0.76607  1.0000
  C   C536      1.0  0.67598  0.69476  0.76343  1.0000
  C   C537      1.0  0.70209  0.65391  0.79174  1.0000
  C   C538      1.0  0.66266  0.71030  0.78685  1.0000
  C   C539      1.0  0.68915  0.66886  0.81562  1.0000
  C   C540      1.0  0.66930  0.69726  0.81310  1.0000
  C   C541      1.0  0.70985  0.65145  0.74136  1.0000
  H   H533      1.0  0.67004  0.70473  0.74311  1.0000
  H   H534      1.0  0.71701  0.63148  0.79382  1.0000
  H   H535      1.0  0.64666  0.73188  0.78454  1.0000
  H   H536      1.0  0.65882  0.70899  0.83142  1.0000
  H   H537      1.0  0.56903  0.62592  0.88513  1.0000
  H   H538      1.0  0.69385  0.65523  0.72284  1.0000
  H   H539      1.0  0.73465  0.66221  0.73699  1.0000
  H   H540      1.0  0.71251  0.62413  0.74416  1.0000
  N   N47       1.0  0.56817  0.87508  0.87547  1.0000
  C   C542      1.0  0.56058  0.84274  0.88152  1.0000
  H   H541      1.0  0.56848  0.87928  0.83174  1.0000
  C   C543      1.0  0.57411  0.82702  0.90489  1.0000
  H   H542      1.0  0.81220  0.51690  0.79221  1.0000
  C   C544      1.0  0.59544  0.84467  0.92210  1.0000
  H   H543      1.0  0.54458  0.82876  0.86779  1.0000
  H   H544      1.0  0.52412  0.89324  0.78956  1.0000
  H   H545      1.0  0.56909  0.80098  0.90906  1.0000
  C   C545      1.0  0.84208  0.94733  0.87132  1.0000
  C   C546      1.0  0.56546  0.57132  0.91515  1.0000
  Fe  Fe93      1.0  0.75735  0.58652  0.69440  1.0000
  H   H546      1.0  0.66278  0.50165  0.73825  1.0000
  C   C547      1.0  0.49886  0.64205  0.90639  1.0000
  C   C548      1.0  0.75777  0.98357  0.86820  1.0000
  C   C549      1.0  0.51284  0.87875  0.77331  1.0000
  H   H547      1.0  0.69414  0.65830  0.83592  1.0000
  C   C550      1.0  0.56183  0.60423  0.87229  1.0000
  H   H548      1.0  0.92293  0.55389  0.69848  1.0000
  H   H549      1.0  0.84290  0.89344  0.91591  1.0000
  H   H550      1.0  0.83184  0.86990  0.98528  1.0000
  H   H551      1.0  0.88044  0.54060  0.69808  1.0000
  C   C551      1.0  0.91879  0.87059  0.94005  1.0000
  C   C552      1.0  0.52813  0.55438  0.87995  1.0000
  Fe  Fe94      1.0  0.95858  0.98092  0.79218  1.0000
  H   H552      1.0  0.51682  0.55833  0.85982  1.0000
  H   H553      1.0  0.89713  0.91796  0.92823  1.0000
  C   C553      1.0  0.81998  0.81833  0.99198  1.0000
  S   S183      1.0  0.90562  0.49067  0.85452  1.0000
  N   N48       1.0  0.91377  0.83712  0.94306  1.0000
  S   S184      1.0  0.83511  0.50279  0.73542  1.0000
  C   C554      1.0  0.88397  0.82335  0.93598  1.0000
  C   C555      1.0  0.85455  0.50060  0.76871  1.0000
  C   C556      1.0  0.88732  0.49537  0.82095  1.0000
  C   C557      1.0  0.48418  0.59459  0.93630  1.0000
  H   H554      1.0  0.61195  0.53627  0.73542  1.0000
  H   H555      1.0  0.88960  0.86423  0.00228  1.0000
  H   H556      1.0  0.54125  0.61311  0.85874  1.0000
  C   C558      1.0  0.94098  0.81585  0.95294  1.0000
  C   C559      1.0  0.89335  0.89132  0.93027  1.0000
  S   S185      1.0  0.73344  0.49999  0.72327  1.0000
  C   C560      1.0  0.88787  0.48996  0.77059  1.0000
  C   C561      1.0  0.56540  0.88148  0.69696  1.0000
  S   S186      1.0  0.90532  0.97661  0.80976  1.0000
  H   H557      1.0  0.90255  0.54265  0.73044  1.0000
  C   C562      1.0  0.55618  0.54428  0.93175  1.0000
  C   C563      1.0  0.83201  0.78737  0.00094  1.0000
  H   H558      1.0  0.60720  0.83235  0.93959  1.0000
  H   H559      1.0  0.55819  0.91747  0.84955  1.0000
  C   C564      1.0  0.61527  0.51543  0.72140  1.0000
  H   H560      1.0  0.81892  0.93392  0.87246  1.0000
  H   H561      1.0  0.52474  0.50111  0.93485  1.0000
  C   C565      1.0  0.85912  0.95000  0.84577  1.0000
  S   S187      1.0  0.77845  0.82195  0.98166  1.0000
  H   H562      1.0  0.90895  0.66892  0.70063  1.0000
  H   H563      1.0  0.58348  0.58881  0.92309  1.0000
  C   C566      1.0  0.97570  0.64456  0.99758  1.0000
  H   H564      1.0  0.52838  0.88453  0.84754  1.0000
  Fe  Fe95      1.0  0.50365  0.53010  0.00486  1.0000
  H   H565      1.0  0.56671  0.54116  0.95232  1.0000
  C   C567      1.0  0.85421  0.96338  0.89489  1.0000
  C   C568      1.0  0.86282  0.87755  0.92331  1.0000
  S   S188      1.0  0.70460  0.56893  0.69346  1.0000
  H   H566      1.0  0.53680  0.67393  0.92262  1.0000
  H   H567      1.0  0.94037  0.92254  0.70046  1.0000
  C   C569      1.0  0.49269  0.82626  0.75628  1.0000
  C   C570      1.0  0.97876  0.62845  0.97172  1.0000
  H   H568      1.0  0.63841  0.95279  0.00067  1.0000
  H   H569      1.0  0.97642  0.97297  0.68371  1.0000
  C   C571      1.0  0.48739  0.87669  0.72745  1.0000
  S   S189      1.0  0.49264  0.66448  0.87475  1.0000
  C   C572      1.0  0.98078  0.83269  0.70057  1.0000
  C   C573      1.0  0.90426  0.48765  0.79645  1.0000
  H   H570      1.0  0.96899  0.67062  0.99844  1.0000
  S   S190      1.0  0.83173  0.96455  0.92687  1.0000
  H   H571      1.0  0.73719  0.96940  0.87668  1.0000
  H   H572      1.0  0.56489  0.86466  0.71531  1.0000
  H   H573      1.0  0.95541  0.82859  0.96941  1.0000
  H   H574      1.0  0.93151  0.79255  0.96256  1.0000
  C   C574      1.0  0.85400  0.50594  0.81904  1.0000
  H   H575      1.0  0.48805  0.80000  0.75922  1.0000
  C   C575      1.0  0.88538  0.81188  0.01130  1.0000
  S   S191      1.0  0.95608  0.48518  0.92092  1.0000
  H   H576      1.0  0.56865  0.52282  0.70035  1.0000
  C   C576      1.0  0.94662  0.91254  0.68025  1.0000
  S   S192      1.0  0.76932  0.63931  0.68208  1.0000
  Fe  Fe96      1.0  0.95759  0.48491  0.87400  1.0000
