data_image0
_chemical_formula_structural       HCHCHSHCH3CFeSFeS2FeSFeHS2FeSFeSFeCFeS2C6H6CSH3CNC5SH5SCHCHCHC2FeSFeSHFeSFeS3FeSFeSHFeSFeS3C8H4CHNHCH3C4H3SC2HCH3C2H2C2H3CS2CFeS2FeS2FeSFeS3HCHC8H4C6H4CH2CHC2HC6H3NC2HNH2C2HCH2C2H2C2H5NC4HC2HCHNHCHC2HSH3NCHCH2CHCSC2HC2H3CSHCHNC2H3CHC2HCHCH3CHCFeS2FeS2FeSFeS3C2HC8H2CHC6H4CHN2HCHCHCH2CH3C3H2NCHC4HC2HCH2CH2C2H2CHCHNH4CHC3H2C2H2FeS2FeS2FeSFeS3NC7H4C6H4CHCHC4H2C3H3SH2SCH3CHC2NC3H2NC3H2CHC2H4CHC3H2C3HCHCHNHNHC2H2C5HCH3CHCH3CHSC2H3CH2CH5FeSNFeS2FeSFeS3C6H3CSH2C6H3CHCHSHCH3CHCHCH2CHNCHCH2C3HC2HC2H2NH5CHFeSHFeSFeSFeS3FeSFeSHFeSFeS3C6H10C4H3CHC2HN2C3SHC2HCHSHCHFeS2FeS2Fe2S2FeCSFeS2FeNFeCS2CHC8H6CH3CH2C2SCSH5CHC3H2SC4H4C2H2NH3
_chemical_formula_sum              "H288 C288 S96 Fe48 N24"
_cell_length_a       31.0881
_cell_length_b       31.529
_cell_length_c       47.2088
_cell_angle_alpha    89.9346
_cell_angle_beta     90.0414
_cell_angle_gamma    90.0907

_space_group_name_H-M_alt    "P 1"
_space_group_IT_number       1

loop_
  _space_group_symop_operation_xyz
  'x, y, z'

loop_
  _atom_site_type_symbol
  _atom_site_label
  _atom_site_symmetry_multiplicity
  _atom_site_fract_x
  _atom_site_fract_y
  _atom_site_fract_z
  _atom_site_occupancy
  H   H1        1.0  0.45706  0.05872  0.01647  1.0000
  C   C1        1.0  0.47517  0.03505  0.00501  1.0000
  H   H2        1.0  0.06020  0.46530  0.01855  1.0000
  C   C2        1.0  0.03758  0.48429  0.00660  1.0000
  H   H3        1.0  0.28526  0.46315  0.25539  1.0000
  S   S1        1.0  0.50848  0.39588  0.32212  1.0000
  H   H4        1.0  0.26636  0.48912  0.28726  1.0000
  C   C3        1.0  0.28866  0.49174  0.26891  1.0000
  H   H5        1.0  0.50723  0.01118  0.04262  1.0000
  H   H6        1.0  0.23116  0.00929  0.29303  1.0000
  H   H7        1.0  0.32179  0.49210  0.27784  1.0000
  C   C4        1.0  0.50368  0.00816  0.01992  1.0000
  Fe  Fe1       1.0  0.37190  0.34775  0.37641  1.0000
  S   S2        1.0  0.34396  0.28012  0.37914  1.0000
  Fe  Fe2       1.0  0.42176  0.41593  0.41136  1.0000
  S   S3        1.0  0.43377  0.45676  0.37319  1.0000
  S   S4        1.0  0.44365  0.42906  0.45698  1.0000
  Fe  Fe3       1.0  0.36521  0.44248  0.36119  1.0000
  S   S5        1.0  0.31384  0.49013  0.34746  1.0000
  Fe  Fe4       1.0  0.44934  0.39521  0.35074  1.0000
  H   H8        1.0  0.11689  0.18216  0.46430  1.0000
  S   S6        1.0  0.35162  0.40524  0.40120  1.0000
  S   S7        1.0  0.44153  0.35529  0.38971  1.0000
  Fe  Fe5       1.0  0.04953  0.08084  0.34961  1.0000
  S   S8        1.0  0.05877  0.12439  0.38664  1.0000
  Fe  Fe6       1.0  0.13506  0.03575  0.35992  1.0000
  S   S9        1.0  0.15027  0.07658  0.39804  1.0000
  Fe  Fe7       1.0  0.08098  0.06654  0.41046  1.0000
  C   C5        1.0  0.48532  0.46561  0.50230  1.0000
  Fe  Fe8       1.0  0.12759  0.13151  0.37171  1.0000
  S   S10       1.0  0.15469  0.19943  0.37350  1.0000
  S   S11       1.0  0.11655  0.09169  0.33263  1.0000
  C   C6        1.0  0.29114  0.25874  0.37457  1.0000
  C   C7        1.0  0.28593  0.21436  0.37299  1.0000
  C   C8        1.0  0.24461  0.19562  0.37163  1.0000
  C   C9        1.0  0.20779  0.22109  0.37200  1.0000
  C   C10       1.0  0.21301  0.26549  0.37297  1.0000
  C   C11       1.0  0.25432  0.28423  0.37420  1.0000
  H   H9        1.0  0.34069  0.47760  0.45777  1.0000
  H   H10       1.0  0.24128  0.16149  0.37084  1.0000
  H   H11       1.0  0.18482  0.28557  0.37314  1.0000
  H   H12       1.0  0.25763  0.31834  0.37536  1.0000
  H   H13       1.0  0.11723  0.17190  0.42667  1.0000
  H   H14       1.0  0.29488  0.22422  0.43781  1.0000
  C   C12       1.0  0.47590  0.46908  0.47321  1.0000
  S   S12       1.0  0.06743  0.02188  0.37443  1.0000
  H   H15       1.0  0.31411  0.19428  0.37318  1.0000
  H   H16       1.0  0.20670  0.11975  0.44454  1.0000
  H   H17       1.0  0.23329  0.27404  0.43870  1.0000
  C   C13       1.0  0.13431  0.16585  0.44694  1.0000
  N   N1        1.0  0.17865  0.18151  0.44493  1.0000
  C   C14       1.0  0.21239  0.15369  0.44403  1.0000
  C   C15       1.0  0.18582  0.22425  0.44309  1.0000
  C   C16       1.0  0.25472  0.16860  0.44190  1.0000
  C   C17       1.0  0.22774  0.24024  0.44111  1.0000
  C   C18       1.0  0.26235  0.21219  0.44055  1.0000
  S   S13       1.0  0.06327  0.06226  0.45749  1.0000
  H   H18       1.0  0.13285  0.13119  0.45133  1.0000
  H   H19       1.0  0.15895  0.24611  0.44222  1.0000
  H   H20       1.0  0.28135  0.14652  0.44051  1.0000
  H   H21       1.0  0.47445  0.43800  0.51394  1.0000
  H   H22       1.0  0.03902  0.05218  0.51584  1.0000
  S   S14       1.0  0.38139  0.38418  0.33568  1.0000
  C   C19       1.0  0.03134  0.02308  0.47481  1.0000
  H   H23       1.0  0.50766  0.30627  0.33890  1.0000
  C   C20       1.0  0.50809  0.49782  0.51672  1.0000
  H   H24       1.0  0.39088  0.48590  0.49796  1.0000
  C   C21       1.0  0.02400  0.02662  0.50416  1.0000
  H   H25       1.0  0.32545  0.49595  0.40774  1.0000
  C   C22       1.0  0.35578  0.50539  0.44849  1.0000
  C   C23       1.0  0.49021  0.50503  0.45854  1.0000
  Fe  Fe9       1.0  0.36879  0.05042  0.85711  1.0000
  S   S15       1.0  0.35070  0.08701  0.89642  1.0000
  Fe  Fe10      1.0  0.45503  0.09660  0.85123  1.0000
  S   S16       1.0  0.44325  0.13643  0.88998  1.0000
  H   H26       1.0  0.34762  0.10319  0.96796  1.0000
  Fe  Fe11      1.0  0.41957  0.07590  0.91036  1.0000
  S   S17       1.0  0.43221  0.06541  0.95794  1.0000
  Fe  Fe12      1.0  0.37522  0.14483  0.87365  1.0000
  S   S18       1.0  0.34687  0.21235  0.87426  1.0000
  S   S19       1.0  0.43550  0.03512  0.87253  1.0000
  S   S20       1.0  0.38918  0.10921  0.83346  1.0000
  Fe  Fe13      1.0  0.05012  0.40501  0.85342  1.0000
  S   S21       1.0  0.05916  0.36452  0.89217  1.0000
  Fe  Fe14      1.0  0.13516  0.45177  0.86226  1.0000
  S   S22       1.0  0.15047  0.41374  0.90149  1.0000
  H   H27       1.0  0.24823  0.48179  0.78339  1.0000
  Fe  Fe15      1.0  0.12795  0.35659  0.87726  1.0000
  S   S23       1.0  0.15511  0.28864  0.87683  1.0000
  Fe  Fe16      1.0  0.08108  0.42503  0.91349  1.0000
  S   S24       1.0  0.06923  0.44171  0.96024  1.0000
  S   S25       1.0  0.11725  0.39381  0.83708  1.0000
  S   S26       1.0  0.06749  0.46645  0.87568  1.0000
  C   C24       1.0  0.04770  0.30914  0.79740  1.0000
  C   C25       1.0  0.40216  0.23164  0.93812  1.0000
  C   C26       1.0  0.29311  0.23258  0.87417  1.0000
  C   C27       1.0  0.28684  0.27685  0.87442  1.0000
  C   C28       1.0  0.24509  0.29458  0.87525  1.0000
  C   C29       1.0  0.20881  0.26823  0.87590  1.0000
  C   C30       1.0  0.21511  0.22393  0.87587  1.0000
  C   C31       1.0  0.25687  0.20620  0.87502  1.0000
  H   H28       1.0  0.31451  0.29767  0.87382  1.0000
  H   H29       1.0  0.24099  0.32864  0.87528  1.0000
  H   H30       1.0  0.18742  0.20312  0.87637  1.0000
  H   H31       1.0  0.26098  0.17213  0.87492  1.0000
  C   C32       1.0  0.29840  0.14818  0.95622  1.0000
  H   H32       1.0  0.37445  0.03735  0.74673  1.0000
  N   N2        1.0  0.36630  0.20298  0.94462  1.0000
  H   H33       1.0  0.41149  0.24971  0.95731  1.0000
  C   C33       1.0  0.29028  0.18924  0.94656  1.0000
  H   H34       1.0  0.39330  0.25412  0.92088  1.0000
  H   H35       1.0  0.09042  0.30194  0.83312  1.0000
  H   H36       1.0  0.27201  0.12629  0.95983  1.0000
  C   C34       1.0  0.32482  0.21661  0.94130  1.0000
  C   C35       1.0  0.37452  0.16317  0.95477  1.0000
  C   C36       1.0  0.36647  0.02640  0.76844  1.0000
  C   C37       1.0  0.34074  0.13519  0.96075  1.0000
  H   H37       1.0  0.43039  0.21358  0.93017  1.0000
  H   H38       1.0  0.25757  0.19957  0.94240  1.0000
  H   H39       1.0  0.33471  0.01007  0.76834  1.0000
  S   S27       1.0  0.18610  0.49937  0.84789  1.0000
  C   C38       1.0  0.46998  0.03169  0.97542  1.0000
  C   C39       1.0  0.03492  0.47923  0.97702  1.0000
  H   H40       1.0  0.15940  0.48437  0.94555  1.0000
  C   C40       1.0  0.05139  0.24642  0.82656  1.0000
  H   H41       1.0  0.31828  0.24813  0.93314  1.0000
  H   H42       1.0  0.40739  0.15246  0.95771  1.0000
  H   H43       1.0  0.16924  0.47204  0.78037  1.0000
  C   C41       1.0  0.22890  0.50427  0.77150  1.0000
  C   C42       1.0  0.01903  0.22799  0.80996  1.0000
  H   H44       1.0  0.36256  0.05434  0.78256  1.0000
  H   H45       1.0  0.19356  0.49797  0.91642  1.0000
  C   C43       1.0  0.06568  0.28725  0.82020  1.0000
  C   C44       1.0  0.18446  0.49872  0.76976  1.0000
  H   H46       1.0  0.05767  0.34144  0.79282  1.0000
  H   H47       1.0  0.06528  0.22943  0.84437  1.0000
  H   H48       1.0  0.43838  0.04900  0.79549  1.0000
  C   C45       1.0  0.43544  0.01501  0.79247  1.0000
  S   S28       1.0  0.32066  0.00893  0.83320  1.0000
  S   S29       1.0  0.51246  0.09278  0.82108  1.0000
  C   C46       1.0  0.01549  0.28975  0.78120  1.0000
  Fe  Fe17      1.0  0.21989  0.77671  0.25773  1.0000
  S   S30       1.0  0.22664  0.78558  0.21072  1.0000
  S   S31       1.0  0.16582  0.81690  0.27618  1.0000
  Fe  Fe18      1.0  0.29001  0.70842  0.25900  1.0000
  S   S32       1.0  0.30145  0.71377  0.21196  1.0000
  S   S33       1.0  0.33802  0.66525  0.28160  1.0000
  Fe  Fe19      1.0  0.29803  0.78416  0.21839  1.0000
  S   S34       1.0  0.33903  0.83827  0.20083  1.0000
  Fe  Fe20      1.0  0.22907  0.71465  0.20852  1.0000
  S   S35       1.0  0.19625  0.67934  0.17238  1.0000
  S   S36       1.0  0.29108  0.77947  0.26572  1.0000
  S   S37       1.0  0.21766  0.70491  0.25505  1.0000
  H   H49       1.0  0.21253  0.51555  0.24891  1.0000
  C   C47       1.0  0.03787  0.74627  0.20429  1.0000
  H   H50       1.0  0.13070  0.76433  0.16986  1.0000
  C   C48       1.0  0.09697  0.75681  0.17318  1.0000
  C   C49       1.0  0.23351  0.95485  0.26531  1.0000
  C   C50       1.0  0.14255  0.66030  0.17183  1.0000
  C   C51       1.0  0.12432  0.64761  0.14589  1.0000
  C   C52       1.0  0.08093  0.63465  0.14426  1.0000
  C   C53       1.0  0.05550  0.63395  0.16868  1.0000
  C   C54       1.0  0.07422  0.64528  0.19476  1.0000
  C   C55       1.0  0.11748  0.65845  0.19636  1.0000
  H   H51       1.0  0.14360  0.64862  0.12683  1.0000
  H   H52       1.0  0.06697  0.62598  0.12407  1.0000
  H   H53       1.0  0.05481  0.64461  0.21377  1.0000
  H   H54       1.0  0.13126  0.66743  0.21652  1.0000
  C   C56       1.0  0.38765  0.83032  0.18178  1.0000
  C   C57       1.0  0.41337  0.86559  0.17478  1.0000
  C   C58       1.0  0.45180  0.86064  0.15925  1.0000
  C   C59       1.0  0.46467  0.82032  0.15029  1.0000
  C   C60       1.0  0.43889  0.78511  0.15719  1.0000
  C   C61       1.0  0.40072  0.79000  0.17297  1.0000
  H   H55       1.0  0.40363  0.89689  0.18156  1.0000
  H   H56       1.0  0.47133  0.88802  0.15415  1.0000
  H   H57       1.0  0.44843  0.75380  0.15029  1.0000
  H   H58       1.0  0.38126  0.76260  0.17814  1.0000
  C   C62       1.0  0.26117  0.60174  0.22011  1.0000
  H   H59       1.0  0.46561  0.91754  0.01979  1.0000
  H   H60       1.0  0.23842  0.85308  0.30777  1.0000
  C   C63       1.0  0.17203  0.86354  0.29691  1.0000
  H   H61       1.0  0.39882  0.90193  0.11425  1.0000
  C   C64       1.0  0.36220  0.55441  0.32273  1.0000
  C   C65       1.0  0.42537  0.94688  0.05108  1.0000
  H   H62       1.0  0.39835  0.60468  0.30269  1.0000
  C   C66       1.0  0.30171  0.92199  0.25964  1.0000
  C   C67       1.0  0.43924  0.87366  0.08229  1.0000
  C   C68       1.0  0.28944  0.60265  0.30826  1.0000
  C   C69       1.0  0.33031  0.61758  0.30089  1.0000
  C   C70       1.0  0.07211  0.74347  0.15011  1.0000
  C   C71       1.0  0.48528  0.84453  0.04485  1.0000
  H   H63       1.0  0.19578  0.57931  0.21994  1.0000
  H   H64       1.0  0.25813  0.88582  0.21655  1.0000
  H   H65       1.0  0.11308  0.94964  0.31825  1.0000
  N   N3        1.0  0.27935  0.53014  0.25243  1.0000
  C   C72       1.0  0.40671  0.94275  0.07783  1.0000
  C   C73       1.0  0.45117  0.91416  0.04060  1.0000
  H   H66       1.0  0.10624  0.88298  0.29051  1.0000
  N   N4        1.0  0.25864  0.92370  0.25379  1.0000
  H   H67       1.0  0.23943  0.86010  0.24847  1.0000
  H   H68       1.0  0.08773  0.77922  0.24282  1.0000
  C   C74       1.0  0.22844  0.57334  0.22711  1.0000
  C   C75       1.0  0.13668  0.89088  0.30030  1.0000
  H   H69       1.0  0.19903  0.95523  0.26171  1.0000
  C   C76       1.0  0.31167  0.55782  0.24553  1.0000
  H   H70       1.0  0.42017  0.97528  0.03852  1.0000
  H   H71       1.0  0.32142  0.89684  0.25074  1.0000
  C   C77       1.0  0.02944  0.73133  0.15447  1.0000
  C   C78       1.0  0.23937  0.89030  0.23639  1.0000
  H   H72       1.0  0.44383  0.84483  0.09443  1.0000
  H   H73       1.0  0.12923  0.74505  0.22928  1.0000
  C   C79       1.0  0.21108  0.87402  0.30990  1.0000
  C   C80       1.0  0.32073  0.95209  0.27749  1.0000
  H   H74       1.0  0.34424  0.55261  0.25302  1.0000
  H   H75       1.0  0.02453  0.74597  0.22550  1.0000
  H   H76       1.0  0.20551  0.89748  0.23060  1.0000
  H   H77       1.0  0.32850  0.61673  0.22486  1.0000
  H   H78       1.0  0.38694  0.96805  0.08632  1.0000
  N   N5        1.0  0.07958  0.75852  0.19977  1.0000
  C   C81       1.0  0.25150  0.98552  0.28314  1.0000
  C   C82       1.0  0.36660  0.59338  0.30837  1.0000
  C   C83       1.0  0.30302  0.59414  0.22947  1.0000
  C   C84       1.0  0.10684  0.77116  0.22366  1.0000
  H   H79       1.0  0.12607  0.79978  0.21827  1.0000
  C   C85       1.0  0.14039  0.92864  0.31614  1.0000
  C   C86       1.0  0.29533  0.98393  0.28937  1.0000
  H   H80       1.0  0.26128  0.62098  0.30269  1.0000
  C   C87       1.0  0.41343  0.90580  0.09351  1.0000
  H   H81       1.0  0.51307  0.85806  0.03298  1.0000
  N   N6        1.0  0.45849  0.87854  0.05643  1.0000
  H   H82       1.0  0.25405  0.62967  0.20752  1.0000
  C   C88       1.0  0.23815  0.53747  0.24343  1.0000
  H   H83       1.0  0.35478  0.95029  0.28236  1.0000
  C   C89       1.0  0.28507  0.56396  0.32301  1.0000
  C   C90       1.0  0.21463  0.91151  0.32602  1.0000
  H   H84       1.0  0.46593  0.82451  0.03030  1.0000
  S   S38       1.0  0.51126  0.81270  0.12910  1.0000
  H   H85       1.0  0.08642  0.74071  0.12925  1.0000
  H   H86       1.0  0.49871  0.82428  0.06202  1.0000
  H   H87       1.0  0.30930  0.00694  0.30379  1.0000
  N   N7        1.0  0.04592  0.86007  0.56131  1.0000
  C   C91       1.0  0.10347  0.91834  0.58416  1.0000
  H   H88       1.0  0.12275  0.86731  0.61192  1.0000
  C   C92       1.0  0.04817  0.90021  0.55039  1.0000
  H   H89       1.0  0.25333  0.55276  0.32874  1.0000
  H   H90       1.0  0.07160  0.81591  0.59106  1.0000
  C   C93       1.0  0.36726  0.55041  0.40781  1.0000
  H   H91       1.0  0.12545  0.94123  0.59342  1.0000
  C   C94       1.0  0.51289  0.53734  0.47300  1.0000
  S   S39       1.0  0.18698  0.98792  0.34734  1.0000
  C   C95       1.0  0.07294  0.84796  0.58270  1.0000
  C   C96       1.0  0.07660  0.93009  0.56179  1.0000
  H   H92       1.0  0.02775  0.90936  0.53285  1.0000
  C   C97       1.0  0.34734  0.51532  0.42014  1.0000
  C   C98       1.0  0.07353  0.78576  0.65593  1.0000
  H   H93       1.0  0.07755  0.96211  0.55333  1.0000
  H   H94       1.0  0.43828  0.61630  0.63364  1.0000
  H   H95       1.0  0.36124  0.61818  0.64807  1.0000
  C   C99       1.0  0.40216  0.56503  0.45246  1.0000
  S   S40       1.0  0.51300  0.66532  0.65367  1.0000
  H   H96       1.0  0.36104  0.55814  0.38576  1.0000
  C   C100      1.0  0.38892  0.52076  0.49444  1.0000
  H   H97       1.0  0.03285  0.80843  0.53392  1.0000
  N   N8        1.0  0.38284  0.53020  0.46427  1.0000
  C   C101      1.0  0.42748  0.63907  0.64919  1.0000
  C   C102      1.0  0.10198  0.87691  0.59454  1.0000
  H   H98       1.0  0.24496  0.91932  0.33600  1.0000
  H   H99       1.0  0.42357  0.58475  0.46499  1.0000
  H   H100      1.0  0.41060  0.60281  0.41456  1.0000
  C   C103      1.0  0.39499  0.57543  0.42399  1.0000
  H   H101      1.0  0.48309  0.50838  0.43622  1.0000
  C   C104      1.0  0.38385  0.64014  0.65749  1.0000
  C   C105      1.0  0.05926  0.86095  0.65917  1.0000
  H   H102      1.0  0.06417  0.75444  0.64886  1.0000
  C   C106      1.0  0.17947  0.93924  0.32902  1.0000
  H   H103      1.0  0.01683  0.98676  0.43745  1.0000
  C   C107      1.0  0.04673  0.82059  0.65008  1.0000
  H   H104      1.0  0.36174  0.53378  0.50691  1.0000
  H   H105      1.0  0.41950  0.53452  0.50258  1.0000
  H   H106      1.0  0.03903  0.88805  0.65467  1.0000
  C   C108      1.0  0.32137  0.53954  0.33015  1.0000
  H   H107      1.0  0.39039  0.53588  0.32794  1.0000
  C   C109      1.0  0.01584  0.82916  0.54921  1.0000
  Fe  Fe21      1.0  0.28188  0.71721  0.71711  1.0000
  S   S41       1.0  0.28292  0.70882  0.76446  1.0000
  S   S42       1.0  0.31436  0.66848  0.68834  1.0000
  Fe  Fe22      1.0  0.21427  0.78862  0.72038  1.0000
  S   S43       1.0  0.21134  0.78498  0.76795  1.0000
  S   S44       1.0  0.17264  0.83970  0.69979  1.0000
  Fe  Fe23      1.0  0.28339  0.78070  0.76610  1.0000
  S   S45       1.0  0.32958  0.81419  0.79646  1.0000
  Fe  Fe24      1.0  0.21091  0.71408  0.76213  1.0000
  S   S46       1.0  0.15765  0.67257  0.78070  1.0000
  S   S47       1.0  0.28698  0.78859  0.71868  1.0000
  S   S48       1.0  0.20930  0.71832  0.71466  1.0000
  C   C110      1.0  0.09827  0.86629  0.67399  1.0000
  C   C111      1.0  0.10729  0.54911  0.94043  1.0000
  H   H108      1.0  0.09789  0.87327  0.73916  1.0000
  C   C112      1.0  0.39736  0.95543  0.77457  1.0000
  C   C113      1.0  0.09883  0.84634  0.75440  1.0000
  C   C114      1.0  0.16591  0.62571  0.80076  1.0000
  C   C115      1.0  0.20698  0.61283  0.80919  1.0000
  C   C116      1.0  0.21239  0.57447  0.82410  1.0000
  C   C117      1.0  0.17695  0.54841  0.83050  1.0000
  C   C118      1.0  0.13576  0.56160  0.82252  1.0000
  C   C119      1.0  0.13031  0.60016  0.80779  1.0000
  H   H109      1.0  0.23461  0.63236  0.80417  1.0000
  H   H110      1.0  0.24436  0.56465  0.83036  1.0000
  C   C120      1.0  0.09200  0.76917  0.74892  1.0000
  H   H111      1.0  0.09838  0.60992  0.80141  1.0000
  C   C121      1.0  0.32561  0.86799  0.80733  1.0000
  C   C122      1.0  0.35559  0.88418  0.82693  1.0000
  C   C123      1.0  0.35438  0.92710  0.83539  1.0000
  C   C124      1.0  0.32290  0.95422  0.82443  1.0000
  C   C125      1.0  0.29265  0.93789  0.80511  1.0000
  C   C126      1.0  0.29406  0.89510  0.79649  1.0000
  H   H112      1.0  0.38002  0.86342  0.83551  1.0000
  H   H113      1.0  0.37780  0.93918  0.85031  1.0000
  H   H114      1.0  0.26806  0.95855  0.79659  1.0000
  H   H115      1.0  0.27076  0.88311  0.78145  1.0000
  C   C127      1.0  0.45706  0.66718  0.66136  1.0000
  H   H116      1.0  0.28229  0.54454  0.76100  1.0000
  N   N9        1.0  0.22313  0.56926  0.74508  1.0000
  N   N10       1.0  0.40028  0.99821  0.77909  1.0000
  H   H117      1.0  0.36944  0.94200  0.76405  1.0000
  C   C128      1.0  0.07699  0.57922  0.93176  1.0000
  H   H118      1.0  0.48897  0.62661  0.71629  1.0000
  C   C129      1.0  0.03549  0.73817  0.72062  1.0000
  H   H119      1.0  0.13231  0.76389  0.67576  1.0000
  C   C130      1.0  0.15283  0.56747  0.90198  1.0000
  H   H120      1.0  0.04758  0.58366  0.94380  1.0000
  H   H121      1.0  0.12994  0.61652  0.87381  1.0000
  C   C131      1.0  0.24787  0.53995  0.75895  1.0000
  H   H122      1.0  0.01971  0.71064  0.71153  1.0000
  H   H123      1.0  0.27841  0.60753  0.73468  1.0000
  H   H124      1.0  0.10785  0.89766  0.68085  1.0000
  C   C132      1.0  0.11215  0.79100  0.67118  1.0000
  C   C133      1.0  0.17951  0.56414  0.74336  1.0000
  C   C134      1.0  0.49539  0.59614  0.70650  1.0000
  H   H125      1.0  0.48943  0.92400  0.80727  1.0000
  H   H126      1.0  0.10818  0.54190  0.82738  1.0000
  N   N11       1.0  0.14415  0.54292  0.92520  1.0000
  C   C135      1.0  0.46473  0.94485  0.79896  1.0000
  H   H127      1.0  0.10114  0.53059  0.95937  1.0000
  C   C136      1.0  0.42937  0.92809  0.78456  1.0000
  C   C137      1.0  0.49383  0.00104  0.96092  1.0000
  C   C138      1.0  0.12472  0.83134  0.68026  1.0000
  C   C139      1.0  0.39878  0.69780  0.68971  1.0000
  H   H128      1.0  0.08403  0.70186  0.74269  1.0000
  C   C140      1.0  0.46078  0.57158  0.69699  1.0000
  C   C141      1.0  0.46800  0.98861  0.80279  1.0000
  H   H129      1.0  0.02958  0.84553  0.72107  1.0000
  C   C142      1.0  0.44240  0.69654  0.68158  1.0000
  H   H130      1.0  0.23061  0.63587  0.74439  1.0000
  H   H131      1.0  0.42806  0.58283  0.69973  1.0000
  C   C143      1.0  0.12319  0.59774  0.89260  1.0000
  H   H132      1.0  0.42601  0.89404  0.78179  1.0000
  H   H133      1.0  0.46496  0.71847  0.69110  1.0000
  C   C144      1.0  0.36925  0.66950  0.67778  1.0000
  C   C145      1.0  0.24272  0.60753  0.73302  1.0000
  H   H134      1.0  0.38808  0.72055  0.70533  1.0000
  H   H135      1.0  0.08334  0.85584  0.77458  1.0000
  C   C146      1.0  0.04128  0.81403  0.72619  1.0000
  H   H136      1.0  0.06153  0.62663  0.90043  1.0000
  C   C147      1.0  0.08490  0.60339  0.90752  1.0000
  H   H137      1.0  0.13352  0.84002  0.75828  1.0000
  N   N12       1.0  0.07723  0.80895  0.74259  1.0000
  H   H138      1.0  0.11992  0.76490  0.76240  1.0000
  H   H139      1.0  0.23457  0.61066  0.71017  1.0000
  H   H140      1.0  0.49028  0.99793  0.93821  1.0000
  H   H141      1.0  0.15983  0.58827  0.73331  1.0000
  C   C148      1.0  0.07160  0.73323  0.73790  1.0000
  H   H142      1.0  0.18270  0.56349  0.89044  1.0000
  C   C149      1.0  0.17563  0.51143  0.93473  1.0000
  C   C150      1.0  0.46880  0.53368  0.68273  1.0000
  C   C151      1.0  0.15953  0.52874  0.75555  1.0000
  H   H143      1.0  0.12480  0.52538  0.75488  1.0000
  H   H144      1.0  0.19879  0.52627  0.94962  1.0000
  C   C152      1.0  0.01998  0.77878  0.71485  1.0000
  C   C153      1.0  0.51112  0.52049  0.67855  1.0000
  H   H145      1.0  0.44232  0.51491  0.67452  1.0000
  H   H146      1.0  0.49540  0.00220  0.81386  1.0000
  Fe  Fe25      1.0  0.69591  0.24601  0.26773  1.0000
  S   S49       1.0  0.69375  0.26543  0.22204  1.0000
  S   S50       1.0  0.63614  0.24250  0.29577  1.0000
  Fe  Fe26      1.0  0.79365  0.22670  0.26517  1.0000
  S   S51       1.0  0.79750  0.24434  0.21892  1.0000
  S   S52       1.0  0.85383  0.22329  0.29306  1.0000
  Fe  Fe27      1.0  0.75594  0.29999  0.23011  1.0000
  S   S53       1.0  0.76760  0.37018  0.22123  1.0000
  Fe  Fe28      1.0  0.73496  0.20771  0.21449  1.0000
  S   S54       1.0  0.71940  0.16823  0.17508  1.0000
  S   S55       1.0  0.75480  0.28445  0.27657  1.0000
  S   S56       1.0  0.73408  0.18609  0.26001  1.0000
  N   N13       1.0  0.91038  0.46213  0.02152  1.0000
  C   C154      1.0  0.57849  0.35890  0.29670  1.0000
  C   C155      1.0  0.79689  0.39336  0.19292  1.0000
  C   C156      1.0  0.80272  0.43762  0.19259  1.0000
  C   C157      1.0  0.82764  0.45736  0.17139  1.0000
  C   C158      1.0  0.84692  0.43296  0.15021  1.0000
  C   C159      1.0  0.84077  0.38871  0.15038  1.0000
  C   C160      1.0  0.81588  0.36895  0.17162  1.0000
  H   H147      1.0  0.78810  0.45678  0.20895  1.0000
  H   H148      1.0  0.62420  0.22467  0.15977  1.0000
  H   H149      1.0  0.85547  0.36957  0.13405  1.0000
  H   H150      1.0  0.81168  0.33488  0.17164  1.0000
  C   C161      1.0  0.65308  0.03759  0.16855  1.0000
  C   C162      1.0  0.66395  0.05447  0.19520  1.0000
  C   C163      1.0  0.68432  0.09429  0.19760  1.0000
  C   C164      1.0  0.69401  0.11779  0.17327  1.0000
  C   C165      1.0  0.68286  0.10108  0.14661  1.0000
  C   C166      1.0  0.66248  0.06120  0.14421  1.0000
  H   H151      1.0  0.81444  0.36060  0.27622  1.0000
  H   H152      1.0  0.69277  0.10667  0.21824  1.0000
  H   H153      1.0  0.69003  0.11911  0.12767  1.0000
  H   H154      1.0  0.94941  0.42829  0.08449  1.0000
  C   C167      1.0  0.89084  0.18179  0.30070  1.0000
  H   H155      1.0  0.59693  0.13301  0.23703  1.0000
  C   C168      1.0  0.91487  0.45807  0.05023  1.0000
  H   H156      1.0  0.65432  0.04865  0.12357  1.0000
  C   C169      1.0  0.91670  0.10920  0.29634  1.0000
  C   C170      1.0  0.88633  0.14091  0.28958  1.0000
  C   C171      1.0  0.95197  0.11795  0.31415  1.0000
  C   C172      1.0  0.60150  0.16442  0.24729  1.0000
  H   H157      1.0  0.85949  0.13371  0.27581  1.0000
  H   H158      1.0  0.62734  0.16531  0.19366  1.0000
  C   C173      1.0  0.91451  0.35143  0.20119  1.0000
  C   C174      1.0  0.60084  0.28549  0.30263  1.0000
  C   C175      1.0  0.60756  0.32573  0.29095  1.0000
  H   H159      1.0  0.90444  0.41904  0.20237  1.0000
  H   H160      1.0  0.63530  0.33138  0.27761  1.0000
  H   H161      1.0  0.65686  0.03642  0.21415  1.0000
  S   S57       1.0  0.98901  0.07667  0.32218  1.0000
  H   H162      1.0  0.86409  0.37057  0.29522  1.0000
  H   H163      1.0  0.91777  0.28336  0.20564  1.0000
  S   S58       1.0  0.88012  0.45597  0.12375  1.0000
  C   C176      1.0  0.90723  0.31295  0.21504  1.0000
  H   H164      1.0  0.63442  0.16601  0.25645  1.0000
  H   H165      1.0  0.83206  0.49141  0.17151  1.0000
  H   H166      1.0  0.59079  0.29313  0.17438  1.0000
  C   C177      1.0  0.61006  0.22813  0.18067  1.0000
  H   H167      1.0  0.76097  0.04934  0.16392  1.0000
  C   C178      1.0  0.57499  0.27066  0.21628  1.0000
  C   C179      1.0  0.61203  0.19458  0.20002  1.0000
  N   N14       1.0  0.59593  0.19897  0.22680  1.0000
  C   C180      1.0  0.56452  0.27873  0.31984  1.0000
  C   C181      1.0  0.84797  0.34948  0.27969  1.0000
  C   C182      1.0  0.94576  0.43078  0.06166  1.0000
  H   H168      1.0  0.57818  0.16692  0.26506  1.0000
  H   H169      1.0  0.58425  0.39003  0.28778  1.0000
  N   N15       1.0  0.87132  0.34981  0.25273  1.0000
  C   C183      1.0  0.87805  0.38763  0.23920  1.0000
  C   C184      1.0  0.57742  0.23634  0.23502  1.0000
  C   C185      1.0  0.90011  0.38908  0.21340  1.0000
  H   H170      1.0  0.56522  0.24012  0.25638  1.0000
  H   H171      1.0  0.86523  0.41679  0.24794  1.0000
  C   C186      1.0  0.92601  0.19045  0.31862  1.0000
  H   H172      1.0  0.93039  0.35212  0.18074  1.0000
  C   C187      1.0  0.59152  0.26647  0.18893  1.0000
  C   C188      1.0  0.54231  0.35223  0.31404  1.0000
  H   H173      1.0  0.99627  0.38631  0.05210  1.0000
  H   H174      1.0  0.56132  0.30054  0.22324  1.0000
  H   H175      1.0  0.91294  0.07770  0.28761  1.0000
  H   H176      1.0  0.87995  0.28265  0.25155  1.0000
  C   C189      1.0  0.88560  0.31273  0.24101  1.0000
  H   H177      1.0  0.84642  0.31714  0.28913  1.0000
  C   C190      1.0  0.97176  0.40713  0.04352  1.0000
  C   C191      1.0  0.53535  0.31187  0.32552  1.0000
  C   C192      1.0  0.96630  0.41071  0.01427  1.0000
  H   H178      1.0  0.98695  0.39316  0.99990  1.0000
  H   H179      1.0  0.89475  0.47620  0.06451  1.0000
  C   C193      1.0  0.93514  0.43843  0.00357  1.0000
  C   C194      1.0  0.87758  0.49063  0.00991  1.0000
  C   C195      1.0  0.76708  0.02303  0.12197  1.0000
  H   H180      1.0  0.77652  0.05293  0.11238  1.0000
  C   C196      1.0  0.75848  0.02102  0.15093  1.0000
  H   H181      1.0  0.84721  0.47295  0.00623  1.0000
  C   C197      1.0  0.95642  0.15880  0.32530  1.0000
  H   H182      1.0  0.92986  0.22195  0.32733  1.0000
  N   N16       1.0  0.93715  0.06123  0.41740  1.0000
  H   H183      1.0  0.58616  0.29899  0.38665  1.0000
  N   N17       1.0  0.56199  0.40348  0.39005  1.0000
  H   H184      1.0  0.51479  0.36731  0.44999  1.0000
  C   C198      1.0  0.91061  0.02901  0.42595  1.0000
  C   C199      1.0  0.94708  0.08264  0.46581  1.0000
  H   H185      1.0  0.54466  0.29934  0.43183  1.0000
  H   H186      1.0  0.78093  0.09143  0.63397  1.0000
  C   C200      1.0  0.57937  0.36645  0.38023  1.0000
  C   C201      1.0  0.57332  0.32844  0.39502  1.0000
  C   C202      1.0  0.90130  0.02311  0.45470  1.0000
  C   C203      1.0  0.91955  0.05028  0.47470  1.0000
  C   C204      1.0  0.55005  0.32865  0.42029  1.0000
  H   H187      1.0  0.58249  0.43752  0.35307  1.0000
  C   C205      1.0  0.95597  0.08740  0.43692  1.0000
  H   H188      1.0  0.83169  0.03164  0.62604  1.0000
  H   H189      1.0  0.91361  0.04523  0.49712  1.0000
  H   H190      1.0  0.96295  0.10274  0.48126  1.0000
  C   C206      1.0  0.83516  0.05163  0.64451  1.0000
  H   H191      1.0  0.97877  0.11156  0.43032  1.0000
  C   C207      1.0  0.56764  0.44310  0.37418  1.0000
  H   H192      1.0  0.89694  0.00736  0.41053  1.0000
  H   H193      1.0  0.53579  0.45786  0.37004  1.0000
  H   H194      1.0  0.59731  0.36589  0.36052  1.0000
  C   C208      1.0  0.53333  0.36673  0.43049  1.0000
  H   H195      1.0  0.98339  0.16609  0.33895  1.0000
  S   S59       1.0  0.60055  0.47299  0.64226  1.0000
  C   C209      1.0  0.80642  0.08555  0.64908  1.0000
  C   C210      1.0  0.64358  0.44326  0.65730  1.0000
  H   H196      1.0  0.52571  0.43335  0.42276  1.0000
  H   H197      1.0  0.51471  0.49470  0.53915  1.0000
  H   H198      1.0  0.95923  0.09840  0.38217  1.0000
  C   C211      1.0  0.53952  0.40405  0.41495  1.0000
  H   H199      1.0  0.97253  0.04284  0.38104  1.0000
  H   H200      1.0  0.70327  0.01066  0.65163  1.0000
  C   C212      1.0  0.94735  0.06598  0.38726  1.0000
  H   H201      1.0  0.58823  0.46544  0.38629  1.0000
  H   H202      1.0  0.55887  0.24763  0.32884  1.0000
  H   H203      1.0  0.91850  0.06065  0.37379  1.0000
  H   H204      1.0  0.69097  0.49296  0.65512  1.0000
  H   H205      1.0  0.66215  0.34437  0.68524  1.0000
  Fe  Fe29      1.0  0.76775  0.20298  0.71330  1.0000
  S   S60       1.0  0.76715  0.19119  0.76047  1.0000
  N   N18       1.0  0.00131  0.24981  0.78775  1.0000
  Fe  Fe30      1.0  0.75308  0.29896  0.72007  1.0000
  S   S61       1.0  0.75226  0.29318  0.76750  1.0000
  S   S62       1.0  0.75076  0.36634  0.70164  1.0000
  Fe  Fe31      1.0  0.80883  0.25008  0.76318  1.0000
  S   S63       1.0  0.86442  0.25164  0.79510  1.0000
  Fe  Fe32      1.0  0.71037  0.23548  0.76140  1.0000
  S   S64       1.0  0.65133  0.23587  0.79048  1.0000
  S   S65       1.0  0.81309  0.25887  0.71590  1.0000
  S   S66       1.0  0.70778  0.24408  0.71405  1.0000
  C   C213      1.0  0.95652  0.36215  0.81607  1.0000
  C   C214      1.0  0.92775  0.36539  0.79314  1.0000
  C   C215      1.0  0.89838  0.33250  0.78696  1.0000
  C   C216      1.0  0.89749  0.29587  0.80368  1.0000
  C   C217      1.0  0.92584  0.29287  0.82687  1.0000
  C   C218      1.0  0.95510  0.32583  0.83312  1.0000
  H   H206      1.0  0.92851  0.39334  0.77982  1.0000
  H   H207      1.0  0.87696  0.33519  0.76896  1.0000
  H   H208      1.0  0.92544  0.26465  0.83993  1.0000
  C   C219      1.0  0.66855  0.37671  0.67881  1.0000
  S   S67       1.0  0.77043  0.15129  0.67912  1.0000
  H   H209      1.0  0.67301  0.38658  0.73656  1.0000
  H   H210      1.0  0.00092  0.30745  0.76397  1.0000
  C   C220      1.0  0.55078  0.13304  0.81291  1.0000
  C   C221      1.0  0.58425  0.12392  0.79377  1.0000
  C   C222      1.0  0.61535  0.15485  0.78665  1.0000
  C   C223      1.0  0.61329  0.19536  0.79862  1.0000
  C   C224      1.0  0.57976  0.20450  0.81770  1.0000
  C   C225      1.0  0.54869  0.17359  0.82483  1.0000
  H   H211      1.0  0.58621  0.09268  0.78443  1.0000
  H   H212      1.0  0.64089  0.14732  0.77196  1.0000
  H   H213      1.0  0.57782  0.23568  0.82712  1.0000
  C   C226      1.0  0.81009  0.11168  0.67315  1.0000
  H   H214      1.0  0.98344  0.20939  0.75375  1.0000
  C   C227      1.0  0.68058  0.38009  0.75850  1.0000
  H   H215      1.0  0.73641  0.42072  0.75794  1.0000
  S   S68       1.0  0.99492  0.40324  0.82151  1.0000
  H   H216      1.0  0.93175  0.44171  0.98080  1.0000
  C   C228      1.0  0.96825  0.22947  0.77022  1.0000
  H   H217      1.0  0.97695  0.32287  0.85085  1.0000
  H   H218      1.0  0.64870  0.31900  0.81292  1.0000
  H   H219      1.0  0.75834  0.06267  0.71179  1.0000
  C   C229      1.0  0.73372  0.04622  0.69865  1.0000
  H   H220      1.0  0.89712  0.06369  0.70323  1.0000
  C   C230      1.0  0.70931  0.39431  0.68345  1.0000
  H   H221      1.0  0.94725  0.25336  0.75972  1.0000
  C   C231      1.0  0.87188  0.06977  0.68797  1.0000
  H   H222      1.0  0.59900  0.31418  0.77482  1.0000
  H   H223      1.0  0.75586  0.40465  0.80805  1.0000
  C   C232      1.0  0.84312  0.10366  0.69255  1.0000
  H   H224      1.0  0.63553  0.30257  0.74648  1.0000
  N   N19       1.0  0.65651  0.35170  0.77363  1.0000
  C   C233      1.0  0.62166  0.32871  0.75937  1.0000
  H   H225      1.0  0.84621  0.12329  0.71123  1.0000
  C   C234      1.0  0.68446  0.46069  0.66165  1.0000
  H   H226      1.0  0.71123  0.35350  0.83561  1.0000
  H   H227      1.0  0.52319  0.18110  0.83955  1.0000
  C   C235      1.0  0.72731  0.39063  0.79867  1.0000
  C   C236      1.0  0.66688  0.34255  0.80115  1.0000
  C   C237      1.0  0.71638  0.39984  0.77067  1.0000
  H   H228      1.0  0.72135  0.07051  0.68359  1.0000
  C   C238      1.0  0.71700  0.43638  0.67477  1.0000
  C   C239      1.0  0.70229  0.36199  0.81413  1.0000
  H   H229      1.0  0.60308  0.35012  0.74525  1.0000
  C   C240      1.0  0.86798  0.04342  0.66405  1.0000
  C   C241      1.0  0.00575  0.50428  0.96187  1.0000
  H   H230      1.0  0.74838  0.45034  0.67825  1.0000
  H   H231      1.0  0.94643  0.20961  0.78342  1.0000
  N   N20       1.0  0.75212  0.01007  0.68336  1.0000
  H   H232      1.0  0.70712  0.03548  0.71259  1.0000
  H   H233      1.0  0.51788  0.49135  0.66715  1.0000
  H   H234      1.0  0.00337  0.50088  0.93911  1.0000
  H   H235      1.0  0.00785  0.19631  0.81510  1.0000
  H   H236      1.0  0.88876  0.50527  0.98978  1.0000
  C   C242      1.0  0.63586  0.40118  0.66601  1.0000
  H   H237      1.0  0.60442  0.38731  0.66266  1.0000
  Fe  Fe33      1.0  0.95566  0.60079  0.13158  1.0000
  S   S69       1.0  0.92940  0.64160  0.09617  1.0000
  H   H238      1.0  0.64669  0.76984  0.06464  1.0000
  Fe  Fe34      1.0  0.89430  0.52665  0.11804  1.0000
  S   S70       1.0  0.86350  0.56263  0.08223  1.0000
  Fe  Fe35      1.0  0.93127  0.58082  0.07023  1.0000
  S   S71       1.0  0.94733  0.57561  0.02288  1.0000
  Fe  Fe36      1.0  0.86367  0.62019  0.11071  1.0000
  S   S72       1.0  0.80273  0.65926  0.12096  1.0000
  S   S73       1.0  0.96214  0.54209  0.10464  1.0000
  S   S74       1.0  0.88984  0.58218  0.14750  1.0000
  Fe  Fe37      1.0  0.55836  0.86507  0.11725  1.0000
  S   S75       1.0  0.59085  0.85531  0.07527  1.0000
  Fe  Fe38      1.0  0.61204  0.94418  0.12930  1.0000
  S   S76       1.0  0.64732  0.93997  0.08776  1.0000
  H   H239      1.0  0.72031  0.88218  0.14384  1.0000
  Fe  Fe39      1.0  0.58198  0.92557  0.06878  1.0000
  S   S77       1.0  0.56077  0.93969  0.02313  1.0000
  Fe  Fe40      1.0  0.65299  0.86997  0.09729  1.0000
  S   S78       1.0  0.71666  0.83665  0.08676  1.0000
  S   S79       1.0  0.54583  0.93443  0.10985  1.0000
  S   S80       1.0  0.62131  0.87478  0.13973  1.0000
  C   C243      1.0  0.78343  0.71141  0.11332  1.0000
  C   C244      1.0  0.79849  0.73531  0.09037  1.0000
  C   C245      1.0  0.77844  0.77408  0.08313  1.0000
  C   C246      1.0  0.74299  0.78948  0.09858  1.0000
  C   C247      1.0  0.72888  0.76636  0.12214  1.0000
  C   C248      1.0  0.74900  0.72766  0.12941  1.0000
  H   H240      1.0  0.82482  0.72337  0.07771  1.0000
  H   H241      1.0  0.78991  0.79174  0.06497  1.0000
  H   H242      1.0  0.70213  0.77790  0.13453  1.0000
  H   H243      1.0  0.73719  0.70961  0.14730  1.0000
  H   H244      1.0  0.73089  0.66218  0.06316  1.0000
  H   H245      1.0  0.61873  0.77681  0.12241  1.0000
  H   H246      1.0  0.58533  0.73065  0.12727  1.0000
  H   H247      1.0  0.70559  0.72998  0.04185  1.0000
  H   H248      1.0  0.75195  0.89573  0.17445  1.0000
  H   H249      1.0  0.69640  0.91267  0.17185  1.0000
  C   C249      1.0  0.74986  0.94855  0.11817  1.0000
  C   C250      1.0  0.72667  0.90740  0.15978  1.0000
  C   C251      1.0  0.74478  0.98268  0.16287  1.0000
  C   C252      1.0  0.60377  0.74936  0.11140  1.0000
  H   H250      1.0  0.73649  0.98179  0.18519  1.0000
  H   H251      1.0  0.58006  0.76150  0.09575  1.0000
  H   H252      1.0  0.69645  0.63506  0.10686  1.0000
  C   C253      1.0  0.70358  0.67884  0.07217  1.0000
  H   H253      1.0  0.63696  0.67539  0.12892  1.0000
  C   C254      1.0  0.52713  0.97716  0.00541  1.0000
  C   C255      1.0  0.68417  0.66359  0.09679  1.0000
  H   H254      1.0  0.74667  0.92036  0.10513  1.0000
  N   N21       1.0  0.74055  0.94715  0.14649  1.0000
  N   N22       1.0  0.63704  0.72402  0.09738  1.0000
  C   C256      1.0  0.65605  0.73929  0.07329  1.0000
  C   C257      1.0  0.65083  0.68679  0.10926  1.0000
  C   C258      1.0  0.68943  0.71686  0.06025  1.0000
  S   S81       1.0  0.62949  0.98629  0.16701  1.0000
  H   H255      1.0  0.97968  0.72115  0.18541  1.0000
  C   C259      1.0  0.98182  0.53848  0.00587  1.0000
  C   C260      1.0  0.01095  0.51339  0.02099  1.0000
  H   H256      1.0  0.01035  0.71889  0.13707  1.0000
  C   C261      1.0  0.76285  0.98658  0.10543  1.0000
  H   H257      1.0  0.01321  0.51661  0.04376  1.0000
  S   S82       1.0  0.99954  0.62294  0.16764  1.0000
  H   H258      1.0  0.76919  0.98776  0.08284  1.0000
  C   C262      1.0  0.01217  0.73261  0.18171  1.0000
  H   H259      1.0  0.87121  0.51747  0.02460  1.0000
  Fe  Fe41      1.0  0.57018  0.58181  0.56624  1.0000
  S   S83       1.0  0.99830  0.81199  0.63115  1.0000
  S   S84       1.0  0.54905  0.57664  0.51960  1.0000
  Fe  Fe42      1.0  0.64454  0.62143  0.60127  1.0000
  S   S85       1.0  0.61504  0.60005  0.64242  1.0000
  S   S86       1.0  0.71183  0.65201  0.59910  1.0000
  Fe  Fe43      1.0  0.60068  0.53818  0.62079  1.0000
  Fe  Fe44      1.0  0.55193  0.62261  0.62420  1.0000
  S   S87       1.0  0.63465  0.55722  0.58060  1.0000
  S   S88       1.0  0.58247  0.64746  0.58415  1.0000
  Fe  Fe45      1.0  0.85363  0.87072  0.60284  1.0000
  C   C263      1.0  0.74817  0.95986  0.64510  1.0000
  S   S89       1.0  0.78491  0.84309  0.60342  1.0000
  Fe  Fe46      1.0  0.92301  0.91739  0.56684  1.0000
  S   S90       1.0  0.96561  0.92964  0.60456  1.0000
  S   S91       1.0  0.94036  0.92885  0.52014  1.0000
  Fe  Fe47      1.0  0.95018  0.86276  0.61757  1.0000
  N   N23       1.0  0.69435  0.63856  0.52755  1.0000
  Fe  Fe48      1.0  0.90377  0.94687  0.62722  1.0000
  C   C264      1.0  0.52182  0.53410  0.50222  1.0000
  S   S92       1.0  0.91128  0.84876  0.57832  1.0000
  S   S93       1.0  0.86203  0.93896  0.58860  1.0000
  C   C265      1.0  0.97628  0.96525  0.50355  1.0000
  H   H260      1.0  0.59026  0.66173  0.51352  1.0000
  C   C266      1.0  0.62395  0.66695  0.51858  1.0000
  C   C267      1.0  0.68220  0.71359  0.53172  1.0000
  C   C268      1.0  0.73118  0.70547  0.60114  1.0000
  C   C269      1.0  0.77584  0.71295  0.59962  1.0000
  C   C270      1.0  0.79286  0.75459  0.60033  1.0000
  C   C271      1.0  0.76539  0.78959  0.60246  1.0000
  C   C272      1.0  0.72068  0.78212  0.60375  1.0000
  C   C273      1.0  0.70366  0.74045  0.60312  1.0000
  H   H261      1.0  0.79757  0.68629  0.59805  1.0000
  H   H262      1.0  0.82726  0.75958  0.59930  1.0000
  H   H263      1.0  0.69900  0.80880  0.60541  1.0000
  H   H264      1.0  0.66927  0.73545  0.60424  1.0000
  H   H265      1.0  0.79818  0.91273  0.64395  1.0000
  H   H266      1.0  0.75657  0.61006  0.52608  1.0000
  C   C274      1.0  0.70957  0.67847  0.53306  1.0000
  H   H267      1.0  0.74256  0.68310  0.53994  1.0000
  H   H268      1.0  0.63957  0.60075  0.51704  1.0000
  H   H269      1.0  0.61729  0.73451  0.52391  1.0000
  C   C275      1.0  0.63911  0.70770  0.52442  1.0000
  H   H270      1.0  0.73247  0.94806  0.62613  1.0000
  H   H271      1.0  0.72151  0.59110  0.55371  1.0000
  C   C276      1.0  0.65207  0.63248  0.52056  1.0000
  C   C277      1.0  0.98422  0.96127  0.47431  1.0000
  S   S94       1.0  0.53514  0.55929  0.60526  1.0000
  C   C278      1.0  0.72272  0.60184  0.53126  1.0000
  S   S95       1.0  0.89170  0.88034  0.64297  1.0000
  H   H272      1.0  0.71285  0.57506  0.51742  1.0000
  H   H273      1.0  0.69414  0.74489  0.53726  1.0000
  H   H274      1.0  0.96884  0.93599  0.46256  1.0000
  H   H275      1.0  0.52340  0.56521  0.46152  1.0000
  H   H276      1.0  0.00138  0.80926  0.56624  1.0000
  C   C279      1.0  0.01151  0.98999  0.45999  1.0000
  H   H277      1.0  0.98874  0.84517  0.53807  1.0000
  C   C280      1.0  0.78515  0.93989  0.65513  1.0000
  C   C281      1.0  0.73192  0.99510  0.65960  1.0000
  C   C282      1.0  0.99669  0.99789  0.51848  1.0000
  H   H278      1.0  0.88109  0.99695  0.46159  1.0000
  H   H279      1.0  0.99090  0.00144  0.54096  1.0000
  S   S96       1.0  0.90344  0.99952  0.66048  1.0000
  C   C283      1.0  0.97965  0.53394  0.97621  1.0000
  C   C284      1.0  0.78825  0.99043  0.69346  1.0000
  C   C285      1.0  0.52203  0.97392  0.97585  1.0000
  C   C286      1.0  0.57233  0.61052  0.71134  1.0000
  H   H280      1.0  0.60388  0.59405  0.71023  1.0000
  H   H281      1.0  0.83499  0.94072  0.68687  1.0000
  H   H282      1.0  0.95731  0.55327  0.96428  1.0000
  H   H283      1.0  0.57393  0.63892  0.69735  1.0000
  C   C287      1.0  0.80542  0.95523  0.67942  1.0000
  C   C288      1.0  0.54496  0.54569  0.68852  1.0000
  H   H284      1.0  0.53991  0.95009  0.96434  1.0000
  H   H285      1.0  0.56738  0.62119  0.73350  1.0000
  N   N24       1.0  0.53682  0.58306  0.70223  1.0000
  H   H286      1.0  0.99245  0.78309  0.70094  1.0000
  H   H287      1.0  0.57775  0.53539  0.68472  1.0000
  H   H288      1.0  0.80484  0.00270  0.71194  1.0000
