data_image0
_chemical_formula_structural       Fe2SHS4FeS2FeS2FeSFeS3FeS2FeHFeS3FeS2FeS2FeSFeS3FeS2FeH3S2C6H4CH4C3H3C2HNC2HC6H4C6H4C6H4C6H5CNC5H5CHCFeH5C2HC5HNC6H5NH2CH2CHCH5NCHCNC6H8CHCH2CH3CNC2SCFeHC2HC4HFeCSCHS2H4CHNCH2CHC2H2FeSCNHC3H2C2HFeSCSH2C2H4NC7H4SH2SNCHC6H2SH2CH2NH2C2H2CSCHCHCHCHCHS2H2S3H2CH2Fe2S2FeCHFeSC2S2C2FeS2CFeS2FeS2FeSFeS3HC6H2CHC6H3C7H4C6H4C5SH2NH8CFeH2C2FeSCNH2CSH4CHNC6H8NSNFeSC2H2C6HC2H3FeCSHC2HCH6CSH3C2HCHCH3FeS2FeS2FeSFeS3FeS2FeCFeCS2CHSC2HCHC2HC6H6Fe2H2SHC5H3CH3C3H2C2HC4HSCH2CHC2HNHNSFeC2HCSH2C2HCHNHCH2SC2HCNH2CHCH2C2HNC6H4CHC2HNCSH3CSHC2H6C2HSHCHCFeS2FeSFeSFeSH2FeS2FeS2FeSFeS3FeS2FeSFeSFeS3C2NH2C8H2SHC6H4C9H4C6H4C6H4C6H6CH4CSCSCH3CFeHCHCNHCSCH2C2HCH4NC6H10NC2HFeH5CHCHC3NH3CSC3HSC2NSH2CHSCHCH4CH2FeSHFeH2SCH2FeSH2SFeS2H2CFeC2HS2FeS2FeS2FeSFeS3NC6H4C6H4C6H6FeC2SCH2CH2C3H2CH3C2H2SFeH5CSC2H2NC6H3C2H3NC6H5SHCHCNC5H2SH2CHC2H3FeC2FeCFeSC2HCSHFeS2FeS2FeSFeS3FeS2FeSFeCS2C6H6NH2CH2C3NHCHC6H7CHSNC2HC4HC3H3SCH3CHC3SNHNCFeH3CH2SCSC2HCHC2H2CH3C2H2C5H4C2H3C2H5SFeS2FeS2FeSFeS3FeHSFeHSFeSCS2HS2FeS2FeS2Fe2S3C2NFeHNHFeHC3HC6H3C7H4C6HCH2C6H4C6H4C6H3CNC4HCHCH7CHNC2HC3H7C2SCHCH3CH3CNC6H7NC2HCHSC2H3CH2SH2CH2CNH3FeSH3SCHSH2C7H2C5HSHFeSHC2HCHCFeS2FeS2FeSFeS3FeS2FeHFeCS2FeS2FeS2FeSFeS3FeS2FeHFeHS2H3C2SC2HC6H5C2HC4H2SHC6H4CHCH2C6H4C6H3NC4SH3Fe2CHCH4C2H6CHCH4NC6H8C2HCNC6H9CH4C3H2C4HCSCNC2NHCHC3HC2HCHNCH2S2CHC2HCH3SH3SC2S2CH5CHC3HNH2NCFeC3HC2H2CHC6H2NCNCH2CHC4NH3CHC3FeC2H3CHCH3C2HCH2CH4CH3CSH
_chemical_formula_sum              "Fe112 S224 H672 C672 N56"
_cell_length_a       49.5548
_cell_length_b       49.8481
_cell_length_c       63.2367
_cell_angle_alpha    87.7811
_cell_angle_beta     87.968
_cell_angle_gamma    120.036

_space_group_name_H-M_alt    "P 1"
_space_group_IT_number       1

loop_
  _space_group_symop_operation_xyz
  'x, y, z'

loop_
  _atom_site_type_symbol
  _atom_site_label
  _atom_site_symmetry_multiplicity
  _atom_site_fract_x
  _atom_site_fract_y
  _atom_site_fract_z
  _atom_site_occupancy
  Fe  Fe1       1.0  0.47088  0.24755  0.32369  1.0000
  Fe  Fe2       1.0  0.23725  0.46322  0.32613  1.0000
  S   S1        1.0  0.48692  0.21293  0.31969  1.0000
  H   H1        1.0  0.11262  0.35240  0.32876  1.0000
  S   S2        1.0  0.48866  0.27094  0.29084  1.0000
  S   S3        1.0  0.23270  0.48842  0.29718  1.0000
  S   S4        1.0  0.28953  0.48623  0.32159  1.0000
  S   S5        1.0  0.20596  0.41119  0.33253  1.0000
  Fe  Fe3       1.0  0.15490  0.29782  0.43308  1.0000
  S   S6        1.0  0.12783  0.26418  0.40905  1.0000
  S   S7        1.0  0.19284  0.34746  0.42431  1.0000
  Fe  Fe4       1.0  0.12010  0.24971  0.47049  1.0000
  S   S8        1.0  0.09007  0.21283  0.44900  1.0000
  S   S9        1.0  0.11460  0.23318  0.50491  1.0000
  Fe  Fe5       1.0  0.13487  0.22999  0.42909  1.0000
  S   S10       1.0  0.14802  0.19661  0.41507  1.0000
  Fe  Fe6       1.0  0.08627  0.25068  0.43153  1.0000
  S   S11       1.0  0.04364  0.25237  0.42212  1.0000
  S   S12       1.0  0.16505  0.26486  0.45155  1.0000
  S   S13       1.0  0.11303  0.28648  0.45466  1.0000
  Fe  Fe7       1.0  0.11859  0.29860  0.61306  1.0000
  S   S14       1.0  0.10929  0.25128  0.62356  1.0000
  S   S15       1.0  0.11115  0.31174  0.58013  1.0000
  Fe  Fe8       1.0  0.08779  0.25757  0.65332  1.0000
  H   H2        1.0  0.37480  0.22462  0.36979  1.0000
  Fe  Fe9       1.0  0.15461  0.27628  0.63922  1.0000
  S   S16       1.0  0.19208  0.26542  0.62891  1.0000
  S   S17       1.0  0.09379  0.30333  0.64169  1.0000
  S   S18       1.0  0.16529  0.32369  0.62672  1.0000
  Fe  Fe10      1.0  0.26923  0.14723  0.44697  1.0000
  S   S19       1.0  0.31735  0.15545  0.45294  1.0000
  S   S20       1.0  0.26338  0.18930  0.44824  1.0000
  Fe  Fe11      1.0  0.24174  0.07748  0.44501  1.0000
  S   S21       1.0  0.28731  0.08048  0.45096  1.0000
  S   S22       1.0  0.19768  0.03213  0.44019  1.0000
  Fe  Fe12      1.0  0.29174  0.11339  0.47553  1.0000
  S   S23       1.0  0.30714  0.10771  0.50772  1.0000
  Fe  Fe13      1.0  0.30851  0.12201  0.42770  1.0000
  S   S24       1.0  0.34357  0.12194  0.40375  1.0000
  S   S25       1.0  0.24435  0.10735  0.47147  1.0000
  S   S26       1.0  0.26236  0.11697  0.41983  1.0000
  Fe  Fe14      1.0  0.28265  0.16292  0.61310  1.0000
  S   S27       1.0  0.23813  0.12472  0.62917  1.0000
  S   S28       1.0  0.28368  0.17986  0.57938  1.0000
  Fe  Fe15      1.0  0.26848  0.10787  0.64311  1.0000
  H   H3        1.0  0.34247  0.17918  0.39518  1.0000
  H   H4        1.0  0.19048  0.02308  0.39333  1.0000
  H   H5        1.0  0.42355  0.17985  0.34622  1.0000
  S   S29       1.0  0.31233  0.14428  0.62496  1.0000
  S   S30       1.0  0.29363  0.19509  0.63933  1.0000
  C   C1        1.0  0.30186  0.12893  0.52729  1.0000
  C   C2        1.0  0.29126  0.14951  0.52231  1.0000
  C   C3        1.0  0.28545  0.16485  0.53846  1.0000
  C   C4        1.0  0.29008  0.15954  0.55960  1.0000
  C   C5        1.0  0.30088  0.13912  0.56452  1.0000
  C   C6        1.0  0.30709  0.12412  0.54836  1.0000
  H   H6        1.0  0.28732  0.15344  0.50604  1.0000
  H   H7        1.0  0.27723  0.18077  0.53454  1.0000
  H   H8        1.0  0.30453  0.13489  0.58074  1.0000
  H   H9        1.0  0.31529  0.10818  0.55225  1.0000
  C   C7        1.0  0.24930  0.04695  0.56029  1.0000
  H   H10       1.0  0.08823  0.31948  0.41987  1.0000
  H   H11       1.0  0.17445  0.34743  0.34822  1.0000
  H   H12       1.0  0.24520  0.01756  0.45238  1.0000
  H   H13       1.0  0.22152  0.06171  0.39489  1.0000
  C   C8        1.0  0.19746  0.23658  0.64185  1.0000
  C   C9        1.0  0.21745  0.22798  0.63184  1.0000
  C   C10       1.0  0.22312  0.20570  0.64167  1.0000
  H   H14       1.0  0.37624  0.18756  0.55264  1.0000
  H   H15       1.0  0.22862  0.23859  0.61638  1.0000
  H   H16       1.0  0.23819  0.19902  0.63360  1.0000
  C   C11       1.0  0.42812  0.18983  0.41076  1.0000
  C   C12       1.0  0.47974  0.22218  0.38242  1.0000
  H   H17       1.0  0.33412  0.22913  0.54935  1.0000
  N   N1        1.0  0.11069  0.34209  0.38981  1.0000
  C   C13       1.0  0.12837  0.37099  0.37974  1.0000
  C   C14       1.0  0.00864  0.21812  0.41781  1.0000
  H   H18       1.0  0.02974  0.19017  0.41199  1.0000
  C   C15       1.0  0.17732  0.19178  0.42682  1.0000
  C   C16       1.0  0.18204  0.16734  0.42124  1.0000
  C   C17       1.0  0.20760  0.16533  0.42846  1.0000
  C   C18       1.0  0.22876  0.18804  0.44108  1.0000
  C   C19       1.0  0.22359  0.21194  0.44705  1.0000
  C   C20       1.0  0.19791  0.21366  0.44009  1.0000
  H   H19       1.0  0.16624  0.15027  0.41096  1.0000
  H   H20       1.0  0.21143  0.14680  0.42377  1.0000
  H   H21       1.0  0.23987  0.22955  0.45681  1.0000
  H   H22       1.0  0.19496  0.23271  0.44433  1.0000
  C   C21       1.0  0.11192  0.25476  0.52535  1.0000
  C   C22       1.0  0.11435  0.28367  0.52122  1.0000
  C   C23       1.0  0.11372  0.30086  0.53816  1.0000
  C   C24       1.0  0.11115  0.28943  0.55921  1.0000
  C   C25       1.0  0.10863  0.26048  0.56324  1.0000
  C   C26       1.0  0.10878  0.24312  0.54638  1.0000
  H   H23       1.0  0.11688  0.29283  0.50503  1.0000
  H   H24       1.0  0.11562  0.32325  0.53494  1.0000
  H   H25       1.0  0.10660  0.25135  0.57929  1.0000
  H   H26       1.0  0.10703  0.22080  0.54961  1.0000
  C   C27       1.0  0.20420  0.39379  0.35781  1.0000
  C   C28       1.0  0.18603  0.36137  0.36126  1.0000
  C   C29       1.0  0.18219  0.34691  0.38156  1.0000
  C   C30       1.0  0.19708  0.36473  0.39852  1.0000
  C   C31       1.0  0.21579  0.39709  0.39497  1.0000
  C   C32       1.0  0.21920  0.41162  0.37473  1.0000
  H   H27       1.0  0.23567  0.21291  0.39249  1.0000
  H   H28       1.0  0.16779  0.32202  0.38397  1.0000
  H   H29       1.0  0.22751  0.41104  0.40798  1.0000
  H   H30       1.0  0.23334  0.43660  0.37224  1.0000
  C   C33       1.0  0.36442  0.15359  0.38493  1.0000
  C   C34       1.0  0.38712  0.15377  0.37088  1.0000
  C   C35       1.0  0.40589  0.17974  0.35682  1.0000
  C   C36       1.0  0.40159  0.20542  0.35644  1.0000
  C   C37       1.0  0.37829  0.20484  0.37009  1.0000
  C   C38       1.0  0.35992  0.17913  0.38444  1.0000
  H   H31       1.0  0.39059  0.13399  0.37113  1.0000
  H   H32       1.0  0.03882  0.20276  0.62030  1.0000
  H   H33       1.0  0.08079  0.29982  0.34732  1.0000
  H   H34       1.0  0.11769  0.35951  0.42077  1.0000
  H   H35       1.0  0.25350  0.04032  0.59374  1.0000
  C   C39       1.0  0.43667  0.21983  0.40307  1.0000
  N   N2        1.0  0.36348  0.21806  0.56695  1.0000
  C   C40       1.0  0.37463  0.19787  0.56710  1.0000
  C   C41       1.0  0.36087  0.23056  0.58527  1.0000
  C   C42       1.0  0.36970  0.22306  0.60438  1.0000
  C   C43       1.0  0.38127  0.20267  0.60466  1.0000
  C   C44       1.0  0.35566  0.22760  0.54693  1.0000
  H   H36       1.0  0.35132  0.24596  0.58524  1.0000
  H   H37       1.0  0.36718  0.23259  0.61898  1.0000
  H   H38       1.0  0.38777  0.19639  0.61950  1.0000
  H   H39       1.0  0.37521  0.25054  0.54069  1.0000
  H   H40       1.0  0.35080  0.21044  0.53478  1.0000
  C   C45       1.0  0.24584  0.05083  0.58177  1.0000
  H   H41       1.0  0.08042  0.29371  0.38635  1.0000
  C   C46       1.0  0.18301  0.22262  0.66181  1.0000
  Fe  Fe16      1.0  0.25130  0.15549  0.65651  1.0000
  H   H42       1.0  0.43789  0.15263  0.40922  1.0000
  H   H43       1.0  0.29120  0.99707  0.40622  1.0000
  H   H44       1.0  0.21345  0.09654  0.57723  1.0000
  H   H45       1.0  0.27559  0.07333  0.39425  1.0000
  H   H46       1.0  0.19088  0.07680  0.53323  1.0000
  C   C47       1.0  0.48881  0.17836  0.38203  1.0000
  C   C48       1.0  0.22794  0.02536  0.64508  1.0000
  H   H47       1.0  0.42257  0.22999  0.40757  1.0000
  C   C49       1.0  0.11143  0.33786  0.41279  1.0000
  C   C50       1.0  0.00296  0.19803  0.46895  1.0000
  C   C51       1.0  0.20931  0.19219  0.66181  1.0000
  C   C52       1.0  0.09386  0.31674  0.37840  1.0000
  C   C53       1.0  0.20403  0.02327  0.65874  1.0000
  H   H48       1.0  0.46898  0.25917  0.38223  1.0000
  N   N3        1.0  0.23003  0.25253  0.39463  1.0000
  C   C54       1.0  0.21010  0.26358  0.39132  1.0000
  C   C55       1.0  0.25411  0.26708  0.40762  1.0000
  C   C56       1.0  0.21382  0.28966  0.40133  1.0000
  C   C57       1.0  0.25823  0.29300  0.41810  1.0000
  C   C58       1.0  0.23792  0.30434  0.41487  1.0000
  C   C59       1.0  0.22638  0.22580  0.38344  1.0000
  H   H49       1.0  0.19077  0.25180  0.38124  1.0000
  H   H50       1.0  0.26974  0.25813  0.41040  1.0000
  H   H51       1.0  0.19796  0.29834  0.39879  1.0000
  H   H52       1.0  0.27691  0.30404  0.42875  1.0000
  H   H53       1.0  0.24062  0.32435  0.42290  1.0000
  N   N4        1.0  0.23584  0.02801  0.39271  1.0000
  H   H54       1.0  0.20123  0.20896  0.38165  1.0000
  H   H55       1.0  0.23885  0.23365  0.36752  1.0000
  C   C60       1.0  0.38352  0.18974  0.58596  1.0000
  H   H56       1.0  0.22975  0.07146  0.60454  1.0000
  H   H57       1.0  0.00564  0.15848  0.45958  1.0000
  C   C61       1.0  0.03202  0.23977  0.59279  1.0000
  H   H58       1.0  0.05646  0.24761  0.59472  1.0000
  C   C62       1.0  0.28695  0.03768  0.40051  1.0000
  H   H59       1.0  0.39182  0.17331  0.58612  1.0000
  H   H60       1.0  0.22837  0.43883  0.66929  1.0000
  H   H61       1.0  0.21983  0.11541  0.54000  1.0000
  H   H62       1.0  0.03104  0.26225  0.64238  1.0000
  H   H63       1.0  0.31118  0.05407  0.40313  1.0000
  N   N5        1.0  0.47072  0.19246  0.38955  1.0000
  C   C63       1.0  0.21610  0.09258  0.53531  1.0000
  H   H64       1.0  0.14349  0.39798  0.34968  1.0000
  C   C64       1.0  0.00712  0.21616  0.65747  1.0000
  N   N6        1.0  0.18414  0.27881  0.56358  1.0000
  C   C65       1.0  0.18575  0.28779  0.54263  1.0000
  C   C66       1.0  0.18233  0.25119  0.56936  1.0000
  C   C67       1.0  0.18469  0.26845  0.52683  1.0000
  C   C68       1.0  0.18100  0.23120  0.55397  1.0000
  C   C69       1.0  0.18188  0.23983  0.53258  1.0000
  C   C70       1.0  0.18461  0.29882  0.58008  1.0000
  H   H65       1.0  0.18667  0.30943  0.53803  1.0000
  H   H66       1.0  0.18143  0.24430  0.58602  1.0000
  H   H67       1.0  0.18449  0.27493  0.51026  1.0000
  H   H68       1.0  0.17887  0.20901  0.55863  1.0000
  H   H69       1.0  0.17984  0.22420  0.52044  1.0000
  H   H70       1.0  0.16625  0.28476  0.59279  1.0000
  H   H71       1.0  0.20760  0.30995  0.58727  1.0000
  H   H72       1.0  0.17967  0.31702  0.57391  1.0000
  C   C71       1.0  0.09399  0.32004  0.35631  1.0000
  H   H73       1.0  0.12901  0.33099  0.41622  1.0000
  C   C72       1.0  0.26659  0.04847  0.39559  1.0000
  H   H74       1.0  0.21575  0.04375  0.36980  1.0000
  H   H75       1.0  0.22927  0.09699  0.51974  1.0000
  C   C73       1.0  0.23942  0.06090  0.54518  1.0000
  H   H76       1.0  0.14304  0.39086  0.38862  1.0000
  H   H77       1.0  0.24326  0.99985  0.62618  1.0000
  H   H78       1.0  0.40730  0.17654  0.42130  1.0000
  C   C74       1.0  0.22329  0.08243  0.57234  1.0000
  N   N7        1.0  0.22697  0.07869  0.55130  1.0000
  C   C75       1.0  0.46267  0.23618  0.38883  1.0000
  C   C76       1.0  0.22481  0.99671  0.39394  1.0000
  S   S31       1.0  0.26285  0.06064  0.63869  1.0000
  C   C77       1.0  0.00815  0.19064  0.41325  1.0000
  Fe  Fe17      1.0  0.31947  0.17287  0.65288  1.0000
  H   H79       1.0  0.04226  0.28323  0.57686  1.0000
  C   C78       1.0  0.22486  0.99841  0.63675  1.0000
  C   C79       1.0  0.44541  0.17633  0.40370  1.0000
  H   H80       1.0  0.02812  0.21312  0.46862  1.0000
  C   C80       1.0  0.23261  0.06851  0.58786  1.0000
  C   C81       1.0  0.11164  0.34948  0.34593  1.0000
  C   C82       1.0  0.02408  0.26008  0.58266  1.0000
  C   C83       1.0  0.12879  0.37516  0.35770  1.0000
  H   H81       1.0  0.24260  0.05814  0.52848  1.0000
  Fe  Fe18      1.0  0.13993  0.32429  0.65657  1.0000
  C   C84       1.0  0.21492  0.03971  0.38725  1.0000
  S   S32       1.0  0.42544  0.23901  0.33974  1.0000
  C   C85       1.0  0.00886  0.24155  0.64600  1.0000
  H   H82       1.0  0.25987  0.03352  0.55533  1.0000
  S   S33       1.0  0.04113  0.21748  0.66628  1.0000
  S   S34       1.0  0.36815  0.20598  0.66266  1.0000
  H   H83       1.0  0.20623  0.04399  0.66522  1.0000
  H   H84       1.0  0.08781  0.35605  0.66945  1.0000
  H   H85       1.0  0.47691  0.15307  0.38649  1.0000
  H   H86       1.0  0.49232  0.18138  0.36443  1.0000
  C   C86       1.0  0.01824  0.18971  0.61076  1.0000
  H   H87       1.0  0.02398  0.17749  0.59866  1.0000
  N   N8        1.0  0.00931  0.21071  0.60041  1.0000
  C   C87       1.0  0.27578  0.00578  0.40214  1.0000
  H   H88       1.0  0.16754  0.22910  0.66964  1.0000
  H   H89       1.0  0.99918  0.17231  0.62204  1.0000
  C   C88       1.0  0.19800  0.99692  0.44301  1.0000
  H   H90       1.0  0.24548  0.49502  0.67042  1.0000
  C   C89       1.0  0.04824  0.25938  0.70763  1.0000
  C   C90       1.0  0.31711  0.19347  0.73547  1.0000
  H   H91       1.0  0.00536  0.24847  0.69342  1.0000
  H   H92       1.0  0.36561  0.25593  0.68754  1.0000
  Fe  Fe19      1.0  0.45798  0.22324  0.76488  1.0000
  S   S35       1.0  0.40968  0.19022  0.75404  1.0000
  C   C91       1.0  0.43386  0.12649  0.75224  1.0000
  N   N9        1.0  0.45894  0.14930  0.73729  1.0000
  H   H93       1.0  0.42133  0.10367  0.74517  1.0000
  C   C92       1.0  0.29031  0.20484  0.70104  1.0000
  C   C93       1.0  0.34058  0.24938  0.68788  1.0000
  C   C94       1.0  0.28528  0.17418  0.73298  1.0000
  H   H94       1.0  0.04068  0.23532  0.71226  1.0000
  H   H95       1.0  0.33834  0.26971  0.69183  1.0000
  C   C95       1.0  0.27171  0.17997  0.71574  1.0000
  C   C96       1.0  0.02843  0.26676  0.69694  1.0000
  H   H96       1.0  0.17818  0.19011  0.68735  1.0000
  Fe  Fe20      1.0  0.23123  0.46634  0.76596  1.0000
  S   S36       1.0  0.21579  0.41697  0.75780  1.0000
  C   C97       1.0  0.28361  0.44118  0.72707  1.0000
  S   S37       1.0  0.48776  0.20274  0.77363  1.0000
  H   H97       1.0  0.44325  0.12384  0.76741  1.0000
  H   H98       1.0  0.26654  0.41591  0.72973  1.0000
  C   C98       1.0  0.25437  0.43896  0.69603  1.0000
  C   C99       1.0  0.28326  0.48697  0.71187  1.0000
  H   H99       1.0  0.02386  0.30297  0.68110  1.0000
  H   H100      1.0  0.24693  0.16523  0.71364  1.0000
  H   H101      1.0  0.35982  0.23279  0.72241  1.0000
  H   H102      1.0  0.28519  0.45098  0.74279  1.0000
  N   N10       1.0  0.27313  0.45594  0.71146  1.0000
  C   C100      1.0  0.18909  0.20059  0.67181  1.0000
  C   C101      1.0  0.16963  0.38165  0.69551  1.0000
  C   C102      1.0  0.17299  0.40925  0.70293  1.0000
  C   C103      1.0  0.18656  0.41997  0.72220  1.0000
  C   C104      1.0  0.19673  0.40304  0.73427  1.0000
  C   C105      1.0  0.19269  0.37499  0.72710  1.0000
  C   C106      1.0  0.17924  0.36432  0.70771  1.0000
  H   H103      1.0  0.16537  0.42264  0.69364  1.0000
  H   H104      1.0  0.18916  0.44134  0.72769  1.0000
  H   H105      1.0  0.20037  0.36170  0.73645  1.0000
  H   H106      1.0  0.17660  0.34291  0.70215  1.0000
  S   S38       1.0  0.46601  0.24825  0.79504  1.0000
  H   H107      1.0  0.09882  0.36962  0.69541  1.0000
  H   H108      1.0  0.42347  0.24402  0.68409  1.0000
  S   S39       1.0  0.21512  0.48010  0.79537  1.0000
  N   N11       1.0  0.32163  0.22322  0.70334  1.0000
  C   C107      1.0  0.45266  0.16615  0.72273  1.0000
  H   H109      1.0  0.11121  0.33164  0.70777  1.0000
  C   C108      1.0  0.39869  0.19491  0.72851  1.0000
  C   C109      1.0  0.37011  0.17170  0.72169  1.0000
  C   C110      1.0  0.36065  0.17456  0.70141  1.0000
  C   C111      1.0  0.37977  0.20070  0.68781  1.0000
  C   C112      1.0  0.40852  0.22372  0.69453  1.0000
  C   C113      1.0  0.41798  0.22085  0.71480  1.0000
  H   H110      1.0  0.35518  0.15143  0.73215  1.0000
  H   H111      1.0  0.33852  0.15661  0.69636  1.0000
  S   S40       1.0  0.27794  0.13520  0.67227  1.0000
  H   H112      1.0  0.44006  0.23885  0.71986  1.0000
  H   H113      1.0  0.27950  0.20919  0.68770  1.0000
  C   C114      1.0  0.08785  0.31357  0.70475  1.0000
  H   H114      1.0  0.42924  0.16248  0.72207  1.0000
  H   H115      1.0  0.06020  0.35830  0.68787  1.0000
  N   N12       1.0  0.06828  0.32063  0.69425  1.0000
  H   H116      1.0  0.27114  0.15478  0.74438  1.0000
  H   H117      1.0  0.24641  0.41439  0.69561  1.0000
  C   C115      1.0  0.33500  0.21817  0.72048  1.0000
  C   C116      1.0  0.03905  0.29762  0.69003  1.0000
  H   H118      1.0  0.09402  0.27732  0.71946  1.0000
  H   H119      1.0  0.32806  0.18913  0.74874  1.0000
  C   C117      1.0  0.07819  0.28288  0.71153  1.0000
  S   S41       1.0  0.21769  0.16541  0.67484  1.0000
  C   C118      1.0  0.47647  0.18894  0.70891  1.0000
  H   H120      1.0  0.30677  0.44468  0.72171  1.0000
  C   C119      1.0  0.07920  0.35269  0.68637  1.0000
  H   H121      1.0  0.47162  0.20317  0.69804  1.0000
  C   C120      1.0  0.25363  0.48415  0.68171  1.0000
  H   H122      1.0  0.41690  0.13424  0.75642  1.0000
  C   C121      1.0  0.24417  0.45272  0.68102  1.0000
  H   H123      1.0  0.33301  0.24299  0.67160  1.0000
  C   C122      1.0  0.48827  0.15313  0.73763  1.0000
  H   H124      1.0  0.48309  0.20463  0.87772  1.0000
  S   S42       1.0  0.28201  0.49620  0.77186  1.0000
  S   S43       1.0  0.49661  0.26400  0.74550  1.0000
  H   H125      1.0  0.49331  0.13968  0.74904  1.0000
  H   H126      1.0  0.49655  0.31462  0.82809  1.0000
  S   S44       1.0  0.15331  0.37001  0.67089  1.0000
  S   S45       1.0  0.13249  0.27855  0.67050  1.0000
  S   S46       1.0  0.29012  0.55202  0.31457  1.0000
  H   H127      1.0  0.25796  0.57476  0.24913  1.0000
  H   H128      1.0  0.34109  0.59236  0.33658  1.0000
  C   C123      1.0  0.26237  0.60123  0.33315  1.0000
  H   H129      1.0  0.35765  0.52783  0.29417  1.0000
  H   H130      1.0  0.30484  0.66793  0.29064  1.0000
  Fe  Fe21      1.0  0.44273  0.69071  0.30167  1.0000
  Fe  Fe22      1.0  0.24502  0.71584  0.27857  1.0000
  S   S47       1.0  0.29129  0.72354  0.28762  1.0000
  S   S48       1.0  0.22175  0.68174  0.25386  1.0000
  Fe  Fe23      1.0  0.24290  0.75838  0.31125  1.0000
  C   C124      1.0  0.36836  0.52809  0.32694  1.0000
  H   H131      1.0  0.39369  0.73378  0.18143  1.0000
  Fe  Fe24      1.0  0.30456  0.77324  0.28914  1.0000
  S   S49       1.0  0.35004  0.81212  0.27501  1.0000
  C   C125      1.0  0.39217  0.60252  0.18313  1.0000
  C   C126      1.0  0.36901  0.54203  0.30722  1.0000
  S   S50       1.0  0.25993  0.76629  0.27688  1.0000
  S   S51       1.0  0.22386  0.70686  0.31188  1.0000
  C   C127      1.0  0.39680  0.58090  0.21665  1.0000
  C   C128      1.0  0.36059  0.72634  0.03800  1.0000
  Fe  Fe25      1.0  0.46162  0.75687  0.30994  1.0000
  S   S52       1.0  0.46807  0.80136  0.29502  1.0000
  S   S53       1.0  0.41583  0.71254  0.31374  1.0000
  C   C129      1.0  0.27193  0.52412  0.23707  1.0000
  Fe  Fe26      1.0  0.33817  0.65237  0.12380  1.0000
  S   S54       1.0  0.29059  0.63728  0.13941  1.0000
  S   S55       1.0  0.35489  0.65703  0.08876  1.0000
  Fe  Fe27      1.0  0.36913  0.66709  0.16692  1.0000
  S   S56       1.0  0.32447  0.65378  0.18537  1.0000
  S   S57       1.0  0.41495  0.68611  0.18273  1.0000
  Fe  Fe28      1.0  0.30355  0.61338  0.16489  1.0000
  S   S58       1.0  0.27101  0.56588  0.18090  1.0000
  Fe  Fe29      1.0  0.31577  0.67879  0.15882  1.0000
  S   S59       1.0  0.30242  0.71430  0.16689  1.0000
  S   S60       1.0  0.34903  0.62497  0.14789  1.0000
  S   S61       1.0  0.36241  0.69575  0.14170  1.0000
  H   H132      1.0  0.45850  0.75638  0.23767  1.0000
  C   C130      1.0  0.33689  0.65016  0.06404  1.0000
  C   C131      1.0  0.30530  0.64076  0.06259  1.0000
  C   C132      1.0  0.29304  0.63908  0.04253  1.0000
  C   C133      1.0  0.31203  0.64653  0.02364  1.0000
  C   C134      1.0  0.34332  0.65473  0.02508  1.0000
  C   C135      1.0  0.35563  0.65657  0.04515  1.0000
  H   H133      1.0  0.29041  0.63534  0.07689  1.0000
  H   H134      1.0  0.26876  0.63252  0.04164  1.0000
  C   C136      1.0  0.25583  0.61506  0.25791  1.0000
  H   H135      1.0  0.38006  0.66371  0.04602  1.0000
  C   C137      1.0  0.41456  0.66427  0.25382  1.0000
  C   C138      1.0  0.38662  0.65019  0.24351  1.0000
  C   C139      1.0  0.38634  0.65748  0.22188  1.0000
  C   C140      1.0  0.41414  0.67827  0.21027  1.0000
  C   C141      1.0  0.44208  0.69267  0.22066  1.0000
  C   C142      1.0  0.39385  0.74257  0.19690  1.0000
  H   H136      1.0  0.36514  0.63351  0.25224  1.0000
  H   H137      1.0  0.36472  0.64650  0.21411  1.0000
  H   H138      1.0  0.32790  0.63506  0.31089  1.0000
  C   C143      1.0  0.22321  0.60934  0.31718  1.0000
  C   C144      1.0  0.24538  0.69086  0.23025  1.0000
  C   C145      1.0  0.24156  0.66710  0.21738  1.0000
  C   C146      1.0  0.25976  0.67409  0.19824  1.0000
  C   C147      1.0  0.28090  0.70502  0.19148  1.0000
  C   C148      1.0  0.28461  0.72883  0.20431  1.0000
  C   C149      1.0  0.26736  0.72173  0.22388  1.0000
  H   H139      1.0  0.22443  0.64323  0.22213  1.0000
  H   H140      1.0  0.25669  0.65562  0.18837  1.0000
  H   H141      1.0  0.30089  0.75278  0.19913  1.0000
  H   H142      1.0  0.27045  0.74021  0.23373  1.0000
  C   C150      1.0  0.38222  0.80827  0.28076  1.0000
  C   C151      1.0  0.41216  0.83229  0.27410  1.0000
  C   C152      1.0  0.43831  0.82976  0.27849  1.0000
  C   C153      1.0  0.43462  0.80309  0.28937  1.0000
  C   C154      1.0  0.40460  0.77878  0.29578  1.0000
  C   C155      1.0  0.37839  0.78147  0.29163  1.0000
  H   H143      1.0  0.41518  0.85303  0.26566  1.0000
  H   H144      1.0  0.46148  0.84864  0.27350  1.0000
  H   H145      1.0  0.40152  0.75837  0.30447  1.0000
  H   H146      1.0  0.35534  0.76297  0.29700  1.0000
  C   C156      1.0  0.30226  0.54363  0.24311  1.0000
  C   C157      1.0  0.32196  0.57112  0.23083  1.0000
  C   C158      1.0  0.31197  0.57860  0.21218  1.0000
  C   C159      1.0  0.28223  0.55852  0.20557  1.0000
  C   C160      1.0  0.26205  0.53143  0.21820  1.0000
  S   S62       1.0  0.41468  0.65234  0.28037  1.0000
  H   H147      1.0  0.34537  0.58626  0.23543  1.0000
  H   H148      1.0  0.32774  0.59921  0.20236  1.0000
  N   N13       1.0  0.35415  0.55008  0.19519  1.0000
  H   H149      1.0  0.28631  0.70522  0.02686  1.0000
  H   H150      1.0  0.35293  0.57185  0.16584  1.0000
  H   H151      1.0  0.39520  0.77354  0.25188  1.0000
  H   H152      1.0  0.35121  0.74342  0.19355  1.0000
  H   H153      1.0  0.37566  0.72579  0.06935  1.0000
  H   H154      1.0  0.23895  0.51576  0.21315  1.0000
  H   H155      1.0  0.43657  0.74462  0.20458  1.0000
  H   H156      1.0  0.35203  0.76351  0.22908  1.0000
  C   C161      1.0  0.36994  0.74783  0.20374  1.0000
  Fe  Fe30      1.0  0.23833  0.52444  0.31958  1.0000
  H   H157      1.0  0.30320  0.58674  0.27030  1.0000
  H   H158      1.0  0.25652  0.50277  0.24643  1.0000
  C   C162      1.0  0.44299  0.76476  0.24395  1.0000
  C   C163      1.0  0.44224  0.68603  0.24246  1.0000
  Fe  Fe31      1.0  0.27183  0.71841  0.32088  1.0000
  S   S63       1.0  0.21605  0.78250  0.32009  1.0000
  C   C164      1.0  0.30635  0.71134  0.03617  1.0000
  N   N14       1.0  0.30699  0.62830  0.28140  1.0000
  H   H159      1.0  0.36089  0.53382  0.22516  1.0000
  H   H160      1.0  0.31383  0.68413  0.09772  1.0000
  C   C165      1.0  0.26823  0.59535  0.25813  1.0000
  S   S64       1.0  0.45505  0.68138  0.33393  1.0000
  H   H161      1.0  0.34245  0.61889  0.29175  1.0000
  H   H162      1.0  0.46398  0.69681  0.25026  1.0000
  H   H163      1.0  0.40852  0.58351  0.23124  1.0000
  H   H164      1.0  0.20302  0.72023  0.22682  1.0000
  C   C166      1.0  0.29485  0.64764  0.28138  1.0000
  H   H165      1.0  0.40054  0.62199  0.17143  1.0000
  N   N15       1.0  0.17898  0.74091  0.27089  1.0000
  C   C167      1.0  0.19464  0.77248  0.26688  1.0000
  C   C168      1.0  0.18194  0.72230  0.25675  1.0000
  C   C169      1.0  0.21324  0.78609  0.24806  1.0000
  C   C170      1.0  0.20032  0.73512  0.23778  1.0000
  C   C171      1.0  0.21605  0.76721  0.23343  1.0000
  C   C172      1.0  0.16026  0.72693  0.29091  1.0000
  H   H166      1.0  0.19342  0.78739  0.27850  1.0000
  H   H167      1.0  0.17062  0.69737  0.26026  1.0000
  H   H168      1.0  0.22605  0.81114  0.24514  1.0000
  H   H169      1.0  0.25938  0.65656  0.26970  1.0000
  H   H170      1.0  0.23095  0.77744  0.21899  1.0000
  H   H171      1.0  0.15411  0.74302  0.29860  1.0000
  H   H172      1.0  0.13818  0.70530  0.28827  1.0000
  H   H173      1.0  0.36808  0.81328  0.33285  1.0000
  N   N16       1.0  0.32798  0.71439  0.07005  1.0000
  S   S65       1.0  0.31719  0.53310  0.26476  1.0000
  N   N17       1.0  0.41796  0.75896  0.22988  1.0000
  Fe  Fe32      1.0  0.28507  0.51415  0.29445  1.0000
  S   S66       1.0  0.28924  0.76930  0.32341  1.0000
  C   C173      1.0  0.41798  0.74856  0.21017  1.0000
  C   C174      1.0  0.36992  0.55285  0.21307  1.0000
  H   H174      1.0  0.46376  0.70871  0.21176  1.0000
  H   H175      1.0  0.45749  0.79005  0.24611  1.0000
  C   C175      1.0  0.38399  0.57430  0.30445  1.0000
  C   C176      1.0  0.37040  0.75905  0.22366  1.0000
  C   C177      1.0  0.39481  0.76460  0.23655  1.0000
  C   C178      1.0  0.39832  0.59225  0.32149  1.0000
  C   C179      1.0  0.29390  0.60231  0.27009  1.0000
  C   C180      1.0  0.36531  0.57420  0.18008  1.0000
  H   H176      1.0  0.41001  0.61733  0.31917  1.0000
  C   C181      1.0  0.23450  0.58957  0.32279  1.0000
  C   C182      1.0  0.33533  0.72040  0.02598  1.0000
  H   H177      1.0  0.35642  0.50298  0.32935  1.0000
  H   H178      1.0  0.43297  0.75250  0.25979  1.0000
  H   H179      1.0  0.38437  0.58533  0.28919  1.0000
  Fe  Fe33      1.0  0.49788  0.72888  0.32907  1.0000
  C   C183      1.0  0.35641  0.72294  0.06015  1.0000
  S   S67       1.0  0.21193  0.54999  0.31834  1.0000
  H   H180      1.0  0.35389  0.65906  0.28853  1.0000
  C   C184      1.0  0.26915  0.64134  0.26962  1.0000
  C   C185      1.0  0.40782  0.60590  0.20160  1.0000
  H   H181      1.0  0.42825  0.62803  0.20432  1.0000
  C   C186      1.0  0.33408  0.63564  0.29377  1.0000
  H   H182      1.0  0.35827  0.66053  0.01075  1.0000
  H   H183      1.0  0.23585  0.60991  0.24877  1.0000
  H   H184      1.0  0.20175  0.60051  0.30910  1.0000
  H   H185      1.0  0.17383  0.72148  0.30214  1.0000
  H   H186      1.0  0.33091  0.50531  0.18318  1.0000
  H   H187      1.0  0.30721  0.71652  0.09969  1.0000
  C   C187      1.0  0.30304  0.70836  0.05836  1.0000
  S   S68       1.0  0.48785  0.73566  0.29531  1.0000
  H   H188      1.0  0.31268  0.50902  0.20743  1.0000
  H   H189      1.0  0.28018  0.70020  0.06615  1.0000
  H   H190      1.0  0.22984  0.65513  0.31820  1.0000
  C   C188      1.0  0.26623  0.65173  0.33346  1.0000
  C   C189      1.0  0.32348  0.70918  0.09321  1.0000
  H   H191      1.0  0.30895  0.52545  0.18299  1.0000
  C   C190      1.0  0.32538  0.52096  0.19200  1.0000
  H   H192      1.0  0.34588  0.72246  0.10090  1.0000
  C   C191      1.0  0.23922  0.64040  0.32228  1.0000
  H   H193      1.0  0.42577  0.83636  0.32977  1.0000
  H   H194      1.0  0.38280  0.73194  0.03020  1.0000
  H   H195      1.0  0.33775  0.72123  0.00878  1.0000
  Fe  Fe34      1.0  0.11747  0.80392  0.47147  1.0000
  S   S69       1.0  0.11341  0.84503  0.46066  1.0000
  S   S70       1.0  0.10817  0.78424  0.50536  1.0000
  Fe  Fe35      1.0  0.13759  0.79527  0.42690  1.0000
  S   S71       1.0  0.13542  0.83604  0.41245  1.0000
  S   S72       1.0  0.14861  0.76116  0.41160  1.0000
  Fe  Fe36      1.0  0.15834  0.86022  0.44159  1.0000
  S   S73       1.0  0.20187  0.90705  0.44369  1.0000
  Fe  Fe37      1.0  0.09054  0.81708  0.43290  1.0000
  S   S74       1.0  0.04727  0.81465  0.42027  1.0000
  S   S75       1.0  0.16392  0.82071  0.45442  1.0000
  S   S76       1.0  0.09118  0.77466  0.44522  1.0000
  Fe  Fe38      1.0  0.14991  0.86566  0.60845  1.0000
  S   S77       1.0  0.10991  0.86922  0.62266  1.0000
  S   S78       1.0  0.16519  0.88312  0.57425  1.0000
  Fe  Fe39      1.0  0.09457  0.82244  0.63856  1.0000
  C   C192      1.0  0.20518  0.83828  0.52745  1.0000
  Fe  Fe40      1.0  0.13961  0.88822  0.65026  1.0000
  C   C193      1.0  0.19877  0.77726  0.34596  1.0000
  S   S79       1.0  0.13297  0.81757  0.62243  1.0000
  S   S80       1.0  0.18094  0.88817  0.63485  1.0000
  C   C194      1.0  0.37871  0.80077  0.33976  1.0000
  H   H196      1.0  0.07226  0.79633  0.37954  1.0000
  S   S81       1.0  0.31941  0.54225  0.36950  1.0000
  C   C195      1.0  0.06658  0.82278  0.57713  1.0000
  C   C196      1.0  0.42439  0.79676  0.34592  1.0000
  H   H197      1.0  0.22618  0.91181  0.53886  1.0000
  C   C197      1.0  0.19908  0.94086  0.44428  1.0000
  H   H198      1.0  0.26413  0.54959  0.38565  1.0000
  C   C198      1.0  0.17194  0.94100  0.43915  1.0000
  C   C199      1.0  0.00923  0.75977  0.44395  1.0000
  H   H199      1.0  0.15153  0.91968  0.43533  1.0000
  C   C200      1.0  0.12377  0.81187  0.52440  1.0000
  C   C201      1.0  0.13539  0.84337  0.51898  1.0000
  C   C202      1.0  0.14706  0.86499  0.53458  1.0000
  C   C203      1.0  0.14753  0.85524  0.55557  1.0000
  C   C204      1.0  0.13576  0.82372  0.56101  1.0000
  C   C205      1.0  0.12389  0.80207  0.54544  1.0000
  H   H200      1.0  0.13534  0.85111  0.50282  1.0000
  H   H201      1.0  0.15611  0.88936  0.53031  1.0000
  H   H202      1.0  0.13650  0.81608  0.57706  1.0000
  H   H203      1.0  0.11501  0.77770  0.54966  1.0000
  H   H204      1.0  0.04854  0.77632  0.53652  1.0000
  H   H205      1.0  0.23545  0.96021  0.40035  1.0000
  Fe  Fe41      1.0  0.43142  0.70680  0.34537  1.0000
  Fe  Fe42      1.0  0.28977  0.52228  0.34192  1.0000
  H   H206      1.0  0.23859  0.93053  0.48347  1.0000
  H   H207      1.0  0.03010  0.76256  0.45062  1.0000
  S   S82       1.0  0.04659  0.78203  0.63361  1.0000
  H   H208      1.0  0.08227  0.87179  0.57454  1.0000
  C   C206      1.0  0.18844  0.79749  0.35232  1.0000
  C   C207      1.0  0.17375  0.79337  0.37261  1.0000
  C   C208      1.0  0.16873  0.76855  0.38650  1.0000
  C   C209      1.0  0.17894  0.74825  0.38008  1.0000
  C   C210      1.0  0.19417  0.75273  0.35996  1.0000
  H   H209      1.0  0.16612  0.80922  0.37741  1.0000
  H   H210      1.0  0.17507  0.72899  0.39075  1.0000
  H   H211      1.0  0.06814  0.82218  0.59418  1.0000
  C   C211      1.0  0.22049  0.89230  0.52927  1.0000
  H   H212      1.0  0.23102  0.94277  0.50830  1.0000
  H   H213      1.0  0.33991  0.58097  0.40431  1.0000
  H   H214      1.0  0.07860  0.87335  0.53536  1.0000
  C   C212      1.0  0.41261  0.59740  0.35853  1.0000
  C   C213      1.0  0.19823  0.96946  0.64212  1.0000
  C   C214      1.0  0.17146  0.96903  0.43846  1.0000
  H   H215      1.0  0.04996  0.75012  0.56800  1.0000
  H   H216      1.0  0.19927  0.81604  0.53518  1.0000
  C   C215      1.0  0.34630  0.59587  0.38992  1.0000
  C   C216      1.0  0.07428  0.85081  0.56611  1.0000
  H   H217      1.0  0.06127  0.82503  0.51642  1.0000
  C   C217      1.0  0.06716  0.72935  0.39899  1.0000
  C   C218      1.0  0.05515  0.79699  0.54505  1.0000
  C   C219      1.0  0.21461  0.86421  0.53931  1.0000
  C   C220      1.0  0.34666  0.60220  0.35177  1.0000
  H   H218      1.0  0.24652  0.96873  0.45304  1.0000
  S   S83       1.0  0.47487  0.75364  0.34309  1.0000
  C   C221      1.0  0.27817  0.63228  0.33855  1.0000
  H   H219      1.0  0.08189  0.71984  0.40325  1.0000
  H   H220      1.0  0.37007  0.63816  0.40613  1.0000
  C   C222      1.0  0.33800  0.58278  0.37035  1.0000
  H   H221      1.0  0.20194  0.73697  0.35519  1.0000
  C   C223      1.0  0.20903  0.74982  0.66868  1.0000
  C   C224      1.0  0.22186  0.92340  0.49757  1.0000
  H   H222      1.0  0.41544  0.75385  0.36170  1.0000
  N   N18       1.0  0.39705  0.57835  0.34089  1.0000
  H   H223      1.0  0.02770  0.75801  0.58765  1.0000
  N   N19       1.0  0.21737  0.89452  0.50794  1.0000
  S   S84       1.0  0.39750  0.68767  0.37374  1.0000
  Fe  Fe43      1.0  0.16035  0.84016  0.65046  1.0000
  C   C225      1.0  0.20869  0.86936  0.49614  1.0000
  C   C226      1.0  0.24457  0.98511  0.39869  1.0000
  H   H224      1.0  0.10599  0.77398  0.38796  1.0000
  C   C227      1.0  0.35358  0.72354  0.36779  1.0000
  S   S85       1.0  0.19631  0.82926  0.66315  1.0000
  H   H225      1.0  0.06878  0.77244  0.58997  1.0000
  H   H226      1.0  0.19923  0.91971  0.49206  1.0000
  C   C228      1.0  0.20230  0.84083  0.50571  1.0000
  C   C229      1.0  0.06188  0.77225  0.38545  1.0000
  H   H227      1.0  0.43696  0.60204  0.35869  1.0000
  C   C230      1.0  0.07220  0.85166  0.54416  1.0000
  H   H228      1.0  0.19993  0.61623  0.36240  1.0000
  N   N20       1.0  0.05774  0.79651  0.56653  1.0000
  H   H229      1.0  0.02421  0.68792  0.40918  1.0000
  C   C231      1.0  0.36005  0.77094  0.34952  1.0000
  H   H230      1.0  0.15059  0.96916  0.43412  1.0000
  H   H231      1.0  0.20599  0.87118  0.47929  1.0000
  S   S86       1.0  0.23792  0.49713  0.34864  1.0000
  C   C232      1.0  0.37309  0.64755  0.37235  1.0000
  C   C233      1.0  0.01259  0.78311  0.64109  1.0000
  H   H232      1.0  0.19624  0.94906  0.63548  1.0000
  C   C234      1.0  0.22536  0.96859  0.44922  1.0000
  N   N21       1.0  0.01623  0.72385  0.39735  1.0000
  H   H233      1.0  0.41307  0.61991  0.35721  1.0000
  H   H234      1.0  0.27085  0.58600  0.33810  1.0000
  C   C235      1.0  0.36333  0.62819  0.39096  1.0000
  H   H235      1.0  0.19424  0.82061  0.49643  1.0000
  C   C236      1.0  0.17478  0.96696  0.65637  1.0000
  H   H236      1.0  0.21580  0.86225  0.55637  1.0000
  H   H237      1.0  0.19786  0.61824  0.39092  1.0000
  C   C237      1.0  0.05057  0.76773  0.57853  1.0000
  C   C238      1.0  0.06237  0.82456  0.53355  1.0000
  H   H238      1.0  0.39980  0.58561  0.37396  1.0000
  N   N22       1.0  0.22738  0.60186  0.37945  1.0000
  C   C239      1.0  0.25600  0.61334  0.38771  1.0000
  C   C240      1.0  0.21119  0.57166  0.37412  1.0000
  C   C241      1.0  0.26963  0.59474  0.39007  1.0000
  C   C242      1.0  0.22399  0.55237  0.37647  1.0000
  C   C243      1.0  0.25353  0.56408  0.38432  1.0000
  C   C244      1.0  0.21351  0.62167  0.37682  1.0000
  H   H239      1.0  0.26892  0.63732  0.39184  1.0000
  H   H240      1.0  0.18873  0.56261  0.36723  1.0000
  H   H241      1.0  0.29276  0.60419  0.39597  1.0000
  H   H242      1.0  0.21134  0.52877  0.37159  1.0000
  C   C245      1.0  0.03464  0.71156  0.40238  1.0000
  H   H243      1.0  0.23181  0.64664  0.37460  1.0000
  C   C246      1.0  0.40504  0.76712  0.35577  1.0000
  C   C247      1.0  0.36461  0.63457  0.35274  1.0000
  H   H244      1.0  0.35050  0.70597  0.35636  1.0000
  N   N23       1.0  0.37336  0.75482  0.35774  1.0000
  C   C248      1.0  0.01147  0.79989  0.65801  1.0000
  S   S87       1.0  0.14337  0.93018  0.66560  1.0000
  H   H245      1.0  0.21954  0.76807  0.65603  1.0000
  H   H246      1.0  0.29915  0.64092  0.34716  1.0000
  H   H247      1.0  0.38105  0.53562  0.35915  1.0000
  C   C249      1.0  0.08078  0.75985  0.39041  1.0000
  S   S88       1.0  0.12066  0.84138  0.66795  1.0000
  H   H248      1.0  0.36433  0.71998  0.38197  1.0000
  C   C250      1.0  0.02944  0.75377  0.38892  1.0000
  C   C251      1.0  0.01087  0.78264  0.42959  1.0000
  H   H249      1.0  0.33017  0.71946  0.37317  1.0000
  H   H250      1.0  0.19200  0.81655  0.34157  1.0000
  H   H251      1.0  0.33484  0.76061  0.35029  1.0000
  H   H252      1.0  0.25383  0.95139  0.66641  1.0000
  H   H253      1.0  0.20039  0.98045  0.39184  1.0000
  H   H254      1.0  0.03248  0.81445  0.66594  1.0000
  C   C252      1.0  0.17759  0.99403  0.66450  1.0000
  C   C253      1.0  0.38250  0.54670  0.34371  1.0000
  H   H255      1.0  0.44945  0.80615  0.34380  1.0000
  S   S89       1.0  0.28372  0.68938  0.34233  1.0000
  H   H256      1.0  0.37230  0.64944  0.33830  1.0000
  C   C254      1.0  0.41109  0.81376  0.33804  1.0000
  H   H257      1.0  0.01505  0.76391  0.38537  1.0000
  C   C255      1.0  0.22476  0.99645  0.44870  1.0000
  Fe  Fe44      1.0  0.45858  0.74409  0.79715  1.0000
  S   S90       1.0  0.42087  0.70538  0.78064  1.0000
  S   S91       1.0  0.44336  0.75860  0.82643  1.0000
  Fe  Fe45      1.0  0.21777  0.51792  0.77332  1.0000
  S   S92       1.0  0.47523  0.71584  0.74426  1.0000
  Fe  Fe46      1.0  0.44397  0.73544  0.75098  1.0000
  S   S93       1.0  0.41257  0.73709  0.72701  1.0000
  Fe  Fe47      1.0  0.45548  0.68968  0.77576  1.0000
  S   S94       1.0  0.43842  0.63917  0.78213  1.0000
  H   H258      1.0  0.36161  0.56835  0.83674  1.0000
  H   H259      1.0  0.31149  0.55333  0.92359  1.0000
  Fe  Fe48      1.0  0.28752  0.76252  0.76487  1.0000
  S   S95       1.0  0.25027  0.76007  0.78762  1.0000
  S   S96       1.0  0.33816  0.79843  0.76473  1.0000
  Fe  Fe49      1.0  0.24436  0.70107  0.74705  1.0000
  S   S97       1.0  0.20380  0.69369  0.76805  1.0000
  S   S98       1.0  0.24202  0.66571  0.72519  1.0000
  Fe  Fe50      1.0  0.22040  0.74391  0.75941  1.0000
  S   S99       1.0  0.18246  0.75412  0.75006  1.0000
  Fe  Fe51      1.0  0.23744  0.71016  0.79371  1.0000
  S   S100      1.0  0.22619  0.67785  0.82272  1.0000
  S   S101      1.0  0.25889  0.75006  0.73634  1.0000
  S   S102      1.0  0.27690  0.71413  0.77310  1.0000
  Fe  Fe52      1.0  0.28953  0.61671  0.92327  1.0000
  S   S103      1.0  0.32368  0.65706  0.90180  1.0000
  S   S104      1.0  0.25456  0.57146  0.91005  1.0000
  Fe  Fe53      1.0  0.31195  0.65286  0.96372  1.0000
  S   S105      1.0  0.34813  0.69641  0.94459  1.0000
  Fe  Fe54      1.0  0.31073  0.68546  0.92162  1.0000
  S   S106      1.0  0.30129  0.72092  0.90540  1.0000
  Fe  Fe55      1.0  0.35777  0.66400  0.92605  1.0000
  S   S107      1.0  0.40250  0.67032  0.91056  1.0000
  S   S108      1.0  0.27386  0.64457  0.94167  1.0000
  S   S109      1.0  0.32437  0.62113  0.94668  1.0000
  C   C256      1.0  0.24490  0.53163  0.87888  1.0000
  C   C257      1.0  0.31399  0.62642  0.79414  1.0000
  N   N24       1.0  0.32584  0.65031  0.75872  1.0000
  H   H260      1.0  0.30493  0.60609  0.87735  1.0000
  H   H261      1.0  0.20828  0.63371  0.88982  1.0000
  C   C258      1.0  0.27974  0.54331  0.84762  1.0000
  C   C259      1.0  0.19133  0.57186  0.83054  1.0000
  C   C260      1.0  0.18730  0.77715  0.72674  1.0000
  C   C261      1.0  0.16169  0.77909  0.71972  1.0000
  C   C262      1.0  0.16429  0.79580  0.70055  1.0000
  C   C263      1.0  0.19261  0.81073  0.68832  1.0000
  C   C264      1.0  0.21842  0.80950  0.69562  1.0000
  C   C265      1.0  0.21577  0.79269  0.71471  1.0000
  H   H262      1.0  0.13962  0.76721  0.72901  1.0000
  H   H263      1.0  0.14422  0.79652  0.69504  1.0000
  S   S110      1.0  0.49181  0.72603  0.79471  1.0000
  H   H264      1.0  0.23573  0.79169  0.72007  1.0000
  C   C266      1.0  0.28101  0.70934  0.88208  1.0000
  C   C267      1.0  0.27288  0.72908  0.87116  1.0000
  C   C268      1.0  0.25753  0.72047  0.85218  1.0000
  C   C269      1.0  0.24997  0.69190  0.84423  1.0000
  C   C270      1.0  0.25864  0.67252  0.85492  1.0000
  C   C271      1.0  0.27383  0.68106  0.87384  1.0000
  H   H265      1.0  0.27824  0.75096  0.87748  1.0000
  H   H266      1.0  0.25057  0.73539  0.84414  1.0000
  H   H267      1.0  0.25346  0.65071  0.84864  1.0000
  H   H268      1.0  0.27961  0.66553  0.88214  1.0000
  C   C272      1.0  0.20338  0.60932  0.89099  1.0000
  C   C273      1.0  0.19029  0.60868  0.85377  1.0000
  C   C274      1.0  0.29804  0.57376  0.85369  1.0000
  C   C275      1.0  0.19962  0.57100  0.76143  1.0000
  C   C276      1.0  0.22319  0.57969  0.74535  1.0000
  C   C277      1.0  0.23547  0.60840  0.73376  1.0000
  C   C278      1.0  0.22495  0.62889  0.73870  1.0000
  C   C279      1.0  0.20156  0.62023  0.75488  1.0000
  C   C280      1.0  0.18868  0.59121  0.76606  1.0000
  H   H269      1.0  0.23170  0.56414  0.74165  1.0000
  H   H270      1.0  0.25355  0.61493  0.72126  1.0000
  H   H271      1.0  0.19285  0.63552  0.75856  1.0000
  H   H272      1.0  0.17035  0.58452  0.77839  1.0000
  C   C281      1.0  0.43312  0.73419  0.84979  1.0000
  C   C282      1.0  0.41932  0.74010  0.86738  1.0000
  C   C283      1.0  0.40924  0.72014  0.88583  1.0000
  C   C284      1.0  0.41439  0.69501  0.88723  1.0000
  C   C285      1.0  0.42914  0.68962  0.86988  1.0000
  C   C286      1.0  0.43789  0.70879  0.85102  1.0000
  H   H273      1.0  0.41630  0.76015  0.86670  1.0000
  H   H274      1.0  0.39826  0.72470  0.89922  1.0000
  H   H275      1.0  0.43365  0.67055  0.87096  1.0000
  H   H276      1.0  0.34362  0.67798  0.72945  1.0000
  C   C287      1.0  0.39279  0.75558  0.73661  1.0000
  C   C288      1.0  0.40632  0.77861  0.75107  1.0000
  C   C289      1.0  0.39002  0.79272  0.75904  1.0000
  C   C290      1.0  0.35973  0.78309  0.75308  1.0000
  C   C291      1.0  0.34618  0.76004  0.73863  1.0000
  C   C292      1.0  0.36291  0.74672  0.73011  1.0000
  H   H277      1.0  0.42950  0.78589  0.75595  1.0000
  H   H278      1.0  0.40060  0.81058  0.77017  1.0000
  H   H279      1.0  0.32290  0.75272  0.73381  1.0000
  H   H280      1.0  0.35250  0.72932  0.71867  1.0000
  C   C293      1.0  0.40595  0.61852  0.76719  1.0000
  C   C294      1.0  0.37984  0.59161  0.77624  1.0000
  C   C295      1.0  0.35318  0.57585  0.76477  1.0000
  C   C296      1.0  0.35291  0.58621  0.74393  1.0000
  C   C297      1.0  0.37923  0.61293  0.73477  1.0000
  C   C298      1.0  0.40552  0.62941  0.74653  1.0000
  H   H281      1.0  0.37990  0.58332  0.79229  1.0000
  H   H282      1.0  0.33290  0.55571  0.77220  1.0000
  H   H283      1.0  0.37914  0.62115  0.71869  1.0000
  H   H284      1.0  0.42561  0.65026  0.73947  1.0000
  H   H285      1.0  0.44875  0.70420  0.83759  1.0000
  H   H286      1.0  0.48587  0.64658  0.75009  1.0000
  C   C299      1.0  0.30015  0.65376  0.76042  1.0000
  H   H287      1.0  0.14319  0.71100  0.70111  1.0000
  H   H288      1.0  0.18508  0.86381  0.69729  1.0000
  H   H289      1.0  0.18386  0.67196  0.72456  1.0000
  H   H290      1.0  0.36994  0.66842  0.74150  1.0000
  C   C300      1.0  0.33278  0.63665  0.77521  1.0000
  S   S111      1.0  0.23024  0.50206  0.74368  1.0000
  C   C301      1.0  0.22590  0.73688  0.67718  1.0000
  S   S112      1.0  0.47937  0.77599  0.76763  1.0000
  C   C302      1.0  0.28075  0.64363  0.77908  1.0000
  H   H291      1.0  0.27263  0.62156  0.81046  1.0000
  H   H292      1.0  0.33660  0.63875  0.72897  1.0000
  H   H293      1.0  0.35273  0.63327  0.77365  1.0000
  C   C303      1.0  0.33558  0.54386  0.87481  1.0000
  Fe  Fe56      1.0  0.26598  0.51371  0.79892  1.0000
  H   H294      1.0  0.29428  0.66406  0.74721  1.0000
  C   C304      1.0  0.16844  0.68116  0.71985  1.0000
  H   H295      1.0  0.22459  0.51504  0.88879  1.0000
  C   C305      1.0  0.17883  0.73991  0.67701  1.0000
  N   N25       1.0  0.19333  0.93503  0.70126  1.0000
  H   H296      1.0  0.28114  0.52600  0.69781  1.0000
  C   C306      1.0  0.25274  0.52247  0.85999  1.0000
  S   S113      1.0  0.29448  0.52989  0.82752  1.0000
  C   C307      1.0  0.21939  0.95218  0.68789  1.0000
  H   H297      1.0  0.16374  0.69142  0.73384  1.0000
  H   H298      1.0  0.22885  0.97696  0.68484  1.0000
  C   C308      1.0  0.18106  0.90369  0.70470  1.0000
  C   C309      1.0  0.16611  0.71756  0.69406  1.0000
  H   H299      1.0  0.20220  0.53896  0.84529  1.0000
  C   C310      1.0  0.37722  0.58144  0.84937  1.0000
  H   H300      1.0  0.32902  0.52638  0.86329  1.0000
  H   H301      1.0  0.22548  0.70412  0.70041  1.0000
  H   H302      1.0  0.39620  0.57582  0.85009  1.0000
  H   H303      1.0  0.26009  0.64595  0.78023  1.0000
  N   N26       1.0  0.35977  0.74363  0.81886  1.0000
  C   C311      1.0  0.35262  0.76681  0.81758  1.0000
  C   C312      1.0  0.36028  0.73059  0.83817  1.0000
  C   C313      1.0  0.34541  0.77730  0.83596  1.0000
  C   C314      1.0  0.35306  0.74043  0.85686  1.0000
  C   C315      1.0  0.34593  0.76415  0.85571  1.0000
  C   C316      1.0  0.36873  0.73410  0.79945  1.0000
  H   H304      1.0  0.35262  0.77745  0.80231  1.0000
  H   H305      1.0  0.36684  0.71286  0.83927  1.0000
  H   H306      1.0  0.33947  0.79548  0.83485  1.0000
  H   H307      1.0  0.35317  0.72989  0.87220  1.0000
  H   H308      1.0  0.34041  0.77196  0.87017  1.0000
  H   H309      1.0  0.35503  0.73472  0.78608  1.0000
  H   H310      1.0  0.39400  0.75011  0.79517  1.0000
  H   H311      1.0  0.36461  0.71011  0.80159  1.0000
  H   H312      1.0  0.20758  0.56044  0.88062  1.0000
  H   H313      1.0  0.18235  0.59506  0.90184  1.0000
  N   N27       1.0  0.18266  0.70474  0.70214  1.0000
  C   C317      1.0  0.21217  0.71403  0.69390  1.0000
  C   C318      1.0  0.18687  0.59696  0.83367  1.0000
  H   H314      1.0  0.18887  0.56264  0.81501  1.0000
  Fe  Fe57      1.0  0.27964  0.53298  0.75206  1.0000
  H   H315      1.0  0.14613  0.66123  0.71542  1.0000
  H   H316      1.0  0.35755  0.60601  0.91549  1.0000
  H   H317      1.0  0.18386  0.95129  0.72951  1.0000
  H   H318      1.0  0.16021  0.89004  0.71509  1.0000
  H   H319      1.0  0.31921  0.61499  0.80699  1.0000
  C   C319      1.0  0.31785  0.53612  0.89412  1.0000
  H   H320      1.0  0.38758  0.60654  0.84453  1.0000
  C   C320      1.0  0.17876  0.95019  0.71252  1.0000
  H   H321      1.0  0.29870  0.50066  0.72379  1.0000
  C   C321      1.0  0.28778  0.62992  0.79604  1.0000
  C   C322      1.0  0.26397  0.56166  0.88547  1.0000
  C   C323      1.0  0.20212  0.57099  0.86740  1.0000
  N   N28       1.0  0.35966  0.57351  0.87001  1.0000
  H   H322      1.0  0.18136  0.60771  0.82053  1.0000
  H   H323      1.0  0.31917  0.58987  0.84433  1.0000
  H   H324      1.0  0.24046  0.82112  0.68629  1.0000
  C   C324      1.0  0.27352  0.50149  0.69710  1.0000
  S   S114      1.0  0.29623  0.64843  0.99906  1.0000
  C   C325      1.0  0.19884  0.55861  0.84753  1.0000
  C   C326      1.0  0.36791  0.59550  0.88457  1.0000
  C   C327      1.0  0.35105  0.58837  0.90415  1.0000
  H   H325      1.0  0.22388  0.60984  0.89811  1.0000
  S   S115      1.0  0.18413  0.53528  0.77609  1.0000
  C   C328      1.0  0.34487  0.65925  0.73867  1.0000
  C   C329      1.0  0.32554  0.55866  0.90880  1.0000
  N   N29       1.0  0.19872  0.59623  0.87015  1.0000
  S   S116      1.0  0.26702  0.55236  0.77931  1.0000
  H   H326      1.0  0.38731  0.61891  0.88106  1.0000
  H   H327      1.0  0.15303  0.93711  0.71110  1.0000
  C   C330      1.0  0.29014  0.58292  0.87254  1.0000
  H   H328      1.0  0.18728  0.62856  0.85592  1.0000
  S   S117      1.0  0.31945  0.56644  0.72958  1.0000
  C   C331      1.0  0.19496  0.88870  0.69466  1.0000
  H   H329      1.0  0.29772  0.51309  0.89740  1.0000
  C   C332      1.0  0.22143  0.90594  0.68094  1.0000
  H   H330      1.0  0.18718  0.97410  0.70559  1.0000
  H   H331      1.0  0.23882  0.49877  0.85560  1.0000
  H   H332      1.0  0.24958  0.74470  0.67107  1.0000
  H   H333      1.0  0.23209  0.89441  0.67282  1.0000
  C   C333      1.0  0.23367  0.93787  0.67740  1.0000
  H   H334      1.0  0.15942  0.99235  0.67543  1.0000
  H   H335      1.0  0.16588  0.75044  0.67085  1.0000
  Fe  Fe58      1.0  0.53316  0.30206  0.30599  1.0000
  S   S118      1.0  0.56387  0.35302  0.29763  1.0000
  H   H336      1.0  0.56208  0.33620  0.24485  1.0000
  Fe  Fe59      1.0  0.50846  0.23929  0.28809  1.0000
  H   H337      1.0  0.67636  0.44023  0.21700  1.0000
  H   H338      1.0  0.58137  0.25920  0.26181  1.0000
  S   S119      1.0  0.55425  0.27225  0.30085  1.0000
  C   C334      1.0  0.62655  0.38656  0.10530  1.0000
  H   H339      1.0  0.57793  0.35412  0.21834  1.0000
  H   H340      1.0  0.62422  0.39659  0.12017  1.0000
  Fe  Fe60      1.0  0.77627  0.44586  0.30136  1.0000
  S   S120      1.0  0.79761  0.41763  0.29108  1.0000
  H   H341      1.0  0.61735  0.41437  0.29829  1.0000
  H   H342      1.0  0.63695  0.18495  0.23904  1.0000
  S   S121      1.0  0.72503  0.42293  0.29762  1.0000
  Fe  Fe61      1.0  0.72591  0.24238  0.28280  1.0000
  S   S122      1.0  0.69225  0.24902  0.30335  1.0000
  S   S123      1.0  0.74430  0.27216  0.25211  1.0000
  H   H343      1.0  0.72067  0.29777  0.01408  1.0000
  H   H344      1.0  0.57579  0.29570  0.07132  1.0000
  C   C335      1.0  0.68460  0.33396  0.30210  1.0000
  Fe  Fe62      1.0  0.67053  0.19829  0.31247  1.0000
  C   C336      1.0  0.52272  0.26779  0.23260  1.0000
  C   C337      1.0  0.59954  0.33892  0.08657  1.0000
  H   H345      1.0  0.66993  0.35564  0.01252  1.0000
  S   S124      1.0  0.70171  0.19073  0.28978  1.0000
  S   S125      1.0  0.75962  0.25213  0.30812  1.0000
  Fe  Fe63      1.0  0.61890  0.31675  0.16465  1.0000
  S   S126      1.0  0.65678  0.36131  0.14822  1.0000
  S   S127      1.0  0.57543  0.31437  0.17894  1.0000
  Fe  Fe64      1.0  0.65754  0.28557  0.16149  1.0000
  S   S128      1.0  0.69819  0.32714  0.14432  1.0000
  S   S129      1.0  0.66082  0.24409  0.17323  1.0000
  Fe  Fe65      1.0  0.68905  0.35400  0.16843  1.0000
  S   S130      1.0  0.72890  0.38690  0.18726  1.0000
  Fe  Fe66      1.0  0.66225  0.33048  0.12514  1.0000
  S   S131      1.0  0.67251  0.34921  0.09023  1.0000
  S   S132      1.0  0.65065  0.31218  0.18667  1.0000
  S   S133      1.0  0.62181  0.28617  0.14049  1.0000
  N   N30       1.0  0.60315  0.35350  0.10502  1.0000
  C   C338      1.0  0.63862  0.30900  0.02538  1.0000
  C   C339      1.0  0.62721  0.28953  0.04416  1.0000
  C   C340      1.0  0.63784  0.30114  0.06407  1.0000
  C   C341      1.0  0.65981  0.33255  0.06549  1.0000
  C   C342      1.0  0.67128  0.35199  0.04670  1.0000
  C   C343      1.0  0.66089  0.34032  0.02677  1.0000
  H   H346      1.0  0.60998  0.26524  0.04332  1.0000
  H   H347      1.0  0.62880  0.28586  0.07834  1.0000
  H   H348      1.0  0.68825  0.37635  0.04758  1.0000
  H   H349      1.0  0.61191  0.27666  0.31985  1.0000
  C   C344      1.0  0.71964  0.26330  0.23098  1.0000
  C   C345      1.0  0.71762  0.28731  0.22028  1.0000
  C   C346      1.0  0.70021  0.28161  0.20231  1.0000
  C   C347      1.0  0.68415  0.25170  0.19508  1.0000
  C   C348      1.0  0.68609  0.22759  0.20579  1.0000
  C   C349      1.0  0.70387  0.23338  0.22370  1.0000
  H   H350      1.0  0.72944  0.31041  0.22594  1.0000
  H   H351      1.0  0.69948  0.30049  0.19395  1.0000
  H   H352      1.0  0.67397  0.20446  0.20014  1.0000
  H   H353      1.0  0.70594  0.21488  0.23158  1.0000
  C   C350      1.0  0.71447  0.44566  0.23531  1.0000
  C   C351      1.0  0.69477  0.43474  0.21844  1.0000
  C   C352      1.0  0.69861  0.41630  0.20363  1.0000
  C   C353      1.0  0.72255  0.40932  0.20549  1.0000
  C   C354      1.0  0.74221  0.42048  0.22225  1.0000
  C   C355      1.0  0.73808  0.43835  0.23719  1.0000
  H   H354      1.0  0.68339  0.40787  0.19067  1.0000
  H   H355      1.0  0.76058  0.41513  0.22389  1.0000
  H   H356      1.0  0.75333  0.44658  0.25013  1.0000
  H   H357      1.0  0.80912  0.33827  0.25268  1.0000
  H   H358      1.0  0.65421  0.24571  0.23547  1.0000
  H   H359      1.0  0.57734  0.37709  0.23924  1.0000
  Fe  Fe67      1.0  0.73477  0.46886  0.28359  1.0000
  C   C356      1.0  0.78298  0.38393  0.30792  1.0000
  C   C357      1.0  0.77264  0.35533  0.29914  1.0000
  S   S134      1.0  0.70849  0.46681  0.25475  1.0000
  C   C358      1.0  0.65417  0.30916  0.30136  1.0000
  H   H360      1.0  0.55871  0.20828  0.28216  1.0000
  H   H361      1.0  0.77381  0.35408  0.28216  1.0000
  C   C359      1.0  0.52928  0.24380  0.23593  1.0000
  H   H362      1.0  0.69956  0.34439  0.28773  1.0000
  H   H363      1.0  0.55672  0.16142  0.31237  1.0000
  C   C360      1.0  0.55700  0.28635  0.20035  1.0000
  C   C361      1.0  0.56380  0.26252  0.20374  1.0000
  C   C362      1.0  0.54934  0.24083  0.22120  1.0000
  H   H364      1.0  0.62469  0.16962  0.26612  1.0000
  H   H365      1.0  0.55409  0.22199  0.22347  1.0000
  C   C363      1.0  0.56057  0.29031  0.10441  1.0000
  H   H366      1.0  0.58898  0.34847  0.13794  1.0000
  H   H367      1.0  0.62418  0.39996  0.09177  1.0000
  H   H368      1.0  0.66478  0.43490  0.31836  1.0000
  C   C364      1.0  0.75969  0.32801  0.31227  1.0000
  C   C365      1.0  0.56436  0.30536  0.12315  1.0000
  H   H369      1.0  0.75155  0.30614  0.30520  1.0000
  H   H370      1.0  0.57968  0.26036  0.19269  1.0000
  S   S135      1.0  0.61834  0.16929  0.31275  1.0000
  Fe  Fe68      1.0  0.73230  0.20116  0.31746  1.0000
  H   H371      1.0  0.65039  0.38960  0.10397  1.0000
  H   H372      1.0  0.54430  0.26556  0.10427  1.0000
  H   H373      1.0  0.81354  0.42382  0.23261  1.0000
  H   H374      1.0  0.55110  0.29243  0.13770  1.0000
  H   H375      1.0  0.64499  0.30015  0.28631  1.0000
  C   C366      1.0  0.59585  0.36836  0.31367  1.0000
  S   S136      1.0  0.78671  0.49088  0.28475  1.0000
  C   C367      1.0  0.58591  0.33714  0.12319  1.0000
  C   C368      1.0  0.63662  0.19135  0.25564  1.0000
  H   H376      1.0  0.61386  0.35171  0.07232  1.0000
  H   H377      1.0  0.69652  0.31381  0.00625  1.0000
  N   N31       1.0  0.78962  0.35837  0.20637  1.0000
  C   C369      1.0  0.79470  0.34091  0.22121  1.0000
  C   C370      1.0  0.79652  0.38791  0.21019  1.0000
  C   C371      1.0  0.80634  0.35272  0.24066  1.0000
  C   C372      1.0  0.80858  0.40059  0.22938  1.0000
  C   C373      1.0  0.81347  0.38282  0.24468  1.0000
  C   C374      1.0  0.77670  0.34567  0.18620  1.0000
  H   H378      1.0  0.78887  0.31731  0.21841  1.0000
  H   H379      1.0  0.79218  0.40162  0.19848  1.0000
  H   H380      1.0  0.82227  0.39225  0.25977  1.0000
  C   C375      1.0  0.61951  0.39940  0.31009  1.0000
  C   C376      1.0  0.69633  0.29233  0.01195  1.0000
  H   H381      1.0  0.76979  0.32077  0.18571  1.0000
  H   H382      1.0  0.75537  0.34721  0.18385  1.0000
  H   H383      1.0  0.79408  0.35900  0.17281  1.0000
  N   N32       1.0  0.61135  0.36293  0.24136  1.0000
  C   C377      1.0  0.62512  0.38086  0.25786  1.0000
  C   C378      1.0  0.62545  0.34926  0.23085  1.0000
  C   C379      1.0  0.65388  0.38580  0.26418  1.0000
  C   C380      1.0  0.65450  0.35401  0.23659  1.0000
  C   C381      1.0  0.66871  0.37239  0.25340  1.0000
  C   C382      1.0  0.58065  0.35725  0.23560  1.0000
  H   H384      1.0  0.61397  0.39177  0.26605  1.0000
  H   H385      1.0  0.61454  0.33514  0.21767  1.0000
  H   H386      1.0  0.66501  0.40090  0.27687  1.0000
  H   H387      1.0  0.66650  0.34457  0.22759  1.0000
  H   H388      1.0  0.69176  0.37737  0.25752  1.0000
  S   S137      1.0  0.72827  0.48589  0.31471  1.0000
  H   H389      1.0  0.52978  0.30625  0.21171  1.0000
  C   C383      1.0  0.53584  0.28844  0.21454  1.0000
  H   H390      1.0  0.62895  0.27752  0.23768  1.0000
  C   C384      1.0  0.57815  0.30718  0.08595  1.0000
  N   N33       1.0  0.62114  0.20975  0.25736  1.0000
  C   C385      1.0  0.59444  0.19906  0.27010  1.0000
  C   C386      1.0  0.63356  0.23764  0.24592  1.0000
  C   C387      1.0  0.58006  0.21692  0.27216  1.0000
  C   C388      1.0  0.61954  0.25590  0.24731  1.0000
  C   C389      1.0  0.59284  0.24558  0.26076  1.0000
  H   H391      1.0  0.66095  0.20500  0.26052  1.0000
  H   H392      1.0  0.58410  0.17656  0.27868  1.0000
  S   S138      1.0  0.51315  0.21770  0.25853  1.0000
  H   H393      1.0  0.81630  0.25270  0.32725  1.0000
  H   H394      1.0  0.50683  0.26990  0.24366  1.0000
  C   C390      1.0  0.60090  0.18721  0.32647  1.0000
  H   H395      1.0  0.68346  0.28469  0.02780  1.0000
  C   C391      1.0  0.57025  0.17961  0.32272  1.0000
  C   C392      1.0  0.64634  0.41114  0.32159  1.0000
  H   H396      1.0  0.53409  0.19097  0.32829  1.0000
  H   H397      1.0  0.58025  0.32567  0.33258  1.0000
  H   H398      1.0  0.63794  0.24385  0.01481  1.0000
  Fe  Fe69      1.0  0.72266  0.44124  0.32882  1.0000
  C   C393      1.0  0.63562  0.29592  0.32014  1.0000
  C   C394      1.0  0.59842  0.34959  0.32959  1.0000
  Fe  Fe70      1.0  0.53127  0.24925  0.33253  1.0000
  C   C395      1.0  0.55732  0.19615  0.33188  1.0000
  Fe  Fe71      1.0  0.72410  0.25500  0.32921  1.0000
  S   S139      1.0  0.75803  0.17546  0.32525  1.0000
  C   C396      1.0  0.78047  0.38515  0.32995  1.0000
  C   C397      1.0  0.69594  0.34522  0.32169  1.0000
  H   H399      1.0  0.71942  0.36470  0.32213  1.0000
  C   C398      1.0  0.75715  0.32907  0.33427  1.0000
  S   S140      1.0  0.77337  0.46021  0.33416  1.0000
  H   H400      1.0  0.78850  0.40725  0.33680  1.0000
  Fe  Fe72      1.0  0.84969  0.13224  0.46847  1.0000
  S   S141      1.0  0.85307  0.09329  0.45453  1.0000
  S   S142      1.0  0.87271  0.15171  0.49872  1.0000
  Fe  Fe73      1.0  0.82253  0.14442  0.42874  1.0000
  S   S143      1.0  0.82488  0.10702  0.41140  1.0000
  S   S144      1.0  0.80079  0.17308  0.41828  1.0000
  Fe  Fe74      1.0  0.80594  0.07852  0.44239  1.0000
  S   S145      1.0  0.76279  0.03057  0.44569  1.0000
  Fe  Fe75      1.0  0.87204  0.12534  0.42506  1.0000
  S   S146      1.0  0.91569  0.12962  0.40904  1.0000
  S   S147      1.0  0.80083  0.11497  0.45906  1.0000
  S   S148      1.0  0.87121  0.16514  0.43969  1.0000
  Fe  Fe76      1.0  0.81578  0.12408  0.61540  1.0000
  S   S149      1.0  0.85750  0.12287  0.62676  1.0000
  S   S150      1.0  0.79215  0.10133  0.58609  1.0000
  Fe  Fe77      1.0  0.87173  0.16981  0.63853  1.0000
  S   S151      1.0  0.91978  0.21199  0.63231  1.0000
  Fe  Fe78      1.0  0.82923  0.10465  0.65780  1.0000
  C   C399      1.0  0.94537  0.11609  0.45780  1.0000
  S   S152      1.0  0.83206  0.17267  0.62438  1.0000
  S   S153      1.0  0.78656  0.10263  0.64571  1.0000
  C   C400      1.0  0.84995  0.13742  0.52285  1.0000
  C   C401      1.0  0.86353  0.15010  0.54174  1.0000
  C   C402      1.0  0.84593  0.13926  0.56124  1.0000
  C   C403      1.0  0.81467  0.11564  0.56189  1.0000
  C   C404      1.0  0.80112  0.10280  0.54303  1.0000
  C   C405      1.0  0.81872  0.11368  0.52352  1.0000
  H   H401      1.0  0.88767  0.16849  0.54127  1.0000
  H   H402      1.0  0.85648  0.14926  0.57573  1.0000
  H   H403      1.0  0.77691  0.08460  0.54347  1.0000
  H   H404      1.0  0.80813  0.10380  0.50901  1.0000
  H   H405      1.0  0.50000  0.23497  0.37145  1.0000
  H   H406      1.0  0.77793  0.04821  0.62259  1.0000
  N   N34       1.0  0.80564  0.27282  0.37606  1.0000
  H   H407      1.0  0.84466  0.23229  0.34785  1.0000
  H   H408      1.0  0.75679  0.05322  0.40100  1.0000
  C   C406      1.0  0.95257  0.21327  0.64314  1.0000
  H   H409      1.0  0.71098  0.36671  0.35882  1.0000
  H   H410      1.0  0.72251  0.09938  0.36032  1.0000
  C   C407      1.0  0.98171  0.24024  0.63907  1.0000
  C   C408      1.0  0.95139  0.16404  0.41193  1.0000
  C   C409      1.0  0.95206  0.19160  0.41638  1.0000
  N   N35       1.0  0.67771  0.33193  0.34005  1.0000
  H   H411      1.0  0.93068  0.19234  0.41730  1.0000
  C   C410      1.0  0.76580  0.99735  0.44153  1.0000
  H   H412      1.0  0.51222  0.18994  0.38865  1.0000
  C   C411      1.0  0.78811  0.16135  0.35542  1.0000
  C   C412      1.0  0.79778  0.16051  0.37597  1.0000
  C   C413      1.0  0.78839  0.17248  0.39248  1.0000
  C   C414      1.0  0.76903  0.18491  0.38840  1.0000
  C   C415      1.0  0.75936  0.18572  0.36788  1.0000
  C   C416      1.0  0.95061  0.18779  0.65472  1.0000
  H   H413      1.0  0.81278  0.15097  0.37896  1.0000
  H   H414      1.0  0.76173  0.19424  0.40111  1.0000
  H   H415      1.0  0.74473  0.19563  0.36486  1.0000
  H   H416      1.0  0.76348  0.27015  0.38718  1.0000
  H   H417      1.0  0.98084  0.23983  0.42242  1.0000
  H   H418      1.0  0.79394  0.30838  0.37774  1.0000
  H   H419      1.0  0.76585  0.35869  0.36017  1.0000
  C   C417      1.0  0.74929  0.99768  0.56738  1.0000
  H   H420      1.0  0.62623  0.34745  0.35435  1.0000
  S   S154      1.0  0.74010  0.29451  0.35050  1.0000
  N   N36       1.0  0.72978  0.10133  0.41336  1.0000
  C   C418      1.0  0.74136  0.08171  0.41607  1.0000
  C   C419      1.0  0.72202  0.10681  0.39374  1.0000
  H   H421      1.0  0.97928  0.14262  0.40629  1.0000
  C   C420      1.0  0.72739  0.09380  0.37600  1.0000
  C   C421      1.0  0.99267  0.25040  0.58026  1.0000
  C   C422      1.0  0.72459  0.11562  0.43173  1.0000
  C   C423      1.0  0.79109  0.03843  0.61461  1.0000
  H   H422      1.0  0.71264  0.12219  0.39156  1.0000
  C   C424      1.0  0.61782  0.20996  0.34051  1.0000
  C   C425      1.0  0.74018  0.07458  0.37852  1.0000
  C   C426      1.0  0.62461  0.36182  0.34181  1.0000
  H   H423      1.0  0.72729  0.13859  0.42697  1.0000
  H   H424      1.0  0.70093  0.10014  0.43941  1.0000
  H   H425      1.0  0.74240  0.12029  0.44349  1.0000
  S   S155      1.0  0.69904  0.20471  0.34066  1.0000
  C   C427      1.0  0.95093  0.19016  0.47375  1.0000
  H   H426      1.0  0.74687  0.07681  0.43169  1.0000
  H   H427      1.0  0.61715  0.24239  0.36176  1.0000
  H   H428      1.0  0.74887  0.00316  0.55066  1.0000
  C   C428      1.0  0.99009  0.16713  0.46375  1.0000
  H   H429      1.0  0.81134  0.05767  0.60511  1.0000
  C   C429      1.0  0.64791  0.30751  0.33947  1.0000
  C   C430      1.0  0.83593  0.24734  0.37754  1.0000
  C   C431      1.0  0.97786  0.18936  0.66202  1.0000
  S   S156      1.0  0.55894  0.24079  0.35652  1.0000
  N   N37       1.0  0.77039  0.01391  0.60124  1.0000
  H   H430      1.0  0.63333  0.29704  0.35400  1.0000
  N   N38       1.0  0.95843  0.14844  0.46320  1.0000
  C   C432      1.0  0.64894  0.39239  0.33746  1.0000
  Fe  Fe79      1.0  0.80650  0.15113  0.65596  1.0000
  H   H431      1.0  0.79157  0.27884  0.34566  1.0000
  H   H432      1.0  0.92219  0.10722  0.45105  1.0000
  H   H433      1.0  0.92818  0.16686  0.65790  1.0000
  C   C433      1.0  0.83440  0.24437  0.35570  1.0000
  H   H434      1.0  0.74512  0.06492  0.36483  1.0000
  H   H435      1.0  0.79568  0.15236  0.34263  1.0000
  S   S157      1.0  0.51394  0.28203  0.33892  1.0000
  C   C434      1.0  0.97958  0.16376  0.41004  1.0000
  S   S158      1.0  0.68323  0.40666  0.35106  1.0000
  C   C435      1.0  0.98059  0.21859  0.41909  1.0000
  C   C436      1.0  0.76901  0.17408  0.35129  1.0000
  H   H436      1.0  0.96038  0.17791  0.60396  1.0000
  C   C437      1.0  0.97850  0.20080  0.59774  1.0000
  H   H437      1.0  0.82135  0.26250  0.40466  1.0000
  C   C438      1.0  0.78910  0.28657  0.38666  1.0000
  C   C439      1.0  0.74685  0.06814  0.39872  1.0000
  H   H438      1.0  0.79623  0.29235  0.40308  1.0000
  H   H439      1.0  0.91380  0.14454  0.46837  1.0000
  C   C440      1.0  0.80419  0.27016  0.35464  1.0000
  H   H440      1.0  0.98335  0.25997  0.63007  1.0000
  H   H441      1.0  0.98609  0.26606  0.57277  1.0000
  H   H442      1.0  0.67309  0.34319  0.37158  1.0000
  C   C441      1.0  0.60417  0.22519  0.35065  1.0000
  C   C442      1.0  0.82103  0.26142  0.38757  1.0000
  H   H443      1.0  0.77413  0.23073  0.66526  1.0000
  H   H444      1.0  0.94267  0.10122  0.47215  1.0000
  C   C443      1.0  0.69071  0.34260  0.36054  1.0000
  C   C444      1.0  0.93889  0.15942  0.46847  1.0000
  C   C445      1.0  0.78920  0.99875  0.42772  1.0000
  C   C446      1.0  0.96970  0.22056  0.58779  1.0000
  C   C447      1.0  0.76773  0.35771  0.34315  1.0000
  H   H445      1.0  0.78469  0.04408  0.57313  1.0000
  H   H446      1.0  0.69856  0.32700  0.36745  1.0000
  H   H447      1.0  0.93516  0.19871  0.47761  1.0000
  H   H448      1.0  0.80056  0.02932  0.62683  1.0000
  C   C448      1.0  0.76961  0.02071  0.58017  1.0000
  C   C449      1.0  0.57428  0.21895  0.34585  1.0000
  H   H449      1.0  0.96055  0.11402  0.44538  1.0000
  H   H450      1.0  0.99291  0.23372  0.47739  1.0000
  H   H451      1.0  0.84732  0.23749  0.38680  1.0000
  C   C450      1.0  0.98320  0.20962  0.47382  1.0000
  C   C451      1.0  0.81842  0.25579  0.34414  1.0000
  H   H452      1.0  0.64134  0.21564  0.34369  1.0000
  H   H453      1.0  0.94513  0.21301  0.58650  1.0000
  H   H454      1.0  0.80728  0.02092  0.42053  1.0000
  H   H455      1.0  0.73121  0.24272  0.66994  1.0000
  H   H456      1.0  0.71974  0.49594  0.66893  1.0000
  S   S159      1.0  0.77171  0.16307  0.67036  1.0000
  Fe  Fe80      1.0  0.68291  0.21956  0.78033  1.0000
  S   S160      1.0  0.71938  0.21942  0.80042  1.0000
  S   S161      1.0  0.63151  0.18627  0.78457  1.0000
  Fe  Fe81      1.0  0.72815  0.27996  0.75617  1.0000
  S   S162      1.0  0.76870  0.28531  0.77376  1.0000
  S   S163      1.0  0.72969  0.31498  0.73218  1.0000
  Fe  Fe82      1.0  0.74896  0.23439  0.76955  1.0000
  S   S164      1.0  0.78350  0.21912  0.75994  1.0000
  Fe  Fe83      1.0  0.73569  0.27010  0.80266  1.0000
  S   S165      1.0  0.74838  0.29981  0.83057  1.0000
  S   S166      1.0  0.71090  0.23045  0.74935  1.0000
  S   S167      1.0  0.69678  0.26880  0.78524  1.0000
  Fe  Fe84      1.0  0.69133  0.44587  0.75221  1.0000
  H   H457      1.0  0.53605  0.17916  0.72452  1.0000
  S   S168      1.0  0.65618  0.41347  0.73059  1.0000
  Fe  Fe85      1.0  0.75115  0.46005  0.77222  1.0000
  H   H458      1.0  0.56122  0.35910  0.89492  1.0000
  S   S169      1.0  0.78534  0.44332  0.77428  1.0000
  Fe  Fe86      1.0  0.69837  0.45891  0.79878  1.0000
  S   S170      1.0  0.66458  0.43609  0.82738  1.0000
  C   C452      1.0  0.57060  0.21185  0.85123  1.0000
  S   S171      1.0  0.70140  0.42376  0.77967  1.0000
  S   S172      1.0  0.74165  0.47911  0.74246  1.0000
  H   H459      1.0  0.56833  0.17372  0.78736  1.0000
  S   S173      1.0  0.56560  0.24801  0.73568  1.0000
  S   S174      1.0  0.54106  0.27242  0.78567  1.0000
  Fe  Fe87      1.0  0.64821  0.28106  0.92567  1.0000
  S   S175      1.0  0.60458  0.26867  0.94523  1.0000
  S   S176      1.0  0.65550  0.24391  0.91221  1.0000
  Fe  Fe88      1.0  0.67111  0.34979  0.92510  1.0000
  S   S177      1.0  0.62961  0.34314  0.94536  1.0000
  S   S178      1.0  0.70872  0.39578  0.90954  1.0000
  Fe  Fe89      1.0  0.63576  0.30801  0.96519  1.0000
  Fe  Fe90      1.0  0.60239  0.30455  0.92408  1.0000
  S   S179      1.0  0.55930  0.29885  0.90913  1.0000
  S   S180      1.0  0.67993  0.31799  0.94651  1.0000
  S   S181      1.0  0.64326  0.31331  0.90289  1.0000
  C   C453      1.0  0.75036  0.26949  0.69706  1.0000
  C   C454      1.0  0.62153  0.24996  0.85960  1.0000
  N   N39       1.0  0.53649  0.33593  0.84619  1.0000
  Fe  Fe91      1.0  0.52703  0.24561  0.75668  1.0000
  H   H460      1.0  0.81806  0.07361  0.72109  1.0000
  N   N40       1.0  0.59080  0.22996  0.86566  1.0000
  H   H461      1.0  0.49980  0.28820  0.84684  1.0000
  Fe  Fe92      1.0  0.49936  0.23141  0.80197  1.0000
  H   H462      1.0  0.84362  0.11337  0.71158  1.0000
  C   C455      1.0  0.54566  0.27391  0.88826  1.0000
  C   C456      1.0  0.55991  0.36048  0.87783  1.0000
  C   C457      1.0  0.68360  0.24973  0.96253  1.0000
  H   H463      1.0  0.50609  0.23842  0.90736  1.0000
  C   C458      1.0  0.67787  0.42523  0.84976  1.0000
  C   C459      1.0  0.65688  0.39830  0.86211  1.0000
  C   C460      1.0  0.66599  0.38981  0.88075  1.0000
  C   C461      1.0  0.69646  0.40775  0.88698  1.0000
  C   C462      1.0  0.71751  0.43493  0.87470  1.0000
  C   C463      1.0  0.70830  0.44357  0.85602  1.0000
  H   H464      1.0  0.63350  0.38381  0.85726  1.0000
  H   H465      1.0  0.64916  0.36961  0.89044  1.0000
  H   H466      1.0  0.74089  0.44945  0.87970  1.0000
  C   C464      1.0  0.76615  0.12056  0.74004  1.0000
  C   C465      1.0  0.61890  0.39323  0.74371  1.0000
  C   C466      1.0  0.61152  0.40525  0.76120  1.0000
  C   C467      1.0  0.58194  0.38863  0.77191  1.0000
  C   C468      1.0  0.56003  0.35934  0.76569  1.0000
  C   C469      1.0  0.56749  0.34715  0.74832  1.0000
  C   C470      1.0  0.59663  0.36436  0.73707  1.0000
  H   H467      1.0  0.62836  0.42747  0.76643  1.0000
  H   H468      1.0  0.57631  0.39837  0.78519  1.0000
  H   H469      1.0  0.55070  0.32464  0.74332  1.0000
  H   H470      1.0  0.60210  0.35497  0.72349  1.0000
  C   C471      1.0  0.77966  0.20218  0.73550  1.0000
  C   C472      1.0  0.75245  0.19181  0.72468  1.0000
  C   C473      1.0  0.75032  0.17958  0.70480  1.0000
  C   C474      1.0  0.77536  0.17760  0.69560  1.0000
  C   C475      1.0  0.80244  0.18737  0.70656  1.0000
  C   C476      1.0  0.80453  0.19959  0.72652  1.0000
  H   H471      1.0  0.73292  0.19303  0.73162  1.0000
  C   C477      1.0  0.53740  0.33494  0.86781  1.0000
  H   H472      1.0  0.82181  0.18582  0.69958  1.0000
  H   H473      1.0  0.82560  0.20744  0.73491  1.0000
  C   C478      1.0  0.72248  0.28356  0.85319  1.0000
  C   C479      1.0  0.70289  0.25143  0.85667  1.0000
  C   C480      1.0  0.68300  0.23914  0.87521  1.0000
  C   C481      1.0  0.68229  0.25901  0.89003  1.0000
  C   C482      1.0  0.70155  0.29111  0.88635  1.0000
  C   C483      1.0  0.72168  0.30329  0.86804  1.0000
  H   H474      1.0  0.70335  0.23602  0.84526  1.0000
  H   H475      1.0  0.66787  0.21428  0.87788  1.0000
  H   H476      1.0  0.70101  0.30663  0.89764  1.0000
  H   H477      1.0  0.73631  0.32809  0.86531  1.0000
  C   C484      1.0  0.74645  0.35147  0.74286  1.0000
  C   C485      1.0  0.77015  0.36008  0.75694  1.0000
  C   C486      1.0  0.78285  0.38887  0.76594  1.0000
  C   C487      1.0  0.77113  0.40866  0.76145  1.0000
  C   C488      1.0  0.74735  0.40004  0.74740  1.0000
  C   C489      1.0  0.73535  0.37166  0.73785  1.0000
  H   H478      1.0  0.77923  0.34491  0.76058  1.0000
  H   H479      1.0  0.80162  0.39575  0.77647  1.0000
  H   H480      1.0  0.73841  0.41537  0.74368  1.0000
  H   H481      1.0  0.71706  0.36515  0.72692  1.0000
  C   C490      1.0  0.61264  0.20188  0.76996  1.0000
  C   C491      1.0  0.62923  0.22535  0.75393  1.0000
  C   C492      1.0  0.61449  0.23897  0.74308  1.0000
  C   C493      1.0  0.58347  0.23000  0.74879  1.0000
  C   C494      1.0  0.56688  0.20661  0.76487  1.0000
  C   C495      1.0  0.58126  0.19208  0.77512  1.0000
  H   H482      1.0  0.65339  0.23289  0.74973  1.0000
  H   H483      1.0  0.62730  0.25676  0.73047  1.0000
  H   H484      1.0  0.54291  0.19942  0.76929  1.0000
  C   C496      1.0  0.65119  0.24521  0.00037  1.0000
  N   N41       1.0  0.79881  0.10311  0.72387  1.0000
  C   C497      1.0  0.78123  0.09518  0.70657  1.0000
  C   C498      1.0  0.79183  0.11604  0.74039  1.0000
  C   C499      1.0  0.55721  0.36220  0.83413  1.0000
  C   C500      1.0  0.82557  0.09814  0.72421  1.0000
  H   H485      1.0  0.81362  0.28413  0.73949  1.0000
  C   C501      1.0  0.74775  0.11194  0.72261  1.0000
  H   H486      1.0  0.52565  0.21184  0.69941  1.0000
  C   C502      1.0  0.82282  0.28441  0.72313  1.0000
  H   H487      1.0  0.56480  0.19960  0.81871  1.0000
  H   H488      1.0  0.72148  0.29006  0.97473  1.0000
  H   H489      1.0  0.76093  0.13137  0.75294  1.0000
  H   H490      1.0  0.74209  0.09393  0.69162  1.0000
  H   H491      1.0  0.83324  0.26920  0.72420  1.0000
  H   H492      1.0  0.81648  0.25047  0.68993  1.0000
  H   H493      1.0  0.72920  0.17178  0.69647  1.0000
  C   C503      1.0  0.51847  0.23635  0.85425  1.0000
  H   H494      1.0  0.64876  0.34853  0.73746  1.0000
  N   N42       1.0  0.79068  0.37779  0.84518  1.0000
  C   C504      1.0  0.77980  0.37915  0.82579  1.0000
  C   C505      1.0  0.78354  0.38971  0.86221  1.0000
  H   H495      1.0  0.64114  0.20991  0.95401  1.0000
  C   C506      1.0  0.76518  0.40356  0.86008  1.0000
  C   C507      1.0  0.76175  0.39327  0.82303  1.0000
  C   C508      1.0  0.80967  0.36307  0.84807  1.0000
  H   H496      1.0  0.78479  0.36906  0.81238  1.0000
  H   H497      1.0  0.79163  0.38812  0.87767  1.0000
  H   H498      1.0  0.72818  0.11595  0.72189  1.0000
  H   H499      1.0  0.83257  0.37976  0.85404  1.0000
  H   H500      1.0  0.79712  0.34242  0.85949  1.0000
  H   H501      1.0  0.81402  0.35464  0.83301  1.0000
  H   H502      1.0  0.83643  0.10297  0.73970  1.0000
  C   C509      1.0  0.75547  0.09946  0.70565  1.0000
  C   C510      1.0  0.57980  0.38830  0.84364  1.0000
  S   S182      1.0  0.84720  0.15162  0.67090  1.0000
  C   C511      1.0  0.58110  0.38737  0.86565  1.0000
  H   H503      1.0  0.63739  0.26435  0.87104  1.0000
  C   C512      1.0  0.50455  0.22667  0.87483  1.0000
  H   H504      1.0  0.72449  0.46474  0.84676  1.0000
  H   H505      1.0  0.74068  0.41675  0.83826  1.0000
  H   H506      1.0  0.54613  0.19608  0.85590  1.0000
  C   C513      1.0  0.61257  0.23343  0.82391  1.0000
  H   H507      1.0  0.58988  0.21539  0.89773  1.0000
  H   H508      1.0  0.58799  0.25046  0.89390  1.0000
  H   H509      1.0  0.73182  0.27493  0.69932  1.0000
  C   C514      1.0  0.58010  0.22714  0.88797  1.0000
  N   N43       1.0  0.64963  0.33355  0.76909  1.0000
  C   C515      1.0  0.67335  0.32940  0.77576  1.0000
  C   C516      1.0  0.63636  0.34570  0.78208  1.0000
  C   C517      1.0  0.68416  0.33719  0.79603  1.0000
  C   C518      1.0  0.64663  0.35383  0.80243  1.0000
  C   C519      1.0  0.67069  0.34953  0.80942  1.0000
  C   C520      1.0  0.63935  0.32655  0.74753  1.0000
  H   H510      1.0  0.68423  0.32025  0.76531  1.0000
  H   H511      1.0  0.61805  0.34963  0.77659  1.0000
  H   H512      1.0  0.70314  0.33402  0.80112  1.0000
  H   H513      1.0  0.63670  0.36437  0.81245  1.0000
  H   H514      1.0  0.67918  0.35627  0.82504  1.0000
  H   H515      1.0  0.64749  0.31177  0.74011  1.0000
  H   H516      1.0  0.61340  0.31369  0.74766  1.0000
  N   N44       1.0  0.68154  0.26855  0.99663  1.0000
  C   C521      1.0  0.63300  0.25176  0.83873  1.0000
  C   C522      1.0  0.77459  0.28021  0.71086  1.0000
  H   H517      1.0  0.69621  0.25209  0.94753  1.0000
  C   C523      1.0  0.77426  0.24505  0.67784  1.0000
  H   H518      1.0  0.75925  0.41254  0.87376  1.0000
  S   S183      1.0  0.52406  0.33746  0.78028  1.0000
  C   C524      1.0  0.54646  0.26477  0.85068  1.0000
  C   C525      1.0  0.58107  0.21365  0.83011  1.0000
  H   H519      1.0  0.75366  0.39487  0.80758  1.0000
  H   H520      1.0  0.59904  0.40722  0.87316  1.0000
  H   H521      1.0  0.80617  0.12311  0.75390  1.0000
  C   C526      1.0  0.56025  0.28341  0.86775  1.0000
  H   H522      1.0  0.78736  0.08577  0.69330  1.0000
  H   H523      1.0  0.84124  0.30844  0.71790  1.0000
  S   S184      1.0  0.68510  0.47921  0.77155  1.0000
  H   H524      1.0  0.58167  0.30549  0.86499  1.0000
  H   H525      1.0  0.55766  0.27211  0.83488  1.0000
  C   C527      1.0  0.50663  0.19362  0.70955  1.0000
  H   H526      1.0  0.65764  0.26689  0.83420  1.0000
  H   H527      1.0  0.62116  0.23434  0.80772  1.0000
  C   C528      1.0  0.51772  0.24564  0.89166  1.0000
  N   N45       1.0  0.79769  0.27293  0.70846  1.0000
  H   H528      1.0  0.76200  0.04563  0.67084  1.0000
  H   H529      1.0  0.52118  0.31411  0.87747  1.0000
  H   H530      1.0  0.55422  0.21372  0.89031  1.0000
  Fe  Fe93      1.0  0.50721  0.28727  0.77626  1.0000
  S   S185      1.0  0.62465  0.29262  0.00076  1.0000
  H   H531      1.0  0.55642  0.36299  0.81703  1.0000
  H   H532      1.0  0.68339  0.46600  0.70080  1.0000
  H   H533      1.0  0.59655  0.40896  0.83400  1.0000
  S   S186      1.0  0.74958  0.49416  0.79373  1.0000
  C   C529      1.0  0.79812  0.25616  0.69195  1.0000
  H   H534      1.0  0.52486  0.30269  0.82307  1.0000
  S   S187      1.0  0.50149  0.21109  0.83387  1.0000
  H   H535      1.0  0.97629  0.16961  0.67095  1.0000
  H   H536      1.0  0.77461  0.29416  0.72362  1.0000
  C   C530      1.0  0.75450  0.40561  0.84029  1.0000
  C   C531      1.0  0.51252  0.17532  0.72376  1.0000
  C   C532      1.0  0.63622  0.22372  0.98517  1.0000
  C   C533      1.0  0.51320  0.30900  0.83565  1.0000
  C   C534      1.0  0.66611  0.48854  0.72089  1.0000
  C   C535      1.0  0.75012  0.25159  0.68056  1.0000
  C   C536      1.0  0.65260  0.22602  0.96615  1.0000
  H   H537      1.0  0.64752  0.46692  0.72856  1.0000
  H   H538      1.0  0.61184  0.20593  0.98791  1.0000
  C   C537      1.0  0.69773  0.27105  0.97798  1.0000
  C   C538      1.0  0.68643  0.48817  0.70512  1.0000
  C   C539      1.0  0.76401  0.02511  0.67094  1.0000
  C   C540      1.0  0.79306  0.02722  0.67270  1.0000
  C   C541      1.0  0.79497  0.00006  0.67283  1.0000
  H   H539      1.0  0.81737  0.00150  0.67420  1.0000
  S   S188      1.0  0.82697  0.06334  0.67541  1.0000
  H   H540      1.0  0.75720  0.55788  0.30372  1.0000
  Fe  Fe94      1.0  0.77959  0.50383  0.31743  1.0000
  S   S189      1.0  0.81343  0.55203  0.32727  1.0000
  H   H541      1.0  0.80245  0.61115  0.30444  1.0000
  C   C542      1.0  0.75814  0.57252  0.31629  1.0000
  C   C543      1.0  0.78356  0.60253  0.31666  1.0000
  H   H542      1.0  0.80527  0.64387  0.33402  1.0000
  C   C544      1.0  0.78520  0.62080  0.33328  1.0000
  H   H543      1.0  0.71563  0.53727  0.33268  1.0000
  C   C545      1.0  0.73489  0.56093  0.33282  1.0000
  Fe  Fe95      1.0  0.68521  0.81308  0.46962  1.0000
  S   S190      1.0  0.72954  0.82458  0.45104  1.0000
  S   S191      1.0  0.67774  0.79528  0.50394  1.0000
  Fe  Fe96      1.0  0.65328  0.81698  0.42979  1.0000
  S   S192      1.0  0.69500  0.82865  0.40825  1.0000
  S   S193      1.0  0.60816  0.81195  0.41864  1.0000
  Fe  Fe97      1.0  0.69816  0.79200  0.42789  1.0000
  S   S194      1.0  0.69982  0.75113  0.41537  1.0000
  Fe  Fe98      1.0  0.72242  0.86054  0.43340  1.0000
  S   S195      1.0  0.76290  0.90810  0.42270  1.0000
  S   S196      1.0  0.65419  0.77788  0.44764  1.0000
  S   S197      1.0  0.68022  0.85145  0.45376  1.0000
  Fe  Fe99      1.0  0.69885  0.86799  0.61060  1.0000
  S   S198      1.0  0.74050  0.89797  0.62866  1.0000
  S   S199      1.0  0.70277  0.88657  0.57686  1.0000
  Fe  Fe100     1.0  0.70628  0.89394  0.65433  1.0000
  H   H544      1.0  0.82211  0.83145  0.63238  1.0000
  Fe  Fe101     1.0  0.73341  0.85286  0.64321  1.0000
  C   C546      1.0  0.82562  0.78200  0.46299  1.0000
  S   S200      1.0  0.66494  0.86739  0.63514  1.0000
  S   S201      1.0  0.69383  0.82294  0.62335  1.0000
  Fe  Fe102     1.0  0.80870  0.64501  0.42288  1.0000
  S   S202      1.0  0.85123  0.68811  0.40838  1.0000
  S   S203      1.0  0.77656  0.59983  0.40828  1.0000
  Fe  Fe103     1.0  0.81252  0.67313  0.46578  1.0000
  S   S204      1.0  0.85512  0.71808  0.45486  1.0000
  S   S205      1.0  0.78740  0.66433  0.49798  1.0000
  Fe  Fe104     1.0  0.83046  0.71363  0.42493  1.0000
  S   S206      1.0  0.83048  0.75673  0.41248  1.0000
  Fe  Fe105     1.0  0.87187  0.68872  0.43968  1.0000
  S   S207      1.0  0.91829  0.69309  0.44656  1.0000
  S   S208      1.0  0.78655  0.67060  0.43704  1.0000
  S   S209      1.0  0.83071  0.64365  0.45294  1.0000
  Fe  Fe106     1.0  0.85277  0.70584  0.60850  1.0000
  S   S210      1.0  0.85584  0.74733  0.62352  1.0000
  S   S211      1.0  0.87318  0.71088  0.57515  1.0000
  Fe  Fe107     1.0  0.80969  0.71272  0.64006  1.0000
  H   H545      1.0  0.73518  0.96598  0.39579  1.0000
  Fe  Fe108     1.0  0.87686  0.73439  0.65009  1.0000
  H   H546      1.0  0.65859  0.72819  0.38028  1.0000
  S   S212      1.0  0.80487  0.67182  0.62293  1.0000
  S   S213      1.0  0.87693  0.69530  0.63406  1.0000
  H   H547      1.0  0.80640  0.97239  0.41156  1.0000
  H   H548      1.0  0.54795  0.70132  0.38367  1.0000
  H   H549      1.0  0.83947  0.77116  0.45785  1.0000
  C   C547      1.0  0.77063  0.76816  0.46326  1.0000
  C   C548      1.0  0.95300  0.72887  0.44113  1.0000
  S   S214      1.0  0.83090  0.70352  0.66834  1.0000
  C   C549      1.0  0.95430  0.75221  0.42737  1.0000
  C   C550      1.0  0.76960  0.75432  0.64156  1.0000
  H   H550      1.0  0.93320  0.74924  0.42076  1.0000
  C   C551      1.0  0.81099  0.68108  0.51925  1.0000
  C   C552      1.0  0.79732  0.67456  0.53999  1.0000
  C   C553      1.0  0.81613  0.68502  0.55736  1.0000
  C   C554      1.0  0.84866  0.70193  0.55397  1.0000
  C   C555      1.0  0.86219  0.70952  0.53319  1.0000
  C   C556      1.0  0.84341  0.69918  0.51587  1.0000
  H   H551      1.0  0.77220  0.66064  0.54267  1.0000
  H   H552      1.0  0.80552  0.67910  0.57335  1.0000
  H   H553      1.0  0.88735  0.72276  0.53051  1.0000
  H   H554      1.0  0.85414  0.70452  0.49998  1.0000
  H   H555      1.0  0.59307  0.74588  0.42619  1.0000
  C   C557      1.0  0.96545  0.69925  0.66377  1.0000
  C   C558      1.0  0.80546  0.56348  0.35166  1.0000
  H   H556      1.0  0.72161  0.75371  0.46298  1.0000
  C   C559      1.0  0.98047  0.73291  0.44957  1.0000
  C   C560      1.0  0.72886  0.71530  0.47060  1.0000
  C   C561      1.0  0.77320  0.81252  0.64116  1.0000
  C   C562      1.0  0.73001  0.96111  0.59792  1.0000
  H   H557      1.0  0.71359  0.94947  0.56664  1.0000
  H   H558      1.0  0.55540  0.72602  0.41612  1.0000
  S   S215      1.0  0.82047  0.61856  0.66381  1.0000
  H   H559      1.0  0.77805  0.79224  0.45891  1.0000
  C   C563      1.0  0.73638  0.75331  0.41349  1.0000
  C   C564      1.0  0.73745  0.72577  0.41324  1.0000
  C   C565      1.0  0.76621  0.72663  0.41275  1.0000
  C   C566      1.0  0.79412  0.75508  0.41212  1.0000
  C   C567      1.0  0.79308  0.78272  0.41169  1.0000
  C   C568      1.0  0.76424  0.78186  0.41265  1.0000
  H   H560      1.0  0.71597  0.70364  0.41370  1.0000
  H   H561      1.0  0.76674  0.70529  0.41242  1.0000
  H   H562      1.0  0.81462  0.80484  0.41086  1.0000
  H   H563      1.0  0.76360  0.80324  0.41259  1.0000
  C   C569      1.0  0.76477  0.94222  0.43135  1.0000
  H   H564      1.0  0.83029  0.80014  0.45030  1.0000
  C   C570      1.0  0.74204  0.94097  0.44575  1.0000
  H   H565      1.0  0.83400  0.79295  0.47814  1.0000
  H   H566      1.0  0.72374  0.91884  0.45272  1.0000
  C   C571      1.0  0.68182  0.82057  0.52376  1.0000
  C   C572      1.0  0.69536  0.85250  0.51900  1.0000
  C   C573      1.0  0.70092  0.87250  0.53542  1.0000
  C   C574      1.0  0.69313  0.86066  0.55662  1.0000
  C   C575      1.0  0.67911  0.82869  0.56135  1.0000
  C   C576      1.0  0.67330  0.80868  0.54492  1.0000
  H   H567      1.0  0.70203  0.86184  0.50271  1.0000
  H   H568      1.0  0.71174  0.89724  0.53169  1.0000
  H   H569      1.0  0.67282  0.81937  0.57764  1.0000
  H   H570      1.0  0.66270  0.78395  0.54865  1.0000
  C   C577      1.0  0.56369  0.76166  0.35912  1.0000
  C   C578      1.0  0.59568  0.77332  0.36159  1.0000
  C   C579      1.0  0.60972  0.78891  0.37970  1.0000
  C   C580      1.0  0.59197  0.79359  0.39525  1.0000
  C   C581      1.0  0.56029  0.78287  0.39245  1.0000
  C   C582      1.0  0.54612  0.76672  0.37458  1.0000
  H   H571      1.0  0.63420  0.79719  0.38162  1.0000
  H   H572      1.0  0.54642  0.78646  0.40439  1.0000
  H   H573      1.0  0.52145  0.75765  0.37302  1.0000
  N   N46       1.0  0.70356  0.91728  0.39511  1.0000
  C   C583      1.0  0.77823  0.54388  0.36424  1.0000
  C   C584      1.0  0.77059  0.55482  0.38234  1.0000
  C   C585      1.0  0.79004  0.58538  0.38795  1.0000
  C   C586      1.0  0.81802  0.60454  0.37592  1.0000
  S   S216      1.0  0.70424  0.93300  0.66950  1.0000
  H   H574      1.0  0.76268  0.52056  0.35973  1.0000
  H   H575      1.0  0.74912  0.53977  0.39175  1.0000
  H   H576      1.0  0.83315  0.62812  0.38012  1.0000
  Fe  Fe109     1.0  0.66353  0.82517  0.65005  1.0000
  Fe  Fe110     1.0  0.82939  0.66515  0.65014  1.0000
  C   C587      1.0  0.62038  0.72596  0.39929  1.0000
  H   H577      1.0  0.88728  0.64905  0.66901  1.0000
  C   C588      1.0  0.98524  0.76431  0.63096  1.0000
  H   H578      1.0  0.71450  0.99455  0.66923  1.0000
  H   H579      1.0  0.71759  0.91377  0.36372  1.0000
  H   H580      1.0  0.70377  0.54075  0.37003  1.0000
  H   H581      1.0  0.74382  0.68213  0.47754  1.0000
  C   C589      1.0  0.74270  0.75634  0.64582  1.0000
  C   C590      1.0  0.78860  0.97123  0.42260  1.0000
  H   H582      1.0  0.93604  0.74727  0.62987  1.0000
  H   H583      1.0  0.69314  0.56959  0.36251  1.0000
  H   H584      1.0  0.72378  0.78675  0.64960  1.0000
  H   H585      1.0  0.75083  0.97938  0.62698  1.0000
  H   H586      1.0  0.60948  0.76965  0.34966  1.0000
  H   H587      1.0  0.72444  0.96722  0.46154  1.0000
  C   C591      1.0  0.82568  0.59357  0.35781  1.0000
  H   H588      1.0  0.98649  0.70328  0.65494  1.0000
  C   C592      1.0  0.74445  0.78537  0.64556  1.0000
  H   H589      1.0  0.74896  0.93028  0.38166  1.0000
  H   H590      1.0  0.66757  0.86956  0.39702  1.0000
  H   H591      1.0  0.70414  0.69818  0.47204  1.0000
  H   H592      1.0  0.97959  0.71499  0.46028  1.0000
  N   N47       1.0  0.75746  0.84749  0.56825  1.0000
  C   C593      1.0  0.74811  0.83431  0.54933  1.0000
  C   C594      1.0  0.75567  0.82973  0.58587  1.0000
  C   C595      1.0  0.73543  0.80232  0.54792  1.0000
  C   C596      1.0  0.74331  0.79770  0.58501  1.0000
  C   C597      1.0  0.73292  0.78392  0.56593  1.0000
  C   C598      1.0  0.77072  0.88103  0.56956  1.0000
  H   H593      1.0  0.74942  0.84832  0.53533  1.0000
  H   H594      1.0  0.76357  0.84029  0.60075  1.0000
  H   H595      1.0  0.72680  0.79185  0.53306  1.0000
  H   H596      1.0  0.74164  0.78367  0.59912  1.0000
  H   H597      1.0  0.72280  0.75903  0.56512  1.0000
  H   H598      1.0  0.79661  0.89291  0.56834  1.0000
  H   H599      1.0  0.76274  0.89093  0.55680  1.0000
  H   H600      1.0  0.76282  0.88605  0.58482  1.0000
  C   C599      1.0  0.71249  0.94649  0.40117  1.0000
  C   C600      1.0  0.69317  0.95147  0.41517  1.0000
  H   H601      1.0  0.56920  0.70427  0.43145  1.0000
  C   C601      1.0  0.57610  0.72378  0.41944  1.0000
  N   N48       1.0  0.86400  0.64475  0.51483  1.0000
  C   C602      1.0  0.83246  0.62681  0.51320  1.0000
  C   C603      1.0  0.87603  0.65186  0.53432  1.0000
  C   C604      1.0  0.81210  0.61514  0.53138  1.0000
  C   C605      1.0  0.85634  0.64041  0.55284  1.0000
  C   C606      1.0  0.82418  0.62203  0.55131  1.0000
  C   C607      1.0  0.88466  0.65829  0.49553  1.0000
  H   H602      1.0  0.82271  0.62234  0.49779  1.0000
  H   H603      1.0  0.90081  0.66738  0.53566  1.0000
  H   H604      1.0  0.78705  0.60203  0.52991  1.0000
  H   H605      1.0  0.86582  0.64718  0.56822  1.0000
  H   H606      1.0  0.80859  0.61422  0.56551  1.0000
  H   H607      1.0  0.90925  0.66532  0.49839  1.0000
  H   H608      1.0  0.87728  0.64143  0.48296  1.0000
  H   H609      1.0  0.88413  0.67918  0.48933  1.0000
  H   H610      1.0  0.79983  0.72135  0.47341  1.0000
  C   C608      1.0  0.73865  0.74648  0.46562  1.0000
  H   H611      1.0  0.64967  0.92970  0.43423  1.0000
  H   H612      1.0  0.97533  0.69245  0.41655  1.0000
  H   H613      1.0  0.72224  0.88978  0.38386  1.0000
  H   H614      1.0  0.86464  0.79167  0.65807  1.0000
  C   C609      1.0  0.71269  0.56597  0.36670  1.0000
  C   C610      1.0  0.65531  0.89678  0.41629  1.0000
  C   C611      1.0  0.72397  0.91259  0.38023  1.0000
  H   H615      1.0  0.76360  0.62239  0.36288  1.0000
  H   H616      1.0  0.63443  0.73520  0.41277  1.0000
  C   C612      1.0  0.75103  0.70627  0.47352  1.0000
  C   C613      1.0  0.95511  0.77683  0.65565  1.0000
  C   C614      1.0  0.78279  0.72858  0.47107  1.0000
  C   C615      1.0  0.74253  0.96844  0.45076  1.0000
  H   H617      1.0  0.57126  0.69417  0.35082  1.0000
  C   C616      1.0  0.79805  0.78142  0.63607  1.0000
  S   S217      1.0  0.77707  0.84927  0.64384  1.0000
  C   C617      1.0  0.75068  0.98466  0.61022  1.0000
  N   N49       1.0  0.79221  0.75895  0.46556  1.0000
  C   C618      1.0  0.76155  0.60848  0.34958  1.0000
  C   C619      1.0  0.58509  0.70234  0.36455  1.0000
  N   N50       1.0  0.58986  0.71886  0.40012  1.0000
  H   H618      1.0  0.72204  0.57720  0.38170  1.0000
  C   C620      1.0  0.79984  0.81047  0.63595  1.0000
  H   H619      1.0  0.81881  0.78006  0.63257  1.0000
  C   C621      1.0  0.66455  0.92635  0.42294  1.0000
  C   C622      1.0  0.67509  0.89266  0.40214  1.0000
  C   C623      1.0  0.98326  0.77897  0.42152  1.0000
  H   H620      1.0  0.63305  0.87705  0.42219  1.0000
  C   C624      1.0  0.72946  0.96767  0.57634  1.0000
  C   C625      1.0  0.95676  0.76158  0.63799  1.0000
  H   H621      1.0  0.97029  0.71811  0.39885  1.0000
  C   C626      1.0  0.57202  0.70654  0.38322  1.0000
  H   H622      1.0  0.58854  0.83685  0.66289  1.0000
  N   N51       1.0  0.73710  0.57870  0.34937  1.0000
  C   C627      1.0  0.93654  0.67344  0.66045  1.0000
  H   H623      1.0  0.70095  0.97450  0.42058  1.0000
  H   H624      1.0  0.53118  0.80354  0.66891  1.0000
  S   S218      1.0  0.61593  0.78535  0.66171  1.0000
  S   S219      1.0  0.91857  0.76941  0.66673  1.0000
  C   C628      1.0  0.98217  0.70428  0.40038  1.0000
  H   H625      1.0  0.97329  0.68653  0.38844  1.0000
  C   C629      1.0  0.98267  0.79649  0.66541  1.0000
  C   C630      1.0  0.61642  0.71026  0.36340  1.0000
  H   H626      1.0  0.62702  0.70769  0.34888  1.0000
  C   C631      1.0  0.63416  0.72193  0.38092  1.0000
  H   H627      1.0  0.84686  0.60875  0.34816  1.0000
  H   H628      1.0  0.98590  0.75140  0.61779  1.0000
  H   H629      1.0  0.98432  0.79665  0.41046  1.0000
  S   S220      1.0  0.76726  0.71801  0.64531  1.0000
  H   H630      1.0  0.72061  0.73542  0.65002  1.0000
  H   H631      1.0  0.71446  0.93789  0.60506  1.0000
  H   H632      1.0  0.93485  0.65691  0.64916  1.0000
  S   S221      1.0  0.54580  0.73817  0.33785  1.0000
  C   C632      1.0  0.73886  0.96892  0.67025  1.0000
  C   C633      1.0  0.73698  0.99604  0.67007  1.0000
  S   S222      1.0  0.75246  0.56147  0.75467  1.0000
  S   S223      1.0  0.56109  0.78285  0.75447  1.0000
  C   C634      1.0  0.86312  0.79287  0.67554  1.0000
  H   H633      1.0  0.63448  0.89504  0.68246  1.0000
  H   H634      1.0  0.50552  0.79992  0.70436  1.0000
  H   H635      1.0  0.79509  0.64173  0.69611  1.0000
  H   H636      1.0  0.98950  0.74062  0.68082  1.0000
  H   H637      1.0  0.69942  0.56673  0.72278  1.0000
  C   C635      1.0  0.88331  0.68597  0.69710  1.0000
  H   H638      1.0  0.59501  0.86345  0.72655  1.0000
  C   C636      1.0  0.56842  0.71787  0.75182  1.0000
  C   C637      1.0  0.73227  0.51432  0.68009  1.0000
  C   C638      1.0  0.55830  0.70459  0.73248  1.0000
  H   H639      1.0  0.88189  0.67636  0.71351  1.0000
  N   N52       1.0  0.83559  0.79502  0.68200  1.0000
  H   H640      1.0  0.52002  0.66873  0.71684  1.0000
  H   H641      1.0  0.75828  0.74889  0.69492  1.0000
  N   N53       1.0  0.54949  0.70560  0.77000  1.0000
  C   C639      1.0  0.78068  0.77006  0.69196  1.0000
  Fe  Fe111     1.0  0.73659  0.51114  0.76423  1.0000
  C   C640      1.0  0.57594  0.78280  0.72871  1.0000
  C   C641      1.0  0.60819  0.80100  0.72368  1.0000
  C   C642      1.0  0.62077  0.80181  0.70323  1.0000
  H   H642      1.0  0.86211  0.77191  0.68320  1.0000
  C   C643      1.0  0.56904  0.76544  0.69291  1.0000
  C   C644      1.0  0.55639  0.76499  0.71326  1.0000
  H   H643      1.0  0.62349  0.81473  0.73559  1.0000
  H   H644      1.0  0.64562  0.81601  0.69951  1.0000
  C   C645      1.0  0.81123  0.82587  0.68679  1.0000
  H   H645      1.0  0.53154  0.75095  0.71691  1.0000
  C   C646      1.0  0.77398  0.57854  0.73027  1.0000
  C   C647      1.0  0.77810  0.60720  0.72244  1.0000
  C   C648      1.0  0.79277  0.62006  0.70220  1.0000
  C   C649      1.0  0.54873  0.83199  0.71761  1.0000
  C   C650      1.0  0.80032  0.57623  0.69783  1.0000
  C   C651      1.0  0.78552  0.56331  0.71799  1.0000
  H   H646      1.0  0.76925  0.61911  0.73188  1.0000
  H   H647      1.0  0.59121  0.73861  0.75210  1.0000
  N   N54       1.0  0.71014  0.51532  0.69559  1.0000
  C   C652      1.0  0.67073  0.51693  0.72729  1.0000
  N   N55       1.0  0.59503  0.85233  0.69428  1.0000
  C   C653      1.0  0.69494  0.54450  0.71747  1.0000
  H   H648      1.0  0.78301  0.54156  0.72401  1.0000
  H   H649      1.0  0.56325  0.74403  0.78891  1.0000
  C   C654      1.0  0.56062  0.72049  0.78991  1.0000
  H   H650      1.0  0.54410  0.70707  0.80372  1.0000
  C   C655      1.0  0.71432  0.54325  0.70139  1.0000
  C   C656      1.0  0.93980  0.71571  0.68892  1.0000
  C   C657      1.0  0.60120  0.78417  0.68773  1.0000
  C   C658      1.0  0.90968  0.66921  0.67166  1.0000
  N   N56       1.0  0.91151  0.69055  0.68539  1.0000
  H   H651      1.0  0.65599  0.51755  0.74015  1.0000
  H   H652      1.0  0.88503  0.81321  0.68016  1.0000
  H   H653      1.0  0.80899  0.56417  0.68839  1.0000
  C   C659      1.0  0.58109  0.85080  0.71372  1.0000
  H   H654      1.0  0.53792  0.82993  0.73329  1.0000
  C   C660      1.0  0.80752  0.76849  0.68678  1.0000
  C   C661      1.0  0.54496  0.81706  0.68153  1.0000
  C   C662      1.0  0.78261  0.79896  0.69193  1.0000
  Fe  Fe112     1.0  0.50916  0.75408  0.76335  1.0000
  C   C663      1.0  0.50931  0.66643  0.75042  1.0000
  C   C664      1.0  0.80362  0.60439  0.68975  1.0000
  H   H655      1.0  0.94123  0.73285  0.69960  1.0000
  H   H656      1.0  0.55377  0.75169  0.68099  1.0000
  H   H657      1.0  0.73335  0.56482  0.69407  1.0000
  C   C665      1.0  0.52845  0.67883  0.73180  1.0000
  H   H658      1.0  0.57322  0.71481  0.71804  1.0000
  C   C666      1.0  0.96718  0.72030  0.67831  1.0000
  H   H659      1.0  0.98167  0.80860  0.67899  1.0000
  H   H660      1.0  0.88352  0.70835  0.69764  1.0000
  H   H661      1.0  0.86182  0.66957  0.68940  1.0000
  C   C667      1.0  0.53059  0.81502  0.70140  1.0000
  C   C668      1.0  0.57741  0.83597  0.67822  1.0000
  H   H662      1.0  0.76173  0.80048  0.69497  1.0000
  C   C669      1.0  0.52027  0.68016  0.76951  1.0000
  H   H663      1.0  0.80542  0.74583  0.68582  1.0000
  H   H664      1.0  0.58358  0.72278  0.79296  1.0000
  C   C670      1.0  0.83764  0.82345  0.68174  1.0000
  H   H665      1.0  0.85957  0.84441  0.67708  1.0000
  H   H666      1.0  0.64130  0.87668  0.70521  1.0000
  H   H667      1.0  0.74875  0.50935  0.68853  1.0000
  H   H668      1.0  0.63859  0.86131  0.67992  1.0000
  C   C671      1.0  0.62892  0.87236  0.69031  1.0000
  H   H669      1.0  0.50503  0.67051  0.78384  1.0000
  H   H670      1.0  0.81258  0.84831  0.68575  1.0000
  H   H671      1.0  0.76958  0.95010  0.67140  1.0000
  C   C672      1.0  0.76798  0.97097  0.67122  1.0000
  S   S224      1.0  0.70289  0.85162  0.67102  1.0000
  H   H672      1.0  0.74618  0.53679  0.67054  1.0000
