data_image0
_chemical_formula_structural       HC4Fe2S2FeS2FeSFeS3CFeSFeS2FeSCS2CSHFeSHCFeSH6C5H2NC6H5C2HC3H2C3SC2HNHCHC4HCH2C5H5CSFeH2C3H2CHCSH6CSH4NHCNC2H4CH2C4SCH8CHC2H2C2NHCHSC3FeC2FeHCHCHSHSC2HNHCH3FeH2CHSCH2CHC3FeCHSHC2HFeCH4CNHSC2HC3H3SCH2CHC2HCFeCHSFeS2FeS2FeSFeS4HFeSHFeNSHCHCSHC2H2SCHFeC8H4CHCH2C5H2CH2C2S2C2HSC4H2CHC2HCHCHCN2H3C2H2NHC2HC2H3C3NHC2NHCHC3SCHCHNC3H2CHSNHFeC2HCH5C2H2CH2C2SCH2CHCSCHCHC2H2CH3C2H2SCHC2HCHS2H2NCFeS2FeS2FeSFeS3CFeSFeS2FeSCS2C2NFeSCHFeS2HSNH2C4H4C6H6NC4H2NC3HCH3CHC4HCH3C5H3CH2CHNC5H8SC2HNCHCSH2C6H3CHSH3FeSCH2SC2FeHFeC2HC7NH2C2HCHC3FeCSHC3HC3HFeCSCSC2HCNHCH3CSCFeH3CH8CH4CHSH2CSHCHSH2C2H3CSCHC3FeS2FeS2FeSFeS4CFeH2FeCS2H2CSHC3H2CHCH2C6H4CH2CH3C3NCH2CSHCH2CFeH2C3HSCHC2H3CSC2HNCH2CNC2NCHC2SC7H2C2H4CHNCHCH3C3HC5H2CHCSCNSC2HSH4FeH2CSHCHCH5C2H3C2H2CFeH4FeHSHC3SHFeSHCFeSFeSCFeSFeS2HFeSHFeS2FeSFeS3CSC6H3C5H3C7H4C5H3C2NC5HCH2CH2SH3CHSNHCSHCH5CH2CSCHC2HCHNHNC6H8C4FeSFeCNC3FeHCSCHC3H6CNSFeH3C2H6CH2SNH5NCFeHSCHCHCSC2HSHCH2CHC5HCHC2HCHFeS2NHCFeHFeS3CFeSFeS2FeCFeS3C2HFeC3H2C4SCH2C5H5CHC7H2SHNHCH2CH2CHSHNHC2HCH4C3HCFeCS2H2CHCHCH3CH6CSHFeSC2FeSFeSCFeSFe2SCFeS2FeS2FeSFeS4HC6H3C5H3C7H4C2HC2H4C2HC3H2CH2CHC2HCNCSNH8CS2H3CHC3HNC2SHC2SC2HC2H2CSH3CFeH2NH2FeHCHSFeSFeHCHNFeH2SHCHC2HC2NHCHCHCH5NH2CH2SCHC2HS2HC3H4C2SHCHC3FeS2FeH2FeHFeS3NFeSFeSHFeSFeS3C2HC5HCH2CHC2HC3H4CH2CH3CSCHCHCH2CH2NHCHSHCHC3H3C3HNHSC4H2SHCH2SCHCH3CHSHCH2FeS2FeS2FeSFeS3CFeSFeS2FeS4HCHFeSH2FeSH2CHC7H2C7H7SC4H2C2FeH3NC2SC4HSH2C5H4C4HCFeHC4FeH2C2H2NC5FeC2H4C2HCSH3CH6SC2H2CHSCHCHFeHSCHCHCSC2HCHSCNH2CH2C2NCHCFeHCH2CSFeH4NH2C3H3CHC2HC2H2SHSH2FeC4H2S2HC2H2CHC3FeS2FeS2FeSFeS4HFeH2FeCSFeSNHSHCHC4NH3C6H6C3HC3H2CHCH2S4C4HC2H2SCHNCHSCH2CH2NHC2NHCHC2NC5HC2H5C2SCHC3H2CH2CHC2FeHCH3CHCHC2H2SHSHNCNCH3CHNCHS2C2S2CHC2HC2HC5H3CSH3C4H5N2SC2FeS2FeS2FeSFeS3NFeSFeS2FeSFeS2C2HFeSH2FeSHSC2H2C5H2C7H5CFeHC3H3C5H3CHC4H5C4HSH2CSCSH2CH2CH2FeH2CHCH2S2C2HCHCH3FeCH3CHNCSHFeNHCH2SHCH2CFeCH2C4HCHC7HSCH4C4FeH4C2NHCHCH3C2H3C2HFeCH2C2SHC2H5CHNCHCHC3NCHNHSFeS2FeS2FeSFeS4CFeH2FeHSNHFeHSC4HCH2NHC7H4CHC6HCHC2H3C2HC3H2SH3CSCH2CHCNH3C9H2CHNC2HCH3C2H2C2HC3HSHC3H4CSHSCHCH3CNHC3HC2H4CHC2SCH2CHCH4C4HSHSH2C2FeHSNFeSC2FeSFeSHFeSFeS2HFeSHFeS2FeSFeS3HC7H3C5H2CHC6H4C2SNCH4NCFeC4HCH2FeHC2H6SHCHSC2FeHCH2SHC3H2SC2FeCH2NC2HC3H2FeSH3C3H2C3SH2CHC2SNC3HSH3CH6SNH4C2FeH2SHCH2C2HSH4CHCHCH4C2HCNCFeS2FeH2FeCFeS3CFeSFeSHFeHFeSCSC3HC3H3CH2C2HSC3HCH3CNSH3SHC2HC2H3CS2HC7H4SHCHC2HCH2CH2SCHCH2C2HC2SCFeS2HFeSFeS2FeSFeHSHFeSHFeS2FeSFeS3CHC6H3C5H2NHC6H4C2NC2H4CHSC4HCH2FeHFeHCNH3SH2NCFeH2CHSH2FeHCHCH3SH3C3HC2H3CHCSNC3H2CHSHC2H3CHCH2SCNHSCH2FeHC2HCH3CSHC2H2C2HC2HC7SCHCHSCSCH2SH3C2H2CFeS2FeSHFeHFeS3HFeSFeSCFeCFeS3H2NC4H4C2HC6H4CH2CHFeH2CSC4HSC2SC3HCH2CSHCH2SCH4CH2NC3H2SC2HC3H3CHNSHC3H2C
_chemical_formula_sum              "H1152 C1152 Fe192 S384 N96"
_cell_length_a       47.3212
_cell_length_b       45.1385
_cell_length_c       38.8701
_cell_angle_alpha    91.4493
_cell_angle_beta     90.1674
_cell_angle_gamma    120.257

_space_group_name_H-M_alt    "P 1"
_space_group_IT_number       1

loop_
  _space_group_symop_operation_xyz
  'x, y, z'

loop_
  _atom_site_type_symbol
  _atom_site_label
  _atom_site_symmetry_multiplicity
  _atom_site_fract_x
  _atom_site_fract_y
  _atom_site_fract_z
  _atom_site_occupancy
  H   H1        1.0  0.21668  0.30832  0.39330  1.0000
  C   C1        1.0  0.19791  0.21391  0.31064  1.0000
  C   C2        1.0  0.00191  0.04478  0.08100  1.0000
  C   C3        1.0  0.11528  0.14319  0.01945  1.0000
  C   C4        1.0  0.01249  0.18762  0.21035  1.0000
  Fe  Fe1       1.0  0.18594  0.33142  0.97902  1.0000
  Fe  Fe2       1.0  0.12520  0.23826  0.29877  1.0000
  S   S1        1.0  0.11064  0.27512  0.32112  1.0000
  S   S2        1.0  0.13842  0.20592  0.33245  1.0000
  Fe  Fe3       1.0  0.10787  0.24797  0.22748  1.0000
  S   S3        1.0  0.09240  0.28535  0.24353  1.0000
  S   S4        1.0  0.10316  0.22634  0.17415  1.0000
  Fe  Fe4       1.0  0.13764  0.30968  0.27749  1.0000
  S   S5        1.0  0.17012  0.36843  0.27254  1.0000
  Fe  Fe5       1.0  0.06578  0.24925  0.28629  1.0000
  S   S6        1.0  0.01458  0.24317  0.29346  1.0000
  S   S7        1.0  0.15522  0.27415  0.25758  1.0000
  S   S8        1.0  0.07864  0.21018  0.26700  1.0000
  C   C5        1.0  0.19679  0.10766  0.46750  1.0000
  Fe  Fe6       1.0  0.14482  0.34236  0.41522  1.0000
  S   S9        1.0  0.12520  0.37281  0.44260  1.0000
  Fe  Fe7       1.0  0.07685  0.27579  0.41447  1.0000
  S   S10       1.0  0.05338  0.30279  0.44219  1.0000
  S   S11       1.0  0.04592  0.21582  0.40556  1.0000
  Fe  Fe8       1.0  0.08105  0.34699  0.40686  1.0000
  S   S12       1.0  0.06381  0.38355  0.38687  1.0000
  C   C6        1.0  0.07079  0.44472  0.27963  1.0000
  S   S13       1.0  0.10221  0.31948  0.37720  1.0000
  S   S14       1.0  0.12011  0.29834  0.45187  1.0000
  C   C7        1.0  0.16532  0.40846  0.98281  1.0000
  S   S15       1.0  0.22214  0.99941  0.36395  1.0000
  H   H2        1.0  0.20649  0.34691  0.22842  1.0000
  Fe  Fe9       1.0  0.00248  0.01815  0.43260  1.0000
  S   S16       1.0  0.02097  0.05975  0.39453  1.0000
  H   H3        1.0  0.01653  0.14746  0.25487  1.0000
  C   C8        1.0  0.04052  0.02871  0.10380  1.0000
  Fe  Fe10      1.0  0.04216  0.02963  0.36852  1.0000
  S   S17       1.0  0.09764  0.05104  0.35956  1.0000
  H   H4        1.0  0.19861  0.23204  0.29250  1.0000
  H   H5        1.0  0.99209  0.18029  0.33247  1.0000
  H   H6        1.0  0.15653  0.13412  0.29296  1.0000
  H   H7        1.0  0.14108  0.07003  0.24050  1.0000
  H   H8        1.0  0.05426  0.01356  0.18562  1.0000
  H   H9        1.0  0.07555  0.36235  0.30658  1.0000
  C   C9        1.0  0.14682  0.07186  0.26771  1.0000
  C   C10       1.0  0.12112  0.05939  0.29179  1.0000
  C   C11       1.0  0.12822  0.06282  0.32721  1.0000
  C   C12       1.0  0.16113  0.07718  0.33781  1.0000
  C   C13       1.0  0.18670  0.08980  0.31380  1.0000
  H   H10       1.0  0.09599  0.04804  0.28295  1.0000
  H   H11       1.0  0.16710  0.07944  0.36492  1.0000
  N   N1        1.0  0.09791  0.41673  0.30334  1.0000
  C   C14       1.0  0.13725  0.25587  0.15135  1.0000
  C   C15       1.0  0.14598  0.24557  0.12089  1.0000
  C   C16       1.0  0.17423  0.26889  0.10360  1.0000
  C   C17       1.0  0.19356  0.30251  0.11670  1.0000
  C   C18       1.0  0.18439  0.31296  0.14671  1.0000
  C   C19       1.0  0.15635  0.28963  0.16416  1.0000
  H   H12       1.0  0.13123  0.21949  0.11091  1.0000
  H   H13       1.0  0.18134  0.26065  0.08050  1.0000
  H   H14       1.0  0.19871  0.33927  0.15607  1.0000
  H   H15       1.0  0.14925  0.29794  0.18721  1.0000
  H   H16       1.0  0.09739  0.17687  0.39363  1.0000
  C   C20       1.0  0.10521  0.11239  0.00050  1.0000
  C   C21       1.0  0.19603  0.16584  0.35658  1.0000
  H   H17       1.0  0.11192  0.38621  0.33187  1.0000
  C   C22       1.0  0.18317  0.40550  0.30029  1.0000
  C   C23       1.0  0.17855  0.40339  0.33585  1.0000
  C   C24       1.0  0.09319  0.47528  0.29673  1.0000
  H   H18       1.0  0.11481  0.38358  0.28563  1.0000
  H   H19       1.0  0.16677  0.37856  0.34747  1.0000
  C   C25       1.0  0.99407  0.45603  0.12549  1.0000
  C   C26       1.0  0.17176  0.19821  0.33317  1.0000
  C   C27       1.0  0.17107  0.17427  0.35623  1.0000
  S   S18       1.0  0.12556  0.47022  0.98213  1.0000
  C   C28       1.0  0.19859  0.43826  0.28588  1.0000
  C   C29       1.0  0.16181  0.15591  0.24354  1.0000
  H   H20       1.0  0.15070  0.16152  0.37340  1.0000
  N   N2        1.0  0.01730  0.03766  0.10995  1.0000
  H   H21       1.0  0.01450  0.40998  0.43159  1.0000
  C   C30       1.0  0.00942  0.11358  0.33907  1.0000
  H   H22       1.0  0.11602  0.45491  0.40004  1.0000
  C   C31       1.0  0.00722  0.14555  0.39062  1.0000
  C   C32       1.0  0.03297  0.17700  0.37940  1.0000
  C   C33       1.0  0.04737  0.17631  0.34812  1.0000
  C   C34       1.0  0.03564  0.14516  0.32830  1.0000
  H   H23       1.0  0.17820  0.13296  0.01734  1.0000
  C   C35       1.0  0.05432  0.02015  0.13089  1.0000
  H   H24       1.0  0.06763  0.19987  0.33925  1.0000
  H   H25       1.0  0.04708  0.14556  0.30432  1.0000
  C   C36       1.0  0.19481  0.28422  0.39872  1.0000
  C   C37       1.0  0.01862  0.42987  0.34095  1.0000
  C   C38       1.0  0.03849  0.42244  0.36210  1.0000
  C   C39       1.0  0.03664  0.39035  0.36005  1.0000
  C   C40       1.0  0.01460  0.36582  0.33597  1.0000
  H   H26       1.0  0.16841  0.10337  0.42209  1.0000
  H   H27       1.0  0.02154  0.45507  0.34216  1.0000
  H   H28       1.0  0.05565  0.44196  0.37998  1.0000
  H   H29       1.0  0.01331  0.34139  0.33299  1.0000
  H   H30       1.0  0.16211  0.30018  0.37928  1.0000
  C   C41       1.0  0.14451  0.14054  0.27318  1.0000
  S   S19       1.0  0.22924  0.33167  0.09583  1.0000
  Fe  Fe11      1.0  0.08022  0.47471  0.99277  1.0000
  H   H31       1.0  0.03288  0.18347  0.20596  1.0000
  H   H32       1.0  0.22677  0.40914  0.22662  1.0000
  C   C42       1.0  0.10022  0.38575  0.30686  1.0000
  C   C43       1.0  0.04432  0.02093  0.16447  1.0000
  C   C44       1.0  0.98971  0.45312  0.16108  1.0000
  H   H33       1.0  0.00198  0.29185  0.35803  1.0000
  H   H34       1.0  0.98718  0.04306  0.14748  1.0000
  C   C45       1.0  0.99598  0.40525  0.31745  1.0000
  H   H35       1.0  0.01796  0.25205  0.38070  1.0000
  C   C46       1.0  0.02050  0.02992  0.17051  1.0000
  S   S20       1.0  0.03012  0.43402  0.00903  1.0000
  H   H36       1.0  0.05979  0.40326  0.45569  1.0000
  H   H37       1.0  0.22087  0.26040  0.41847  1.0000
  H   H38       1.0  0.21570  0.30039  0.20712  1.0000
  H   H39       1.0  0.02990  0.22821  0.17395  1.0000
  H   H40       1.0  0.13995  0.44792  0.33517  1.0000
  H   H41       1.0  0.04812  0.02759  0.07775  1.0000
  C   C47       1.0  0.22273  0.20527  0.31085  1.0000
  S   S21       1.0  0.07706  0.07295  0.01940  1.0000
  H   H42       1.0  0.14151  0.07428  0.00681  1.0000
  H   H43       1.0  0.01162  0.02937  0.19633  1.0000
  H   H44       1.0  0.16051  0.17803  0.19547  1.0000
  H   H45       1.0  0.21075  0.98821  0.28834  1.0000
  N   N3        1.0  0.98913  0.16889  0.23386  1.0000
  H   H46       1.0  0.22712  0.03493  0.45754  1.0000
  C   C48       1.0  0.22198  0.18117  0.33373  1.0000
  N   N4        1.0  0.11328  0.13421  0.27743  1.0000
  C   C49       1.0  0.09861  0.14320  0.25271  1.0000
  C   C50       1.0  0.09525  0.11795  0.30858  1.0000
  H   H47       1.0  0.07386  0.13811  0.25610  1.0000
  H   H48       1.0  0.11019  0.11284  0.32685  1.0000
  H   H49       1.0  0.08860  0.13518  0.32256  1.0000
  H   H50       1.0  0.07260  0.09324  0.30203  1.0000
  C   C51       1.0  0.18974  0.43348  0.35669  1.0000
  H   H51       1.0  0.09161  0.47258  0.12926  1.0000
  H   H52       1.0  0.18953  0.41194  0.98603  1.0000
  C   C52       1.0  0.07370  0.41558  0.28300  1.0000
  C   C53       1.0  0.11851  0.47659  0.31644  1.0000
  C   C54       1.0  0.10842  0.19015  0.41876  1.0000
  C   C55       1.0  0.12051  0.44686  0.31947  1.0000
  S   S22       1.0  0.99647  0.07427  0.31272  1.0000
  C   C56       1.0  0.19709  0.25747  0.41309  1.0000
  H   H53       1.0  0.05576  0.39172  0.27024  1.0000
  H   H54       1.0  0.00581  0.44841  0.17689  1.0000
  H   H55       1.0  0.99585  0.14508  0.41482  1.0000
  H   H56       1.0  0.17733  0.99728  0.42483  1.0000
  H   H57       1.0  0.18649  0.16037  0.24045  1.0000
  H   H58       1.0  0.09029  0.19474  0.43239  1.0000
  H   H59       1.0  0.19510  0.14726  0.37422  1.0000
  H   H60       1.0  0.19961  0.34693  0.33450  1.0000
  C   C57       1.0  0.09651  0.43788  0.07491  1.0000
  H   H61       1.0  0.16766  0.46992  0.43067  1.0000
  C   C58       1.0  0.13810  0.17516  0.00612  1.0000
  C   C59       1.0  0.99589  0.11451  0.37098  1.0000
  H   H62       1.0  0.21179  0.10140  0.32252  1.0000
  H   H63       1.0  0.18118  0.46187  0.99298  1.0000
  C   C60       1.0  0.20556  0.46625  0.34239  1.0000
  C   C61       1.0  0.16849  0.10152  0.44988  1.0000
  N   N5        1.0  0.13838  0.22284  0.41284  1.0000
  H   H64       1.0  0.10543  0.14235  0.04473  1.0000
  C   C62       1.0  0.11543  0.15934  0.22299  1.0000
  H   H65       1.0  0.11790  0.08761  0.45474  1.0000
  S   S23       1.0  0.99701  0.99954  0.33581  1.0000
  C   C63       1.0  0.99114  0.14241  0.25301  1.0000
  C   C64       1.0  0.15894  0.07267  0.98991  1.0000
  C   C65       1.0  0.17998  0.08838  0.27859  1.0000
  Fe  Fe12      1.0  0.19817  0.27007  0.97889  1.0000
  C   C66       1.0  0.14721  0.16561  0.21840  1.0000
  C   C67       1.0  0.00686  0.03782  0.14273  1.0000
  Fe  Fe13      1.0  0.05441  0.01646  0.00255  1.0000
  H   H66       1.0  0.99342  0.06279  0.08888  1.0000
  C   C68       1.0  0.22483  0.36391  0.34240  1.0000
  H   H67       1.0  0.10402  0.16712  0.20371  1.0000
  C   C69       1.0  0.20949  0.46836  0.30666  1.0000
  H   H68       1.0  0.11306  0.17282  0.43446  1.0000
  S   S24       1.0  0.21166  0.10851  0.24748  1.0000
  H   H69       1.0  0.98297  0.23794  0.18302  1.0000
  S   S25       1.0  0.20116  0.36843  0.40767  1.0000
  C   C70       1.0  0.12932  0.43295  0.98160  1.0000
  C   C71       1.0  0.14020  0.09288  0.46822  1.0000
  H   H70       1.0  0.01949  0.05686  0.05979  1.0000
  N   N6        1.0  0.18933  0.10067  0.98548  1.0000
  H   H71       1.0  0.20170  0.44037  0.25834  1.0000
  C   C72       1.0  0.99463  0.37330  0.31481  1.0000
  H   H72       1.0  0.14564  0.19856  0.02113  1.0000
  H   H73       1.0  0.18636  0.43119  0.38423  1.0000
  H   H74       1.0  0.07192  0.01198  0.12565  1.0000
  Fe  Fe14      1.0  0.01114  0.46366  0.98058  1.0000
  H   H75       1.0  0.05057  0.44328  0.26488  1.0000
  H   H76       1.0  0.10320  0.41904  0.08391  1.0000
  C   C73       1.0  0.13602  0.24879  0.39832  1.0000
  H   H77       1.0  0.21912  0.11478  0.45369  1.0000
  S   S26       1.0  0.17136  0.28725  0.01419  1.0000
  C   C74       1.0  0.16412  0.27978  0.39104  1.0000
  H   H78       1.0  0.15462  0.99519  0.34970  1.0000
  H   H79       1.0  0.11232  0.24518  0.39129  1.0000
  C   C75       1.0  0.01079  0.21287  0.19187  1.0000
  H   H80       1.0  0.21911  0.13996  0.02220  1.0000
  C   C76       1.0  0.16844  0.22672  0.41996  1.0000
  C   C77       1.0  0.98524  0.27133  0.37412  1.0000
  C   C78       1.0  0.16047  0.43675  0.98675  1.0000
  Fe  Fe15      1.0  0.22078  0.32112  0.03901  1.0000
  C   C79       1.0  0.19892  0.13349  0.00338  1.0000
  H   H81       1.0  0.05874  0.01927  0.46495  1.0000
  S   S27       1.0  0.02673  0.45341  0.10717  1.0000
  H   H82       1.0  0.17043  0.20580  0.43035  1.0000
  C   C80       1.0  0.02367  0.41900  0.45770  1.0000
  C   C81       1.0  0.98452  0.21829  0.19694  1.0000
  H   H83       1.0  0.11958  0.99921  0.36036  1.0000
  Fe  Fe16      1.0  0.03738  0.47084  0.05264  1.0000
  C   C82       1.0  0.13064  0.48013  0.41226  1.0000
  H   H84       1.0  0.20758  0.15438  0.98457  1.0000
  H   H85       1.0  0.09516  0.43658  0.04631  1.0000
  H   H86       1.0  0.12564  0.01931  0.97581  1.0000
  H   H87       1.0  0.07153  0.43032  0.08391  1.0000
  C   C83       1.0  0.99441  0.24899  0.38724  1.0000
  N   N7        1.0  0.12078  0.47253  0.08746  1.0000
  H   H88       1.0  0.98270  0.14153  0.27987  1.0000
  S   S28       1.0  0.02305  0.98827  0.40776  1.0000
  C   C84       1.0  0.04901  0.41521  0.47118  1.0000
  C   C85       1.0  0.11468  0.48660  0.11608  1.0000
  H   H89       1.0  0.15500  0.47885  0.04866  1.0000
  C   C86       1.0  0.23210  0.37795  0.37602  1.0000
  C   C87       1.0  0.23221  0.01402  0.45745  1.0000
  C   C88       1.0  0.23099  0.35298  0.22141  1.0000
  H   H90       1.0  0.99021  0.43705  0.46755  1.0000
  H   H91       1.0  0.98296  0.23807  0.52976  1.0000
  H   H92       1.0  0.13208  0.45168  0.90344  1.0000
  S   S29       1.0  0.21378  0.06682  0.85458  1.0000
  C   C89       1.0  0.15461  0.12606  0.75190  1.0000
  H   H93       1.0  0.00651  0.24726  0.72596  1.0000
  H   H94       1.0  0.98597  0.19626  0.76191  1.0000
  C   C90       1.0  0.06235  0.02393  0.56442  1.0000
  H   H95       1.0  0.12038  0.39293  0.88871  1.0000
  C   C91       1.0  0.10290  0.40038  0.97313  1.0000
  C   C92       1.0  0.21119  0.15702  0.76679  1.0000
  H   H96       1.0  0.06380  0.02612  0.59216  1.0000
  C   C93       1.0  0.16830  0.09202  0.55835  1.0000
  Fe  Fe17      1.0  0.06738  0.47978  0.67659  1.0000
  C   C94       1.0  0.10029  0.21940  0.87978  1.0000
  H   H97       1.0  0.09489  0.30788  0.90723  1.0000
  S   S30       1.0  0.20963  0.31199  0.94152  1.0000
  Fe  Fe18      1.0  0.14204  0.30275  0.80426  1.0000
  S   S31       1.0  0.11332  0.32328  0.83226  1.0000
  S   S32       1.0  0.16411  0.27770  0.83737  1.0000
  Fe  Fe19      1.0  0.11831  0.31167  0.73358  1.0000
  S   S33       1.0  0.08691  0.33135  0.75656  1.0000
  S   S34       1.0  0.12320  0.29737  0.67764  1.0000
  Fe  Fe20      1.0  0.13095  0.36360  0.79190  1.0000
  S   S35       1.0  0.14154  0.41812  0.80624  1.0000
  Fe  Fe21      1.0  0.07119  0.29030  0.79602  1.0000
  S   S36       1.0  0.02079  0.24970  0.81644  1.0000
  S   S37       1.0  0.16314  0.34591  0.76669  1.0000
  S   S38       1.0  0.09921  0.26793  0.77020  1.0000
  S   S39       1.0  0.09186  0.33953  0.53290  1.0000
  H   H98       1.0  0.16493  0.01488  0.93708  1.0000
  Fe  Fe22      1.0  0.09087  0.05140  0.68005  1.0000
  S   S40       1.0  0.00736  0.03149  0.48925  1.0000
  H   H99       1.0  0.04905  0.27848  0.61540  1.0000
  Fe  Fe23      1.0  0.15748  0.05296  0.68454  1.0000
  N   N8        1.0  0.18373  0.47264  0.90747  1.0000
  S   S41       1.0  0.20990  0.09394  0.69958  1.0000
  H   H100      1.0  0.06209  0.28043  0.93494  1.0000
  C   C95       1.0  0.08738  0.24131  0.88033  1.0000
  H   H101      1.0  0.12379  0.19814  0.90988  1.0000
  C   C96       1.0  0.00564  0.20909  0.54371  1.0000
  S   S42       1.0  0.13373  0.06893  0.64497  1.0000
  H   H102      1.0  0.99762  0.29966  0.81805  1.0000
  C   C97       1.0  0.03761  0.02697  0.51076  1.0000
  C   C98       1.0  0.03980  0.02974  0.54672  1.0000
  H   H103      1.0  0.07653  0.22391  0.68224  1.0000
  H   H104      1.0  0.12344  0.22830  0.96390  1.0000
  S   S43       1.0  0.10886  0.00484  0.56794  1.0000
  C   C99       1.0  0.13950  0.43570  0.72014  1.0000
  H   H105      1.0  0.02371  0.03590  0.56100  1.0000
  Fe  Fe24      1.0  0.10929  0.01478  0.62498  1.0000
  C   C100      1.0  0.01746  0.38732  0.68263  1.0000
  C   C101      1.0  0.14125  0.14593  0.95461  1.0000
  C   C102      1.0  0.11825  0.31260  0.63753  1.0000
  C   C103      1.0  0.12217  0.29796  0.60678  1.0000
  C   C104      1.0  0.11570  0.30699  0.57436  1.0000
  C   C105      1.0  0.10518  0.33085  0.57235  1.0000
  C   C106      1.0  0.10254  0.34649  0.60304  1.0000
  C   C107      1.0  0.10906  0.33748  0.63544  1.0000
  H   H106      1.0  0.12964  0.27896  0.60805  1.0000
  H   H107      1.0  0.11793  0.29479  0.55105  1.0000
  H   H108      1.0  0.09476  0.36525  0.60176  1.0000
  H   H109      1.0  0.10630  0.34922  0.65880  1.0000
  C   C108      1.0  0.18149  0.99829  0.83499  1.0000
  H   H110      1.0  0.01323  0.14735  0.65374  1.0000
  C   C109      1.0  0.17733  0.45860  0.81555  1.0000
  H   H111      1.0  0.05461  0.45014  0.55097  1.0000
  H   H112      1.0  0.02300  0.47826  0.55285  1.0000
  C   C110      1.0  0.03724  0.25939  0.59481  1.0000
  C   C111      1.0  0.00996  0.43429  0.47822  1.0000
  C   C112      1.0  0.21206  0.02750  0.84315  1.0000
  C   C113      1.0  0.02746  0.20690  0.56629  1.0000
  C   C114      1.0  0.01367  0.07224  0.70024  1.0000
  H   H113      1.0  0.15127  0.14684  0.92941  1.0000
  H   H114      1.0  0.13675  0.15174  0.71987  1.0000
  C   C115      1.0  0.19041  0.26079  0.82901  1.0000
  H   H115      1.0  0.01612  0.13457  0.75653  1.0000
  H   H116      1.0  0.07888  0.39709  0.96869  1.0000
  C   C116      1.0  0.15128  0.17670  0.97364  1.0000
  C   C117      1.0  0.09997  0.25334  0.94005  1.0000
  S   S44       1.0  0.07867  0.09462  0.68452  1.0000
  S   S45       1.0  0.02543  0.42901  0.69537  1.0000
  C   C118      1.0  0.20892  0.46352  0.81364  1.0000
  C   C119      1.0  0.05898  0.01970  0.49258  1.0000
  H   H117      1.0  0.19217  0.10745  0.81196  1.0000
  S   S46       1.0  0.00229  0.27890  0.66371  1.0000
  C   C120      1.0  0.14069  0.09064  0.50406  1.0000
  C   C121      1.0  0.19619  0.10436  0.50323  1.0000
  C   C122      1.0  0.13365  0.47906  0.74946  1.0000
  C   C123      1.0  0.21524  0.18517  0.74851  1.0000
  H   H118      1.0  0.10156  0.20744  0.85574  1.0000
  H   H119      1.0  0.06377  0.40441  0.65848  1.0000
  C   C124      1.0  0.03542  0.34901  0.65978  1.0000
  H   H120      1.0  0.15963  0.00025  0.83573  1.0000
  C   C125      1.0  0.17095  0.40645  0.89207  1.0000
  C   C126      1.0  0.07432  0.28129  0.91034  1.0000
  H   H121      1.0  0.20200  0.47792  0.73597  1.0000
  C   C127      1.0  0.20300  0.43297  0.89829  1.0000
  H   H122      1.0  0.13073  0.10311  0.75285  1.0000
  C   C128      1.0  0.17372  0.48684  0.82505  1.0000
  H   H123      1.0  0.05635  0.17399  0.71977  1.0000
  C   C129      1.0  0.00557  0.20196  0.74412  1.0000
  N   N9        1.0  0.16833  0.09587  0.52101  1.0000
  N   N10       1.0  0.01669  0.26196  0.57185  1.0000
  H   H124      1.0  0.22301  0.42779  0.89719  1.0000
  H   H125      1.0  0.18754  0.11612  0.57120  1.0000
  H   H126      1.0  0.05418  0.34562  0.64794  1.0000
  C   C130      1.0  0.04091  0.38242  0.66579  1.0000
  C   C131      1.0  0.08224  0.01457  0.54622  1.0000
  H   H127      1.0  0.18693  0.08467  0.77144  1.0000
  H   H128      1.0  0.07819  0.24562  0.85648  1.0000
  N   N11       1.0  0.08698  0.25759  0.91035  1.0000
  H   H129      1.0  0.14942  0.48340  0.82664  1.0000
  C   C132      1.0  0.00609  0.32000  0.66931  1.0000
  C   C133      1.0  0.01308  0.12627  0.66652  1.0000
  H   H130      1.0  0.05998  0.23061  0.61023  1.0000
  C   C134      1.0  0.05629  0.21765  0.69928  1.0000
  C   C135      1.0  0.06021  0.42654  0.50488  1.0000
  H   H131      1.0  0.14435  0.08545  0.56969  1.0000
  H   H132      1.0  0.06185  0.13986  0.65081  1.0000
  H   H133      1.0  0.17565  0.23057  0.87456  1.0000
  C   C136      1.0  0.14537  0.41334  0.89360  1.0000
  C   C137      1.0  0.04578  0.44147  0.52474  1.0000
  C   C138      1.0  0.17777  0.09876  0.78740  1.0000
  N   N12       1.0  0.01941  0.18173  0.74231  1.0000
  H   H134      1.0  0.22589  0.03919  0.69405  1.0000
  C   C139      1.0  0.11310  0.21451  0.91005  1.0000
  C   C140      1.0  0.19179  0.23851  0.85281  1.0000
  N   N13       1.0  0.15306  0.46814  0.73439  1.0000
  H   H135      1.0  0.06008  0.40561  0.74077  1.0000
  C   C141      1.0  0.18833  0.18348  0.73177  1.0000
  H   H136      1.0  0.17282  0.07076  0.56433  1.0000
  C   C142      1.0  0.10587  0.41278  0.72211  1.0000
  C   C143      1.0  0.17187  0.03896  0.95076  1.0000
  C   C144      1.0  0.13914  0.37615  0.97294  1.0000
  S   S47       1.0  0.18050  0.21627  0.95589  1.0000
  C   C145      1.0  0.98623  0.10450  0.68635  1.0000
  H   H137      1.0  0.99224  0.18905  0.52425  1.0000
  C   C146      1.0  0.01696  0.23074  0.72375  1.0000
  H   H138      1.0  0.11864  0.08417  0.51815  1.0000
  N   N14       1.0  0.18109  0.12809  0.76861  1.0000
  C   C147      1.0  0.09993  0.45676  0.75192  1.0000
  C   C148      1.0  0.15221  0.44673  0.90158  1.0000
  C   C149      1.0  0.14975  0.04148  0.97252  1.0000
  H   H139      1.0  0.07989  0.42369  0.51570  1.0000
  H   H140      1.0  0.21559  0.21059  0.86847  1.0000
  C   C150      1.0  0.21135  0.09828  0.96458  1.0000
  H   H141      1.0  0.05144  0.26083  0.68519  1.0000
  S   S48       1.0  0.06438  0.99743  0.65688  1.0000
  N   N15       1.0  0.02128  0.44557  0.51118  1.0000
  H   H142      1.0  0.15194  0.08066  0.79399  1.0000
  Fe  Fe25      1.0  0.09828  0.32764  0.47668  1.0000
  C   C151      1.0  0.20294  0.06748  0.94680  1.0000
  C   C152      1.0  0.21184  0.27110  0.80132  1.0000
  H   H143      1.0  0.21218  0.44215  0.80636  1.0000
  C   C153      1.0  0.11297  0.23154  0.94041  1.0000
  H   H144      1.0  0.09514  0.38702  0.71100  1.0000
  H   H145      1.0  0.10072  0.26718  0.96359  1.0000
  H   H146      1.0  0.15473  0.42720  0.70763  1.0000
  H   H147      1.0  0.08749  0.34746  0.96062  1.0000
  H   H148      1.0  0.19113  0.20520  0.71766  1.0000
  C   C154      1.0  0.00785  0.15262  0.76510  1.0000
  C   C155      1.0  0.04486  0.18957  0.72070  1.0000
  H   H149      1.0  0.01385  0.05177  0.71393  1.0000
  H   H150      1.0  0.22029  0.06574  0.92988  1.0000
  C   C156      1.0  0.04225  0.23839  0.70095  1.0000
  H   H151      1.0  0.20137  0.00297  0.75569  1.0000
  H   H152      1.0  0.16586  0.38053  0.88641  1.0000
  C   C157      1.0  0.04118  0.09494  0.68178  1.0000
  C   C158      1.0  0.04060  0.12188  0.66483  1.0000
  S   S49       1.0  0.13633  0.99964  0.66155  1.0000
  C   C159      1.0  0.15783  0.15365  0.73324  1.0000
  H   H153      1.0  0.08450  0.46530  0.76391  1.0000
  H   H154      1.0  0.11061  0.09052  0.95286  1.0000
  C   C160      1.0  0.20900  0.46613  0.90602  1.0000
  H   H155      1.0  0.03050  0.31262  0.59006  1.0000
  C   C161      1.0  0.08614  0.42327  0.73864  1.0000
  S   S50       1.0  0.11609  0.03813  0.72136  1.0000
  C   C162      1.0  0.21466  0.22728  0.84955  1.0000
  H   H156      1.0  0.21133  0.28843  0.78291  1.0000
  C   C163      1.0  0.08080  0.01281  0.51024  1.0000
  H   H157      1.0  0.03150  0.18532  0.56425  1.0000
  C   C164      1.0  0.04333  0.23216  0.59211  1.0000
  C   C165      1.0  0.00044  0.23691  0.54696  1.0000
  H   H158      1.0  0.01685  0.16205  0.79180  1.0000
  H   H159      1.0  0.23161  0.26573  0.91377  1.0000
  C   C166      1.0  0.00567  0.46015  0.53279  1.0000
  H   H160      1.0  0.05607  0.27474  0.88911  1.0000
  H   H161      1.0  0.09655  0.00617  0.49601  1.0000
  H   H162      1.0  0.99765  0.47503  0.51722  1.0000
  C   C167      1.0  0.98781  0.35829  0.69178  1.0000
  C   C168      1.0  0.01077  0.29080  0.57476  1.0000
  H   H163      1.0  0.98716  0.28258  0.58773  1.0000
  H   H164      1.0  0.21818  0.10858  0.51662  1.0000
  S   S51       1.0  0.14472  0.34088  0.96233  1.0000
  C   C169      1.0  0.10790  0.37226  0.96844  1.0000
  H   H165      1.0  0.01055  0.30068  0.54894  1.0000
  C   C170      1.0  0.11824  0.11392  0.96787  1.0000
  C   C171      1.0  0.98656  0.07722  0.70274  1.0000
  H   H166      1.0  0.98420  0.43935  0.54571  1.0000
  C   C172      1.0  0.98278  0.24706  0.82739  1.0000
  H   H167      1.0  0.23227  0.15856  0.77968  1.0000
  S   S52       1.0  0.01582  0.49800  0.02533  1.0000
  S   S53       1.0  0.18126  0.79027  0.02522  1.0000
  H   H168      1.0  0.05681  0.94854  0.26105  1.0000
  H   H169      1.0  0.10734  0.79738  0.15189  1.0000
  N   N16       1.0  0.98623  0.53622  0.97611  1.0000
  C   C173      1.0  0.10579  0.90506  0.00646  1.0000
  Fe  Fe26      1.0  0.12141  0.73690  0.30345  1.0000
  S   S54       1.0  0.10162  0.77078  0.32133  1.0000
  S   S55       1.0  0.14000  0.71248  0.34189  1.0000
  Fe  Fe27      1.0  0.10671  0.74235  0.22974  1.0000
  S   S56       1.0  0.08580  0.77595  0.24154  1.0000
  S   S57       1.0  0.10396  0.72137  0.17609  1.0000
  Fe  Fe28      1.0  0.12901  0.80515  0.27767  1.0000
  S   S58       1.0  0.15584  0.86301  0.26708  1.0000
  Fe  Fe29      1.0  0.05917  0.74066  0.28466  1.0000
  S   S59       1.0  0.00751  0.73363  0.28958  1.0000
  S   S60       1.0  0.15178  0.77327  0.26283  1.0000
  S   S61       1.0  0.07712  0.70451  0.26918  1.0000
  C   C174      1.0  0.20293  0.66466  0.00952  1.0000
  Fe  Fe30      1.0  0.14765  0.84501  0.41585  1.0000
  S   S62       1.0  0.12658  0.87416  0.44303  1.0000
  Fe  Fe31      1.0  0.07982  0.77785  0.41233  1.0000
  S   S63       1.0  0.05526  0.80391  0.43960  1.0000
  S   S64       1.0  0.04734  0.71782  0.40344  1.0000
  Fe  Fe32      1.0  0.08366  0.84914  0.40575  1.0000
  S   S65       1.0  0.06636  0.88630  0.38804  1.0000
  C   C175      1.0  0.09065  0.96534  0.30429  1.0000
  S   S66       1.0  0.10627  0.82298  0.37646  1.0000
  S   S67       1.0  0.12209  0.79982  0.45112  1.0000
  C   C176      1.0  0.02328  0.90306  0.46162  1.0000
  C   C177      1.0  0.00949  0.70339  0.18978  1.0000
  N   N17       1.0  0.13190  0.69975  0.43607  1.0000
  Fe  Fe33      1.0  0.00523  0.52141  0.43076  1.0000
  S   S68       1.0  0.02115  0.56015  0.39020  1.0000
  C   C178      1.0  0.11199  0.62981  0.99704  1.0000
  H   H170      1.0  0.09855  0.49849  0.39640  1.0000
  Fe  Fe34      1.0  0.04105  0.52861  0.36495  1.0000
  S   S69       1.0  0.09576  0.54837  0.35288  1.0000
  S   S70       1.0  0.15809  0.85739  0.02300  1.0000
  H   H171      1.0  0.06469  0.52796  0.45711  1.0000
  S   S71       1.0  0.01180  0.91577  0.99642  1.0000
  N   N18       1.0  0.11061  0.95866  0.32415  1.0000
  H   H172      1.0  0.13041  0.80874  0.09283  1.0000
  H   H173      1.0  0.21162  0.59856  0.32070  1.0000
  C   C179      1.0  0.15063  0.58525  0.26537  1.0000
  C   C180      1.0  0.12377  0.57005  0.28784  1.0000
  C   C181      1.0  0.12861  0.56626  0.32268  1.0000
  C   C182      1.0  0.16062  0.57659  0.33410  1.0000
  H   H174      1.0  0.21095  0.88215  0.21230  1.0000
  H   H175      1.0  0.09934  0.56103  0.27806  1.0000
  H   H176      1.0  0.16498  0.57361  0.36074  1.0000
  H   H177      1.0  0.19034  0.84260  0.08585  1.0000
  C   C183      1.0  0.14218  0.73949  0.15619  1.0000
  C   C184      1.0  0.14369  0.73518  0.12061  1.0000
  C   C185      1.0  0.17388  0.75226  0.10411  1.0000
  C   C186      1.0  0.20246  0.77416  0.12302  1.0000
  C   C187      1.0  0.20125  0.77656  0.15879  1.0000
  C   C188      1.0  0.17116  0.75916  0.17529  1.0000
  H   H178      1.0  0.12149  0.71916  0.10571  1.0000
  H   H179      1.0  0.17495  0.74822  0.07686  1.0000
  H   H180      1.0  0.07244  0.89183  0.46783  1.0000
  H   H181      1.0  0.17058  0.76115  0.20272  1.0000
  H   H182      1.0  0.20427  0.85532  0.33696  1.0000
  H   H183      1.0  0.98989  0.91476  0.43563  1.0000
  N   N19       1.0  0.98719  0.66175  0.23401  1.0000
  C   C189      1.0  0.18689  0.93313  0.27956  1.0000
  C   C190      1.0  0.17385  0.90070  0.29436  1.0000
  C   C191      1.0  0.17541  0.89930  0.33011  1.0000
  C   C192      1.0  0.15534  0.73577  0.42919  1.0000
  H   H184      1.0  0.05739  0.63523  0.40981  1.0000
  H   H185      1.0  0.16555  0.87475  0.34201  1.0000
  N   N20       1.0  0.20875  0.98155  0.44697  1.0000
  C   C193      1.0  0.16978  0.69962  0.33674  1.0000
  C   C194      1.0  0.17425  0.68134  0.36302  1.0000
  C   C195      1.0  0.19798  0.67123  0.36036  1.0000
  H   H186      1.0  0.14647  0.58840  0.23868  1.0000
  C   C196      1.0  0.12078  0.50444  0.41033  1.0000
  H   H187      1.0  0.15929  0.67488  0.38561  1.0000
  H   H188      1.0  0.22039  0.49310  0.29490  1.0000
  H   H189      1.0  0.02529  0.88943  0.43926  1.0000
  C   C197      1.0  0.00702  0.61311  0.34018  1.0000
  H   H190      1.0  0.09063  0.49774  0.29502  1.0000
  C   C198      1.0  0.00539  0.64745  0.38994  1.0000
  C   C199      1.0  0.03269  0.67781  0.37875  1.0000
  C   C200      1.0  0.04761  0.67513  0.34868  1.0000
  C   C201      1.0  0.03497  0.64338  0.32979  1.0000
  H   H191      1.0  0.09420  0.64241  0.33697  1.0000
  C   C202      1.0  0.17371  0.52314  0.08273  1.0000
  H   H192      1.0  0.06929  0.69765  0.34033  1.0000
  H   H193      1.0  0.04698  0.64231  0.30673  1.0000
  H   H194      1.0  0.03113  0.67455  0.20730  1.0000
  C   C203      1.0  0.01811  0.92917  0.34159  1.0000
  C   C204      1.0  0.03781  0.92233  0.36371  1.0000
  C   C205      1.0  0.03979  0.89239  0.35942  1.0000
  C   C206      1.0  0.02168  0.86943  0.33222  1.0000
  C   C207      1.0  0.18397  0.65225  0.03893  1.0000
  H   H195      1.0  0.01779  0.95266  0.34484  1.0000
  H   H196      1.0  0.05192  0.94076  0.38409  1.0000
  H   H197      1.0  0.02350  0.84676  0.32765  1.0000
  C   C208      1.0  0.15974  0.48868  0.42985  1.0000
  H   H198      1.0  0.09650  0.69636  0.39985  1.0000
  H   H199      1.0  0.01188  0.79116  0.34801  1.0000
  C   C209      1.0  0.16842  0.54416  0.44422  1.0000
  H   H200      1.0  0.12558  0.66774  0.27872  1.0000
  N   N21       1.0  0.08610  0.61755  0.28789  1.0000
  C   C210      1.0  0.05990  0.58845  0.27401  1.0000
  C   C211      1.0  0.10485  0.64477  0.26767  1.0000
  C   C212      1.0  0.05150  0.58635  0.23914  1.0000
  C   C213      1.0  0.09726  0.64357  0.23265  1.0000
  C   C214      1.0  0.07033  0.61416  0.21838  1.0000
  H   H201      1.0  0.01988  0.57973  0.00707  1.0000
  H   H202      1.0  0.04524  0.56664  0.28994  1.0000
  H   H203      1.0  0.20152  0.65773  0.38100  1.0000
  H   H204      1.0  0.03042  0.56328  0.22852  1.0000
  H   H205      1.0  0.11204  0.66545  0.21680  1.0000
  H   H206      1.0  0.06415  0.61294  0.19128  1.0000
  H   H207      1.0  0.18293  0.56920  0.45688  1.0000
  H   H208      1.0  0.16568  0.75093  0.45357  1.0000
  S   S72       1.0  0.08372  0.59102  0.01685  1.0000
  C   C215      1.0  0.14266  0.69268  0.99999  1.0000
  C   C216      1.0  0.09854  0.90985  0.28753  1.0000
  H   H209      1.0  0.16469  0.95321  0.41722  1.0000
  N   N22       1.0  0.18794  0.84375  0.17288  1.0000
  C   C217      1.0  0.98341  0.70940  0.19322  1.0000
  H   H210      1.0  0.19665  0.53723  0.06929  1.0000
  C   C218      1.0  0.11893  0.88607  0.02072  1.0000
  S   S73       1.0  0.08861  0.50952  0.03891  1.0000
  H   H211      1.0  0.99362  0.64830  0.41342  1.0000
  H   H212      1.0  0.13001  0.92577  0.33221  1.0000
  C   C219      1.0  0.18737  0.59118  0.31146  1.0000
  C   C220      1.0  0.12786  0.98058  0.35437  1.0000
  C   C221      1.0  0.14291  0.88200  0.00346  1.0000
  C   C222      1.0  0.10264  0.68296  0.41849  1.0000
  C   C223      1.0  0.99917  0.90597  0.31506  1.0000
  C   C224      1.0  0.20151  0.96367  0.30020  1.0000
  H   H213      1.0  0.22653  0.70183  0.28140  1.0000
  H   H214      1.0  0.07615  0.59701  0.33838  1.0000
  H   H215      1.0  0.11881  0.62301  0.32826  1.0000
  C   C225      1.0  0.18286  0.59653  0.27703  1.0000
  H   H216      1.0  0.11054  0.87461  0.04546  1.0000
  S   S74       1.0  0.99267  0.57315  0.31459  1.0000
  H   H217      1.0  0.01040  0.74504  0.38142  1.0000
  H   H218      1.0  0.22163  0.72555  0.08857  1.0000
  H   H219      1.0  0.07134  0.60391  0.45221  1.0000
  Fe  Fe35      1.0  0.06292  0.95505  0.98154  1.0000
  S   S75       1.0  0.21586  0.61552  0.24705  1.0000
  C   C226      1.0  0.20372  0.96217  0.33599  1.0000
  H   H220      1.0  0.06445  0.89918  0.24567  1.0000
  H   H221      1.0  0.18552  0.93466  0.25193  1.0000
  S   S76       1.0  0.00925  0.93203  0.09707  1.0000
  C   C227      1.0  0.21521  0.95523  0.44732  1.0000
  C   C228      1.0  0.20079  0.84999  0.14058  1.0000
  Fe  Fe36      1.0  0.20527  0.78408  0.97859  1.0000
  H   H222      1.0  0.19191  0.92793  0.37812  1.0000
  Fe  Fe37      1.0  0.06681  0.53420  0.00743  1.0000
  C   C229      1.0  0.00160  0.87619  0.31030  1.0000
  C   C230      1.0  0.19040  0.92975  0.35065  1.0000
  H   H223      1.0  0.10180  0.88813  0.28151  1.0000
  C   C231      1.0  0.13790  0.51947  0.12853  1.0000
  C   C232      1.0  0.21227  0.69646  0.30450  1.0000
  C   C233      1.0  0.17601  0.97455  0.43687  1.0000
  C   C234      1.0  0.01080  0.67906  0.21026  1.0000
  C   C235      1.0  0.14644  0.81858  0.11539  1.0000
  C   C236      1.0  0.16757  0.53783  0.11166  1.0000
  C   C237      1.0  0.11840  0.64799  0.46528  1.0000
  N   N23       1.0  0.17837  0.52048  0.44521  1.0000
  H   H224      1.0  0.11009  0.66080  0.03911  1.0000
  H   H225      1.0  0.18552  0.72056  0.28666  1.0000
  C   C238      1.0  0.11471  0.93141  0.31608  1.0000
  C   C239      1.0  0.15480  0.82572  0.17701  1.0000
  H   H226      1.0  0.16013  0.96750  0.45974  1.0000
  C   C240      1.0  0.13976  0.53668  0.42630  1.0000
  H   H227      1.0  0.12289  0.96449  0.37723  1.0000
  C   C241      1.0  0.18877  0.70685  0.30727  1.0000
  C   C242      1.0  0.08049  0.64832  0.42396  1.0000
  C   C243      1.0  0.21613  0.70818  0.06647  1.0000
  Fe  Fe38      1.0  0.23102  0.81330  0.04955  1.0000
  C   C244      1.0  0.00294  0.91712  0.45948  1.0000
  S   S77       1.0  0.20442  0.87419  0.41100  1.0000
  H   H228      1.0  0.14468  0.82140  0.20259  1.0000
  C   C245      1.0  0.99285  0.61581  0.37101  1.0000
  C   C246      1.0  0.12052  0.66104  0.01430  1.0000
  C   C247      1.0  0.09420  0.62003  0.32465  1.0000
  H   H229      1.0  0.98784  0.85817  0.28953  1.0000
  C   C248      1.0  0.07372  0.94403  0.27580  1.0000
  C   C249      1.0  0.18022  0.83761  0.11142  1.0000
  C   C250      1.0  0.20955  0.85784  0.20334  1.0000
  H   H230      1.0  0.08750  0.90806  0.02024  1.0000
  Fe  Fe39      1.0  0.02121  0.95052  0.04283  1.0000
  C   C251      1.0  0.99582  0.55690  0.00522  1.0000
  S   S78       1.0  0.07365  0.98696  0.03029  1.0000
  C   C252      1.0  0.20855  0.52858  0.46381  1.0000
  S   S79       1.0  0.21795  0.50318  0.37015  1.0000
  C   C253      1.0  0.98872  0.63611  0.25512  1.0000
  C   C254      1.0  0.14010  0.68267  0.45900  1.0000
  H   H231      1.0  0.19992  0.83963  0.22478  1.0000
  C   C255      1.0  0.13356  0.81245  0.14841  1.0000
  N   N24       1.0  0.22757  0.69814  0.00851  1.0000
  H   H232      1.0  0.99564  0.93394  0.16854  1.0000
  C   C256      1.0  0.19048  0.67430  0.06744  1.0000
  H   H233      1.0  0.13630  0.50043  0.32946  1.0000
  H   H234      1.0  0.19657  0.92937  0.43959  1.0000
  H   H235      1.0  0.14895  0.71629  0.01383  1.0000
  C   C257      1.0  0.07779  0.91617  0.26739  1.0000
  S   S80       1.0  0.99401  0.49659  0.33578  1.0000
  C   C258      1.0  0.21754  0.67920  0.33124  1.0000
  Fe  Fe40      1.0  0.19668  0.84337  0.00800  1.0000
  H   H236      1.0  0.17538  0.73743  0.41299  1.0000
  H   H237      1.0  0.13284  0.53065  0.15105  1.0000
  H   H238      1.0  0.17564  0.66519  0.09021  1.0000
  C   C259      1.0  0.08839  0.63079  0.44762  1.0000
  H   H239      1.0  0.08678  0.98648  0.31110  1.0000
  H   H240      1.0  0.98411  0.59768  0.45116  1.0000
  H   H241      1.0  0.16357  0.69581  0.47247  1.0000
  H   H242      1.0  0.16396  0.62589  0.03925  1.0000
  H   H243      1.0  0.22468  0.55670  0.46853  1.0000
  H   H244      1.0  0.18579  0.56337  0.12105  1.0000
  H   H245      1.0  0.02878  0.71764  0.17167  1.0000
  H   H246      1.0  0.13226  0.55572  0.42472  1.0000
  C   C260      1.0  0.99123  0.77617  0.36439  1.0000
  H   H247      1.0  0.14361  0.74794  0.41484  1.0000
  H   H248      1.0  0.22342  0.79263  0.17369  1.0000
  H   H249      1.0  0.19770  0.64737  0.98744  1.0000
  H   H250      1.0  0.01394  0.64069  0.25751  1.0000
  C   C261      1.0  0.22933  0.87189  0.34559  1.0000
  H   H251      1.0  0.98786  0.67447  0.33318  1.0000
  S   S81       1.0  0.02429  0.48971  0.40662  1.0000
  H   H252      1.0  0.22705  0.86425  0.13711  1.0000
  H   H253      1.0  0.22286  0.51969  0.44852  1.0000
  C   C262      1.0  0.99027  0.74988  0.38347  1.0000
  S   S82       1.0  0.00235  0.98191  0.01869  1.0000
  H   H254      1.0  0.98347  0.56394  0.05707  1.0000
  C   C263      1.0  0.15001  0.49015  0.07109  1.0000
  H   H255      1.0  0.08521  0.55242  0.58194  1.0000
  S   S83       1.0  0.06106  0.50189  0.95998  1.0000
  H   H256      1.0  0.16124  0.66881  0.79894  1.0000
  H   H257      1.0  0.00325  0.85779  0.63303  1.0000
  C   C264      1.0  0.12092  0.79446  0.94798  1.0000
  C   C265      1.0  0.12122  0.76662  0.93199  1.0000
  H   H258      1.0  0.04445  0.91038  0.91061  1.0000
  H   H259      1.0  0.10044  0.82763  0.94727  1.0000
  H   H260      1.0  0.01462  0.95081  0.54091  1.0000
  C   C266      1.0  0.01499  0.91405  0.87075  1.0000
  S   S84       1.0  0.18329  0.73322  0.94851  1.0000
  C   C267      1.0  0.06123  0.74515  0.85935  1.0000
  H   H261      1.0  0.00482  0.74918  0.79999  1.0000
  C   C268      1.0  0.01327  0.85985  0.65862  1.0000
  C   C269      1.0  0.22599  0.83408  0.86482  1.0000
  C   C270      1.0  0.99982  0.93449  0.48808  1.0000
  Fe  Fe41      1.0  0.13740  0.79529  0.80362  1.0000
  S   S85       1.0  0.13066  0.83332  0.83610  1.0000
  S   S86       1.0  0.14397  0.75497  0.83199  1.0000
  Fe  Fe42      1.0  0.12577  0.82296  0.73665  1.0000
  S   S87       1.0  0.11779  0.86268  0.76436  1.0000
  S   S88       1.0  0.13112  0.81368  0.67943  1.0000
  Fe  Fe43      1.0  0.16089  0.87284  0.79768  1.0000
  S   S89       1.0  0.20555  0.92454  0.81307  1.0000
  Fe  Fe44      1.0  0.08753  0.82053  0.80135  1.0000
  S   S90       1.0  0.04440  0.81937  0.82951  1.0000
  S   S91       1.0  0.17105  0.83582  0.76785  1.0000
  S   S92       1.0  0.09213  0.77987  0.77115  1.0000
  S   S93       1.0  0.09020  0.84000  0.53115  1.0000
  C   C271      1.0  0.05372  0.74660  0.67150  1.0000
  Fe  Fe45      1.0  0.08164  0.55342  0.66267  1.0000
  H   H262      1.0  0.04181  0.78557  0.68533  1.0000
  H   H263      1.0  0.06581  0.79869  0.89529  1.0000
  Fe  Fe46      1.0  0.13759  0.54068  0.68551  1.0000
  C   C272      1.0  0.13217  0.66405  0.75448  1.0000
  S   S94       1.0  0.18347  0.56420  0.71984  1.0000
  S   S95       1.0  0.01644  0.54371  0.48454  1.0000
  H   H264      1.0  0.05947  0.74340  0.69768  1.0000
  H   H265      1.0  0.19852  0.69434  0.87535  1.0000
  C   C273      1.0  0.03127  0.75903  0.56895  1.0000
  S   S96       1.0  0.13158  0.56867  0.64217  1.0000
  H   H266      1.0  0.18974  0.50955  0.94592  1.0000
  C   C274      1.0  0.05012  0.54352  0.50325  1.0000
  C   C275      1.0  0.19867  0.71093  0.85565  1.0000
  C   C276      1.0  0.03124  0.62597  0.65117  1.0000
  H   H267      1.0  0.15529  0.94437  0.81963  1.0000
  H   H268      1.0  0.13684  0.63087  0.67677  1.0000
  C   C277      1.0  0.05719  0.55197  0.53824  1.0000
  H   H269      1.0  0.19581  0.64562  0.80305  1.0000
  C   C278      1.0  0.15922  0.96216  0.72950  1.0000
  H   H270      1.0  0.03747  0.72340  0.86743  1.0000
  H   H271      1.0  0.04864  0.86798  0.75046  1.0000
  C   C279      1.0  0.12159  0.82372  0.63851  1.0000
  C   C280      1.0  0.12848  0.81030  0.60868  1.0000
  C   C281      1.0  0.12001  0.81589  0.57560  1.0000
  C   C282      1.0  0.10436  0.83494  0.57192  1.0000
  C   C283      1.0  0.09784  0.84878  0.60172  1.0000
  C   C284      1.0  0.10654  0.84339  0.63482  1.0000
  H   H272      1.0  0.14017  0.79511  0.61120  1.0000
  H   H273      1.0  0.12514  0.80500  0.55302  1.0000
  H   H274      1.0  0.08552  0.86335  0.59927  1.0000
  H   H275      1.0  0.10069  0.85361  0.65742  1.0000
  C   C285      1.0  0.08137  0.78956  0.90549  1.0000
  H   H276      1.0  0.02994  0.79329  0.62543  1.0000
  H   H277      1.0  0.08123  0.88798  0.89819  1.0000
  C   C286      1.0  0.05592  0.90542  0.82584  1.0000
  H   H278      1.0  0.10634  0.65527  0.70595  1.0000
  H   H279      1.0  0.11946  0.60681  0.95136  1.0000
  H   H280      1.0  0.03073  0.78320  0.56606  1.0000
  C   C287      1.0  0.00282  0.78633  0.83414  1.0000
  C   C288      1.0  0.00858  0.54471  0.94719  1.0000
  C   C289      1.0  0.04979  0.73244  0.61074  1.0000
  N   N25       1.0  0.06046  0.90537  0.86063  1.0000
  C   C290      1.0  0.17449  0.74275  0.83037  1.0000
  H   H281      1.0  0.02838  0.57550  0.71606  1.0000
  H   H282      1.0  0.04644  0.86404  0.50076  1.0000
  C   C291      1.0  0.17457  0.72069  0.85533  1.0000
  S   S97       1.0  0.21710  0.83562  0.95830  1.0000
  H   H283      1.0  0.00327  0.65187  0.64862  1.0000
  C   C292      1.0  0.14017  0.91587  0.95706  1.0000
  H   H284      1.0  0.14867  0.92754  0.93243  1.0000
  H   H285      1.0  0.15617  0.71146  0.87502  1.0000
  C   C293      1.0  0.01005  0.91388  0.83531  1.0000
  Fe  Fe47      1.0  0.99567  0.94939  0.97141  1.0000
  H   H286      1.0  0.17186  0.89407  0.95780  1.0000
  H   H287      1.0  0.17168  0.51225  0.90612  1.0000
  C   C294      1.0  0.09018  0.52500  0.50125  1.0000
  C   C295      1.0  0.04741  0.89581  0.70663  1.0000
  C   C296      1.0  0.20699  0.96361  0.82504  1.0000
  H   H288      1.0  0.10217  0.51362  0.48715  1.0000
  S   S98       1.0  0.07316  0.93685  0.72650  1.0000
  C   C297      1.0  0.06818  0.53215  0.48441  1.0000
  H   H289      1.0  0.15747  0.89430  0.68738  1.0000
  C   C298      1.0  0.19200  0.97931  0.74042  1.0000
  C   C299      1.0  0.00418  0.82993  0.67685  1.0000
  H   H290      1.0  0.15773  0.66279  0.92537  1.0000
  H   H291      1.0  0.19896  0.77138  0.78581  1.0000
  H   H292      1.0  0.17871  0.62474  0.70920  1.0000
  C   C300      1.0  0.14678  0.93167  0.70993  1.0000
  S   S99       1.0  0.05646  0.50346  0.63212  1.0000
  C   C301      1.0  0.16705  0.91836  0.70204  1.0000
  C   C302      1.0  0.22232  0.74422  0.80521  1.0000
  H   H293      1.0  0.20255  0.51604  0.48908  1.0000
  N   N26       1.0  0.04021  0.75577  0.60422  1.0000
  C   C303      1.0  0.10139  0.75072  0.90283  1.0000
  H   H294      1.0  0.99219  0.81724  0.86904  1.0000
  H   H295      1.0  0.03460  0.56015  0.95604  1.0000
  C   C304      1.0  0.03061  0.90955  0.81265  1.0000
  N   N27       1.0  0.17198  0.64586  0.75610  1.0000
  C   C305      1.0  0.09515  0.53070  0.53678  1.0000
  C   C306      1.0  0.16563  0.63572  0.72213  1.0000
  N   N28       1.0  0.08221  0.76258  0.88963  1.0000
  C   C307      1.0  0.14207  0.63913  0.70364  1.0000
  H   H296      1.0  0.19351  0.61624  0.76992  1.0000
  C   C308      1.0  0.12504  0.65308  0.72003  1.0000
  C   C309      1.0  0.08801  0.90265  0.87411  1.0000
  S   S100      1.0  0.06884  0.59546  0.65407  1.0000
  C   C310      1.0  0.19695  0.64221  0.77477  1.0000
  C   C311      1.0  0.02294  0.59205  0.70125  1.0000
  C   C312      1.0  0.22753  0.86530  0.85890  1.0000
  C   C313      1.0  0.00872  0.63535  0.66344  1.0000
  C   C314      1.0  0.98967  0.75435  0.81702  1.0000
  C   C315      1.0  0.03725  0.92321  0.51970  1.0000
  C   C316      1.0  0.99369  0.62376  0.69510  1.0000
  H   H297      1.0  0.05640  0.76298  0.84462  1.0000
  H   H298      1.0  0.05088  0.92616  0.54332  1.0000
  C   C317      1.0  0.17893  0.96652  0.82595  1.0000
  C   C318      1.0  0.08012  0.54608  0.55485  1.0000
  H   H299      1.0  0.99044  0.91733  0.82547  1.0000
  H   H300      1.0  0.06470  0.70933  0.64959  1.0000
  H   H301      1.0  0.21513  0.92527  0.70787  1.0000
  H   H302      1.0  0.13672  0.75738  0.94202  1.0000
  C   C319      1.0  0.00095  0.60208  0.71391  1.0000
  H   H303      1.0  0.00564  0.52090  0.93442  1.0000
  N   N29       1.0  0.04054  0.90670  0.49129  1.0000
  C   C320      1.0  0.11639  0.92018  0.97459  1.0000
  H   H304      1.0  0.04402  0.56170  0.55292  1.0000
  C   C321      1.0  0.14749  0.66240  0.95032  1.0000
  H   H305      1.0  0.04311  0.63553  0.62692  1.0000
  H   H306      1.0  0.99927  0.91767  0.88864  1.0000
  H   H307      1.0  0.10186  0.72911  0.89054  1.0000
  C   C322      1.0  0.05687  0.72764  0.64443  1.0000
  C   C323      1.0  0.01670  0.93715  0.51857  1.0000
  C   C324      1.0  0.20120  0.51949  0.83274  1.0000
  H   H308      1.0  0.19793  0.54087  0.83995  1.0000
  C   C325      1.0  0.19865  0.75454  0.80532  1.0000
  C   C326      1.0  0.04055  0.90987  0.88303  1.0000
  C   C327      1.0  0.03721  0.77457  0.63061  1.0000
  C   C328      1.0  0.04387  0.77027  0.66461  1.0000
  C   C329      1.0  0.10086  0.80604  0.93480  1.0000
  H   H309      1.0  0.07319  0.73537  0.84144  1.0000
  H   H310      1.0  0.04123  0.91529  0.65900  1.0000
  C   C330      1.0  0.15590  0.66027  0.77221  1.0000
  H   H311      1.0  0.22448  0.57575  0.65729  1.0000
  C   C331      1.0  0.03885  0.86587  0.72476  1.0000
  S   S101      1.0  0.04650  0.98673  0.95252  1.0000
  C   C332      1.0  0.22268  0.72251  0.83044  1.0000
  N   N30       1.0  0.21183  0.96631  0.73217  1.0000
  S   S102      1.0  0.10036  0.94429  0.95568  1.0000
  C   C333      1.0  0.03841  0.60417  0.66987  1.0000
  C   C334      1.0  0.19965  0.93601  0.71367  1.0000
  H   H312      1.0  0.08161  0.90504  0.51226  1.0000
  S   S103      1.0  0.08946  0.52913  0.70906  1.0000
  H   H313      1.0  0.12477  0.63446  0.48365  1.0000
  H   H314      1.0  0.07186  0.90221  0.80800  1.0000
  H   H315      1.0  0.05189  0.71733  0.58986  1.0000
  H   H316      1.0  0.11943  0.67541  0.76740  1.0000
  Fe  Fe48      1.0  0.10675  0.51740  0.61501  1.0000
  H   H317      1.0  0.09555  0.88896  0.85546  1.0000
  H   H318      1.0  0.01097  0.81030  0.72423  1.0000
  C   C335      1.0  0.03484  0.89256  0.67330  1.0000
  S   S104      1.0  0.11657  0.51468  0.55900  1.0000
  H   H319      1.0  0.00355  0.55939  0.92808  1.0000
  C   C336      1.0  0.12577  0.63060  0.96500  1.0000
  H   H320      1.0  0.20452  0.81047  0.85617  1.0000
  C   C337      1.0  0.01746  0.83303  0.70990  1.0000
  H   H321      1.0  0.12135  0.91817  0.70129  1.0000
  H   H322      1.0  0.10917  0.92871  0.87994  1.0000
  H   H323      1.0  0.22333  0.78007  0.89256  1.0000
  H   H324      1.0  0.02723  0.90965  0.78500  1.0000
  H   H325      1.0  0.04960  0.75998  0.55052  1.0000
  C   C338      1.0  0.19033  0.50713  0.91746  1.0000
  C   C339      1.0  0.22637  0.58540  0.71216  1.0000
  H   H326      1.0  0.14425  0.50501  0.76002  1.0000
  H   H327      1.0  0.21460  0.52721  0.90823  1.0000
  H   H328      1.0  0.00664  0.73701  0.56202  1.0000
  C   C340      1.0  0.06125  0.89119  0.49312  1.0000
  C   C341      1.0  0.15611  0.69363  0.96778  1.0000
  H   H329      1.0  0.20757  0.86585  0.84569  1.0000
  H   H330      1.0  0.19728  0.51251  0.75223  1.0000
  C   C342      1.0  0.15342  0.89692  0.97141  1.0000
  Fe  Fe49      1.0  0.09289  0.98545  0.69524  1.0000
  H   H331      1.0  0.14351  0.97243  0.73620  1.0000
  H   H332      1.0  0.13613  0.80695  0.97064  1.0000
  H   H333      1.0  0.22175  0.66174  0.76634  1.0000
  H   H334      1.0  0.98468  0.94622  0.48650  1.0000
  Fe  Fe50      1.0  0.09903  0.82816  0.47572  1.0000
  H   H335      1.0  0.19405  0.50371  0.70648  1.0000
  S   S105      1.0  0.11602  0.48968  0.65686  1.0000
  H   H336      1.0  0.98951  0.59297  0.73844  1.0000
  C   C343      1.0  0.18839  0.49170  0.73203  1.0000
  C   C344      1.0  0.98239  0.79258  0.85573  1.0000
  C   C345      1.0  0.42797  0.22808  0.39903  1.0000
  S   S106      1.0  0.38964  0.41705  0.24632  1.0000
  H   H337      1.0  0.40668  0.21104  0.41376  1.0000
  Fe  Fe51      1.0  0.36980  0.44032  0.28470  1.0000
  S   S107      1.0  0.31408  0.40609  0.29534  1.0000
  H   H338      1.0  0.46799  0.42394  0.43873  1.0000
  C   C346      1.0  0.48191  0.14549  0.23583  1.0000
  Fe  Fe52      1.0  0.27903  0.11018  0.42314  1.0000
  S   S108      1.0  0.30866  0.15573  0.39104  1.0000
  Fe  Fe53      1.0  0.25424  0.05831  0.36329  1.0000
  S   S109      1.0  0.28307  0.09968  0.32548  1.0000
  C   C347      1.0  0.44204  0.08250  0.20267  1.0000
  Fe  Fe54      1.0  0.32593  0.12345  0.36375  1.0000
  S   S110      1.0  0.38174  0.14413  0.36594  1.0000
  Fe  Fe55      1.0  0.26502  0.13150  0.35491  1.0000
  S   S111      1.0  0.25469  0.17240  0.33331  1.0000
  S   S112      1.0  0.29824  0.07890  0.39872  1.0000
  H   H339      1.0  0.26779  0.02246  0.30932  1.0000
  Fe  Fe56      1.0  0.26868  0.14070  0.24526  1.0000
  S   S113      1.0  0.29083  0.18627  0.21032  1.0000
  H   H340      1.0  0.39290  0.32156  0.20938  1.0000
  Fe  Fe57      1.0  0.33532  0.14349  0.25443  1.0000
  S   S114      1.0  0.36131  0.18952  0.22054  1.0000
  S   S115      1.0  0.36394  0.11702  0.27285  1.0000
  Fe  Fe58      1.0  0.33370  0.21154  0.24827  1.0000
  S   S116      1.0  0.35410  0.26953  0.26100  1.0000
  Fe  Fe59      1.0  0.31737  0.16234  0.18463  1.0000
  S   S117      1.0  0.32579  0.15468  0.12754  1.0000
  S   S118      1.0  0.31058  0.16778  0.28448  1.0000
  S   S119      1.0  0.29306  0.11540  0.21696  1.0000
  C   C348      1.0  0.26749  0.33408  0.20059  1.0000
  S   S120      1.0  0.41400  0.45883  0.31876  1.0000
  C   C349      1.0  0.37804  0.09243  0.29593  1.0000
  C   C350      1.0  0.40785  0.09536  0.28668  1.0000
  C   C351      1.0  0.42102  0.07769  0.30372  1.0000
  C   C352      1.0  0.40465  0.05598  0.33083  1.0000
  C   C353      1.0  0.37435  0.05264  0.34024  1.0000
  C   C354      1.0  0.36135  0.07095  0.32328  1.0000
  H   H341      1.0  0.42149  0.11257  0.26691  1.0000
  H   H342      1.0  0.36098  0.03610  0.36100  1.0000
  H   H343      1.0  0.33880  0.06901  0.33182  1.0000
  C   C355      1.0  0.37833  0.30361  0.29174  1.0000
  C   C356      1.0  0.38065  0.33568  0.28777  1.0000
  C   C357      1.0  0.39912  0.36349  0.31115  1.0000
  C   C358      1.0  0.41615  0.36020  0.33886  1.0000
  C   C359      1.0  0.39466  0.29981  0.31992  1.0000
  H   H344      1.0  0.36790  0.33909  0.26649  1.0000
  H   H345      1.0  0.40038  0.38771  0.30769  1.0000
  H   H346      1.0  0.36247  0.07028  0.41866  1.0000
  C   C360      1.0  0.44391  0.27491  0.22606  1.0000
  C   C361      1.0  0.31338  0.16374  0.08756  1.0000
  C   C362      1.0  0.29928  0.18447  0.08541  1.0000
  C   C363      1.0  0.29132  0.19206  0.05295  1.0000
  C   C364      1.0  0.29698  0.17879  0.02221  1.0000
  C   C365      1.0  0.31047  0.15752  0.02436  1.0000
  C   C366      1.0  0.31885  0.15034  0.05678  1.0000
  H   H347      1.0  0.29489  0.19500  0.10875  1.0000
  H   H348      1.0  0.28079  0.20845  0.05173  1.0000
  H   H349      1.0  0.31460  0.14663  0.00116  1.0000
  H   H350      1.0  0.32960  0.13416  0.05807  1.0000
  C   C367      1.0  0.41566  0.16708  0.33795  1.0000
  C   C368      1.0  0.44286  0.16244  0.34088  1.0000
  C   C369      1.0  0.41928  0.06697  0.44067  1.0000
  C   C370      1.0  0.44683  0.21224  0.29724  1.0000
  C   C371      1.0  0.41774  0.19193  0.31553  1.0000
  H   H351      1.0  0.44153  0.14293  0.35743  1.0000
  H   H352      1.0  0.39712  0.19588  0.31279  1.0000
  H   H353      1.0  0.38981  0.41964  0.10336  1.0000
  C   C372      1.0  0.45212  0.44729  0.16299  1.0000
  C   C373      1.0  0.47161  0.18232  0.32209  1.0000
  N   N31       1.0  0.29610  0.99846  0.30005  1.0000
  C   C374      1.0  0.41659  0.44462  0.04271  1.0000
  C   C375      1.0  0.28331  0.39485  0.32761  1.0000
  C   C376      1.0  0.29072  0.40785  0.36157  1.0000
  C   C377      1.0  0.26537  0.39952  0.38546  1.0000
  C   C378      1.0  0.32515  0.48759  0.31997  1.0000
  H   H354      1.0  0.39573  0.16835  0.46974  1.0000
  C   C379      1.0  0.25019  0.37206  0.31864  1.0000
  H   H355      1.0  0.31598  0.42464  0.36942  1.0000
  H   H356      1.0  0.27154  0.41016  0.41147  1.0000
  C   C380      1.0  0.38676  0.09295  0.42510  1.0000
  H   H357      1.0  0.24385  0.36078  0.29298  1.0000
  H   H358      1.0  0.45969  0.01577  0.11360  1.0000
  S   S121      1.0  0.23368  0.36644  0.00654  1.0000
  H   H359      1.0  0.46088  0.20927  0.44876  1.0000
  H   H360      1.0  0.44625  0.04261  0.45625  1.0000
  H   H361      1.0  0.41923  0.43962  0.01512  1.0000
  C   C381      1.0  0.28742  0.39365  0.21562  1.0000
  H   H362      1.0  0.42591  0.05765  0.19028  1.0000
  S   S122      1.0  0.46819  0.41310  0.27731  1.0000
  N   N32       1.0  0.25642  0.38610  0.22383  1.0000
  H   H363      1.0  0.30787  0.41965  0.21889  1.0000
  C   C382      1.0  0.33928  0.40298  0.09304  1.0000
  S   S123      1.0  0.23388  0.08835  0.39006  1.0000
  H   H364      1.0  0.28482  0.05568  0.25646  1.0000
  C   C383      1.0  0.42529  0.28993  0.21750  1.0000
  H   H365      1.0  0.41517  0.10579  0.18420  1.0000
  H   H366      1.0  0.37915  0.34097  0.99791  1.0000
  H   H367      1.0  0.36145  0.25244  0.99497  1.0000
  H   H368      1.0  0.43255  0.24721  0.22645  1.0000
  H   H369      1.0  0.44381  0.08099  0.29522  1.0000
  C   C384      1.0  0.43632  0.10987  0.19912  1.0000
  H   H370      1.0  0.40464  0.25411  0.37745  1.0000
  H   H371      1.0  0.46959  0.19372  0.21871  1.0000
  C   C385      1.0  0.36007  0.42831  0.02809  1.0000
  S   S124      1.0  0.42034  0.03220  0.35327  1.0000
  C   C386      1.0  0.47426  0.20803  0.30086  1.0000
  H   H372      1.0  0.42559  0.32456  0.36513  1.0000
  C   C387      1.0  0.32694  0.41352  0.03599  1.0000
  C   C388      1.0  0.48133  0.27034  0.35953  1.0000
  H   H373      1.0  0.42605  0.35202  0.18341  1.0000
  C   C389      1.0  0.45353  0.27357  0.35859  1.0000
  H   H374      1.0  0.43593  0.16741  0.18978  1.0000
  N   N33       1.0  0.45621  0.14090  0.21556  1.0000
  H   H375      1.0  0.30950  0.41196  0.01677  1.0000
  N   N34       1.0  0.33308  0.33748  0.35424  1.0000
  C   C390      1.0  0.33991  0.31616  0.37238  1.0000
  C   C391      1.0  0.31233  0.32510  0.32621  1.0000
  C   C392      1.0  0.32673  0.28175  0.36181  1.0000
  C   C393      1.0  0.29904  0.29094  0.31473  1.0000
  C   C394      1.0  0.30657  0.26929  0.33252  1.0000
  C   C395      1.0  0.34732  0.37353  0.36550  1.0000
  H   H376      1.0  0.35652  0.32604  0.39446  1.0000
  H   H377      1.0  0.30666  0.34186  0.31202  1.0000
  H   H378      1.0  0.33289  0.26503  0.37543  1.0000
  H   H379      1.0  0.28367  0.28146  0.29173  1.0000
  H   H380      1.0  0.29751  0.24313  0.32310  1.0000
  H   H381      1.0  0.37161  0.38335  0.37835  1.0000
  H   H382      1.0  0.35170  0.39010  0.34314  1.0000
  H   H383      1.0  0.33061  0.37643  0.38343  1.0000
  C   C396      1.0  0.31711  0.99508  0.27839  1.0000
  C   C397      1.0  0.45773  0.48567  0.11775  1.0000
  C   C398      1.0  0.41314  0.32779  0.34345  1.0000
  C   C399      1.0  0.37748  0.35948  0.98220  1.0000
  Fe  Fe60      1.0  0.43673  0.44016  0.27813  1.0000
  S   S125      1.0  0.28742  0.19029  0.98198  1.0000
  Fe  Fe61      1.0  0.44618  0.01527  0.29993  1.0000
  C   C400      1.0  0.45611  0.19953  0.42160  1.0000
  N   N35       1.0  0.43924  0.32488  0.21760  1.0000
  C   C401      1.0  0.47707  0.29583  0.23439  1.0000
  C   C402      1.0  0.34692  0.35750  0.97770  1.0000
  C   C403      1.0  0.26331  0.02091  0.46793  1.0000
  Fe  Fe62      1.0  0.46718  0.45484  0.36741  1.0000
  H   H384      1.0  0.27931  0.99212  0.35178  1.0000
  C   C404      1.0  0.43451  0.05683  0.46471  1.0000
  S   S126      1.0  0.46480  0.99360  0.25854  1.0000
  C   C405      1.0  0.44209  0.46809  0.14730  1.0000
  H   H385      1.0  0.45259  0.29202  0.34201  1.0000
  C   C406      1.0  0.41956  0.34056  0.20916  1.0000
  C   C407      1.0  0.29343  0.36781  0.20388  1.0000
  C   C408      1.0  0.31648  0.40059  0.06862  1.0000
  H   H386      1.0  0.44823  0.23181  0.28081  1.0000
  H   H387      1.0  0.38309  0.11430  0.43412  1.0000
  H   H388      1.0  0.42402  0.36097  0.22870  1.0000
  H   H389      1.0  0.29079  0.38894  0.07501  1.0000
  H   H390      1.0  0.34085  0.47651  0.31882  1.0000
  H   H391      1.0  0.33152  0.39360  0.11870  1.0000
  C   C409      1.0  0.42664  0.25235  0.37846  1.0000
  N   N36       1.0  0.40388  0.08433  0.45091  1.0000
  S   S127      1.0  0.39996  0.99993  0.26781  1.0000
  Fe  Fe63      1.0  0.46676  0.02528  0.36206  1.0000
  H   H392      1.0  0.47212  0.06565  0.22738  1.0000
  H   H393      1.0  0.43011  0.16395  0.23575  1.0000
  H   H394      1.0  0.47535  0.19381  0.41342  1.0000
  C   C410      1.0  0.28405  0.01937  0.29202  1.0000
  C   C411      1.0  0.46840  0.00072  0.12623  1.0000
  H   H395      1.0  0.39284  0.27526  0.32358  1.0000
  H   H396      1.0  0.34484  0.01184  0.23180  1.0000
  H   H397      1.0  0.32542  0.33766  0.98998  1.0000
  H   H398      1.0  0.40094  0.10117  0.40093  1.0000
  H   H399      1.0  0.31812  0.37395  0.19774  1.0000
  H   H400      1.0  0.27164  0.31380  0.19111  1.0000
  C   C412      1.0  0.31545  0.03547  0.24013  1.0000
  H   H401      1.0  0.42952  0.47279  0.04776  1.0000
  H   H402      1.0  0.43249  0.17494  0.41959  1.0000
  S   S128      1.0  0.43948  0.39486  0.36958  1.0000
  N   N37       1.0  0.45521  0.22488  0.39952  1.0000
  H   H403      1.0  0.36799  0.43858  0.00275  1.0000
  H   H404      1.0  0.32390  0.05104  0.21751  1.0000
  H   H405      1.0  0.33919  0.14282  0.44721  1.0000
  H   H406      1.0  0.44012  0.43366  0.18587  1.0000
  H   H407      1.0  0.41954  0.06059  0.41374  1.0000
  N   N38       1.0  0.38205  0.42935  0.05173  1.0000
  C   C413      1.0  0.37221  0.41764  0.08415  1.0000
  Fe  Fe64      1.0  0.41145  0.46780  0.22165  1.0000
  H   H408      1.0  0.46810  0.09253  0.37382  1.0000
  S   S129      1.0  0.44497  0.48189  0.39604  1.0000
  C   C414      1.0  0.34341  0.14280  0.47448  1.0000
  H   H409      1.0  0.39949  0.27340  0.21121  1.0000
  C   C415      1.0  0.44758  0.16785  0.21479  1.0000
  H   H410      1.0  0.24945  0.41293  0.26538  1.0000
  C   C416      1.0  0.29352  0.03817  0.26202  1.0000
  S   S130      1.0  0.24675  0.30042  0.00702  1.0000
  C   C417      1.0  0.32732  0.01373  0.24825  1.0000
  C   C418      1.0  0.47757  0.44383  0.14890  1.0000
  H   H411      1.0  0.31499  0.47810  0.37384  1.0000
  S   S131      1.0  0.40985  0.47190  0.16442  1.0000
  H   H412      1.0  0.26998  0.43898  0.22906  1.0000
  C   C419      1.0  0.25051  0.41324  0.23682  1.0000
  H   H413      1.0  0.46881  0.35103  0.29375  1.0000
  H   H414      1.0  0.42889  0.43353  0.05776  1.0000
  C   C420      1.0  0.47191  0.34559  0.22484  1.0000
  H   H415      1.0  0.24232  0.21676  0.29262  1.0000
  C   C421      1.0  0.23610  0.32651  0.20966  1.0000
  C   C422      1.0  0.48172  0.24568  0.38021  1.0000
  C   C423      1.0  0.46812  0.08699  0.22334  1.0000
  C   C424      1.0  0.27030  0.99432  0.46760  1.0000
  C   C425      1.0  0.48224  0.41541  0.45298  1.0000
  H   H416      1.0  0.40677  0.30823  0.97512  1.0000
  C   C426      1.0  0.37792  0.25310  0.97517  1.0000
  H   H417      1.0  0.23911  0.20822  0.74767  1.0000
  C   C427      1.0  0.26886  0.25820  0.93601  1.0000
  C   C428      1.0  0.40307  0.40882  0.94621  1.0000
  H   H418      1.0  0.25941  0.99090  0.83252  1.0000
  C   C429      1.0  0.37551  0.15717  0.48722  1.0000
  H   H419      1.0  0.25230  0.26952  0.77755  1.0000
  Fe  Fe65      1.0  0.39307  0.13987  0.66119  1.0000
  S   S132      1.0  0.39762  0.18529  0.63408  1.0000
  S   S133      1.0  0.34543  0.09737  0.68307  1.0000
  N   N39       1.0  0.42406  0.28501  0.93888  1.0000
  H   H420      1.0  0.40222  0.25106  0.73423  1.0000
  C   C430      1.0  0.38822  0.22447  0.74163  1.0000
  Fe  Fe66      1.0  0.44623  0.21557  0.66208  1.0000
  H   H421      1.0  0.44547  0.05654  0.51847  1.0000
  Fe  Fe67      1.0  0.42562  0.17350  0.59486  1.0000
  S   S134      1.0  0.42179  0.17268  0.53709  1.0000
  S   S135      1.0  0.44024  0.17043  0.69207  1.0000
  S   S136      1.0  0.41754  0.12573  0.61941  1.0000
  C   C431      1.0  0.31170  0.31322  0.89722  1.0000
  Fe  Fe68      1.0  0.29044  0.17505  0.92595  1.0000
  S   S137      1.0  0.30038  0.13432  0.90502  1.0000
  Fe  Fe69      1.0  0.27951  0.19469  0.85386  1.0000
  S   S138      1.0  0.28947  0.15575  0.82764  1.0000
  S   S139      1.0  0.26881  0.22859  0.81955  1.0000
  Fe  Fe70      1.0  0.25816  0.11950  0.86811  1.0000
  C   C432      1.0  0.41820  0.08243  0.50990  1.0000
  Fe  Fe71      1.0  0.33143  0.17356  0.86570  1.0000
  S   S140      1.0  0.37952  0.17577  0.85125  1.0000
  S   S141      1.0  0.24570  0.15753  0.89201  1.0000
  S   S142      1.0  0.32401  0.21528  0.88904  1.0000
  C   C433      1.0  0.30562  0.12627  0.68060  1.0000
  C   C434      1.0  0.39482  0.22334  0.93537  1.0000
  H   H422      1.0  0.33419  0.11969  0.79896  1.0000
  Fe  Fe72      1.0  0.46504  0.15982  0.64766  1.0000
  C   C435      1.0  0.41933  0.20807  0.83865  1.0000
  C   C436      1.0  0.35412  0.20751  0.74195  1.0000
  C   C437      1.0  0.42734  0.24191  0.83306  1.0000
  H   H423      1.0  0.28180  0.04678  0.47612  1.0000
  H   H424      1.0  0.40888  0.24916  0.83613  1.0000
  C   C438      1.0  0.42001  0.25503  0.92461  1.0000
  C   C439      1.0  0.43394  0.06461  0.49957  1.0000
  C   C440      1.0  0.32385  0.29716  0.91803  1.0000
  C   C441      1.0  0.44364  0.19914  0.83380  1.0000
  S   S143      1.0  0.30613  0.37841  0.94830  1.0000
  C   C442      1.0  0.38145  0.15687  0.52242  1.0000
  H   H425      1.0  0.27454  0.14845  0.68461  1.0000
  H   H426      1.0  0.30839  0.10750  0.76058  1.0000
  C   C443      1.0  0.31707  0.12876  0.49697  1.0000
  C   C444      1.0  0.32297  0.12859  0.53227  1.0000
  C   C445      1.0  0.35516  0.14243  0.54498  1.0000
  C   C446      1.0  0.30223  0.26959  0.93766  1.0000
  C   C447      1.0  0.27542  0.12497  0.68492  1.0000
  H   H427      1.0  0.30270  0.11757  0.54979  1.0000
  H   H428      1.0  0.35953  0.14171  0.57218  1.0000
  H   H429      1.0  0.31011  0.16014  0.75148  1.0000
  H   H430      1.0  0.25366  0.00982  0.75593  1.0000
  H   H431      1.0  0.25175  0.23662  0.95101  1.0000
  C   C448      1.0  0.33409  0.12045  0.77041  1.0000
  H   H432      1.0  0.39878  0.15946  0.76743  1.0000
  C   C449      1.0  0.24642  0.09361  0.68983  1.0000
  C   C450      1.0  0.45931  0.26644  0.82319  1.0000
  C   C451      1.0  0.25760  0.27486  0.91492  1.0000
  C   C452      1.0  0.27833  0.06493  0.68711  1.0000
  C   C453      1.0  0.45035  0.31821  0.92739  1.0000
  C   C454      1.0  0.23754  0.99283  0.83310  1.0000
  C   C455      1.0  0.23709  0.23887  0.82281  1.0000
  H   H433      1.0  0.37060  0.42429  0.92459  1.0000
  H   H434      1.0  0.32863  0.33508  0.88254  1.0000
  S   S144      1.0  0.45670  0.26531  0.68995  1.0000
  H   H435      1.0  0.39018  0.10500  0.49339  1.0000
  N   N40       1.0  0.35264  0.15615  0.75977  1.0000
  H   H436      1.0  0.34135  0.22083  0.73487  1.0000
  C   C456      1.0  0.40435  0.20707  0.75079  1.0000
  H   H437      1.0  0.26376  0.04677  0.84829  1.0000
  H   H438      1.0  0.47606  0.43454  0.50205  1.0000
  C   C457      1.0  0.40342  0.28438  0.96382  1.0000
  H   H439      1.0  0.32772  0.15058  0.67694  1.0000
  H   H440      1.0  0.27945  0.04166  0.68836  1.0000
  C   C458      1.0  0.24794  0.06345  0.69024  1.0000
  H   H441      1.0  0.43089  0.22026  0.75094  1.0000
  S   S145      1.0  0.47443  0.20748  0.62042  1.0000
  H   H442      1.0  0.31123  0.25706  0.95421  1.0000
  N   N41       1.0  0.27895  0.30201  0.89589  1.0000
  H   H443      1.0  0.34511  0.10556  0.75970  1.0000
  C   C459      1.0  0.26712  0.31943  0.87371  1.0000
  C   C460      1.0  0.30737  0.09633  0.68253  1.0000
  H   H444      1.0  0.46509  0.29245  0.81881  1.0000
  C   C461      1.0  0.38607  0.17272  0.75991  1.0000
  H   H445      1.0  0.23559  0.12032  0.96155  1.0000
  H   H446      1.0  0.43626  0.25534  0.90480  1.0000
  H   H447      1.0  0.43779  0.17305  0.83801  1.0000
  H   H448      1.0  0.34990  0.30650  0.91935  1.0000
  C   C462      1.0  0.33661  0.17319  0.75137  1.0000
  C   C463      1.0  0.24011  0.02461  0.84202  1.0000
  C   C464      1.0  0.40575  0.38516  0.96647  1.0000
  H   H449      1.0  0.41745  0.08866  0.53696  1.0000
  C   C465      1.0  0.23513  0.26036  0.79840  1.0000
  Fe  Fe73      1.0  0.25653  0.34338  0.97241  1.0000
  C   C466      1.0  0.37241  0.40627  0.94100  1.0000
  S   S146      1.0  0.27687  0.11078  0.48068  1.0000
  S   S147      1.0  0.44282  0.38417  0.96895  1.0000
  H   H450      1.0  0.39157  0.19961  0.92383  1.0000
  H   H451      1.0  0.42444  0.42839  0.93350  1.0000
  C   C467      1.0  0.34412  0.38054  0.95650  1.0000
  H   H452      1.0  0.43975  0.33261  0.91529  1.0000
  C   C468      1.0  0.37371  0.22246  0.96083  1.0000
  H   H453      1.0  0.27893  0.34703  0.88144  1.0000
  C   C469      1.0  0.40293  0.09186  0.48507  1.0000
  H   H454      1.0  0.27275  0.31694  0.84646  1.0000
  H   H455      1.0  0.46640  0.31536  0.90840  1.0000
  H   H456      1.0  0.46589  0.33393  0.94976  1.0000
  C   C470      1.0  0.47558  0.22365  0.82388  1.0000
  H   H457      1.0  0.24024  0.30842  0.87538  1.0000
  H   H458      1.0  0.47614  0.32186  0.64197  1.0000
  H   H459      1.0  0.23398  0.48667  0.91075  1.0000
  H   H460      1.0  0.35398  0.19806  0.96928  1.0000
  H   H461      1.0  0.26234  0.98897  0.72098  1.0000
  H   H462      1.0  0.29433  0.99928  0.47547  1.0000
  C   C471      1.0  0.43127  0.82094  0.22903  1.0000
  S   S148      1.0  0.39413  0.92391  0.25237  1.0000
  H   H463      1.0  0.44408  0.81158  0.21196  1.0000
  Fe  Fe74      1.0  0.37575  0.94753  0.29217  1.0000
  S   S149      1.0  0.31961  0.91427  0.30093  1.0000
  C   C472      1.0  0.38983  0.83743  0.22005  1.0000
  C   C473      1.0  0.43035  0.76136  0.39484  1.0000
  Fe  Fe75      1.0  0.27985  0.61847  0.42542  1.0000
  S   S150      1.0  0.30824  0.66133  0.38992  1.0000
  Fe  Fe76      1.0  0.25243  0.56203  0.36932  1.0000
  S   S151      1.0  0.27997  0.60029  0.32859  1.0000
  C   C474      1.0  0.46532  0.96478  0.17292  1.0000
  Fe  Fe77      1.0  0.32401  0.62664  0.36536  1.0000
  S   S152      1.0  0.37980  0.64775  0.36599  1.0000
  Fe  Fe78      1.0  0.26343  0.63458  0.35547  1.0000
  Fe  Fe79      1.0  0.46194  0.52076  0.35388  1.0000
  S   S153      1.0  0.29749  0.58470  0.40353  1.0000
  C   C475      1.0  0.39698  0.92097  0.10503  1.0000
  Fe  Fe80      1.0  0.27295  0.64752  0.24780  1.0000
  S   S154      1.0  0.29633  0.69842  0.22124  1.0000
  S   S155      1.0  0.24508  0.86696  0.03649  1.0000
  Fe  Fe81      1.0  0.33910  0.64872  0.25289  1.0000
  S   S156      1.0  0.36613  0.69994  0.22678  1.0000
  S   S157      1.0  0.36553  0.61732  0.26123  1.0000
  Fe  Fe82      1.0  0.33814  0.71771  0.25992  1.0000
  S   S158      1.0  0.35698  0.77392  0.27896  1.0000
  Fe  Fe83      1.0  0.32330  0.67889  0.18931  1.0000
  S   S159      1.0  0.33833  0.69460  0.13349  1.0000
  S   S160      1.0  0.31371  0.66839  0.28860  1.0000
  S   S161      1.0  0.29805  0.62697  0.21309  1.0000
  S   S162      1.0  0.23949  0.80011  0.10240  1.0000
  H   H464      1.0  0.39809  0.71655  0.42340  1.0000
  C   C476      1.0  0.37908  0.59294  0.28561  1.0000
  C   C477      1.0  0.40080  0.58403  0.27043  1.0000
  C   C478      1.0  0.41371  0.56670  0.28878  1.0000
  C   C479      1.0  0.40418  0.55605  0.32258  1.0000
  C   C480      1.0  0.38122  0.56368  0.33720  1.0000
  C   C481      1.0  0.36878  0.58174  0.31900  1.0000
  H   H465      1.0  0.40799  0.59068  0.24410  1.0000
  H   H466      1.0  0.37230  0.55480  0.36256  1.0000
  H   H467      1.0  0.35060  0.58633  0.33060  1.0000
  C   C482      1.0  0.38259  0.80895  0.30819  1.0000
  C   C483      1.0  0.38128  0.83941  0.30708  1.0000
  C   C484      1.0  0.40111  0.86799  0.32917  1.0000
  C   C485      1.0  0.42285  0.86684  0.35288  1.0000
  C   C486      1.0  0.40380  0.80739  0.33234  1.0000
  H   H468      1.0  0.36461  0.84097  0.28915  1.0000
  H   H469      1.0  0.39951  0.89093  0.32782  1.0000
  H   H470      1.0  0.27261  0.71836  0.98256  1.0000
  C   C487      1.0  0.42345  0.83598  0.35470  1.0000
  C   C488      1.0  0.31665  0.68046  0.09311  1.0000
  C   C489      1.0  0.33423  0.69255  0.06249  1.0000
  C   C490      1.0  0.31836  0.68243  0.02988  1.0000
  C   C491      1.0  0.28450  0.66022  0.02735  1.0000
  C   C492      1.0  0.26679  0.64843  0.05796  1.0000
  C   C493      1.0  0.28272  0.65830  0.09060  1.0000
  H   H471      1.0  0.36042  0.70975  0.06398  1.0000
  H   H472      1.0  0.33238  0.69186  0.00671  1.0000
  H   H473      1.0  0.26508  0.77854  0.27513  1.0000
  H   H474      1.0  0.26877  0.64890  0.11381  1.0000
  C   C494      1.0  0.41388  0.67039  0.33823  1.0000
  C   C495      1.0  0.44051  0.66492  0.34148  1.0000
  H   H475      1.0  0.37931  0.61211  0.44135  1.0000
  C   C496      1.0  0.44689  0.71668  0.29916  1.0000
  C   C497      1.0  0.41717  0.69632  0.31657  1.0000
  H   H476      1.0  0.43841  0.64489  0.35779  1.0000
  H   H477      1.0  0.39708  0.70113  0.31380  1.0000
  H   H478      1.0  0.41424  0.77193  0.39578  1.0000
  H   H479      1.0  0.28161  0.74019  0.30158  1.0000
  C   C498      1.0  0.28804  0.51923  0.32325  1.0000
  C   C499      1.0  0.42425  0.57370  0.43257  1.0000
  H   H480      1.0  0.25467  0.74594  0.03621  1.0000
  C   C500      1.0  0.28818  0.90261  0.33239  1.0000
  C   C501      1.0  0.29493  0.91404  0.36690  1.0000
  C   C502      1.0  0.26908  0.90495  0.39030  1.0000
  H   H481      1.0  0.25096  0.94014  0.45685  1.0000
  H   H482      1.0  0.33204  0.84675  0.98632  1.0000
  C   C503      1.0  0.25514  0.88130  0.32210  1.0000
  H   H483      1.0  0.32008  0.93020  0.37551  1.0000
  H   H484      1.0  0.27487  0.91417  0.41675  1.0000
  C   C504      1.0  0.29201  0.50438  0.35261  1.0000
  H   H485      1.0  0.24929  0.87208  0.29562  1.0000
  C   C505      1.0  0.24683  0.71135  0.97734  1.0000
  C   C506      1.0  0.47376  0.71152  0.30317  1.0000
  H   H486      1.0  0.46175  0.59238  0.36505  1.0000
  C   C507      1.0  0.23596  0.88400  0.37993  1.0000
  N   N42       1.0  0.47785  0.66255  0.23374  1.0000
  C   C508      1.0  0.29756  0.53406  0.26265  1.0000
  S   S163      1.0  0.41646  0.52981  0.34619  1.0000
  N   N43       1.0  0.30784  0.77508  0.34321  1.0000
  H   H487      1.0  0.40137  0.89105  0.14492  1.0000
  H   H488      1.0  0.33308  0.81481  0.38149  1.0000
  H   H489      1.0  0.31903  0.73489  0.33949  1.0000
  H   H490      1.0  0.39027  0.76771  0.18818  1.0000
  H   H491      1.0  0.31829  0.85471  0.35496  1.0000
  H   H492      1.0  0.45372  0.95119  0.19593  1.0000
  H   H493      1.0  0.35074  0.84840  0.21331  1.0000
  H   H494      1.0  0.30606  0.97596  0.34237  1.0000
  C   C509      1.0  0.24610  0.96123  0.45725  1.0000
  S   S164      1.0  0.42098  0.98676  0.17364  1.0000
  S   S165      1.0  0.41936  0.96247  0.32655  1.0000
  H   H495      1.0  0.28052  0.50508  0.37650  1.0000
  H   H496      1.0  0.29560  0.73379  0.37620  1.0000
  H   H497      1.0  0.46564  0.91398  0.05915  1.0000
  C   C510      1.0  0.47000  0.68524  0.32410  1.0000
  H   H498      1.0  0.44907  0.73665  0.28267  1.0000
  C   C511      1.0  0.43289  0.93412  0.05806  1.0000
  C   C512      1.0  0.28906  0.76501  0.31375  1.0000
  C   C513      1.0  0.38508  0.59369  0.42832  1.0000
  H   H499      1.0  0.40514  0.78423  0.33363  1.0000
  N   N44       1.0  0.40075  0.81508  0.21295  1.0000
  C   C514      1.0  0.31094  0.48877  0.35097  1.0000
  C   C515      1.0  0.31587  0.75116  0.35937  1.0000
  S   S166      1.0  0.25087  0.67144  0.32829  1.0000
  H   H500      1.0  0.29798  0.55829  0.27010  1.0000
  C   C516      1.0  0.30968  0.82933  0.34348  1.0000
  C   C517      1.0  0.38221  0.78606  0.19298  1.0000
  S   S167      1.0  0.45175  0.90297  0.97717  1.0000
  C   C518      1.0  0.31795  0.80667  0.35830  1.0000
  C   C519      1.0  0.35967  0.83108  0.20682  1.0000
  H   H501      1.0  0.45041  0.50234  0.10607  1.0000
  C   C520      1.0  0.44630  0.91571  0.07231  1.0000
  C   C521      1.0  0.34072  0.80166  0.18621  1.0000
  H   H502      1.0  0.44821  0.84872  0.23485  1.0000
  H   H503      1.0  0.33915  0.76498  0.37443  1.0000
  C   C522      1.0  0.44923  0.66280  0.23711  1.0000
  S   S168      1.0  0.46809  0.91212  0.28318  1.0000
  H   H504      1.0  0.43020  0.56069  0.27568  1.0000
  H   H505      1.0  0.27376  0.51614  0.24981  1.0000
  H   H506      1.0  0.39566  0.60458  0.40305  1.0000
  C   C523      1.0  0.43484  0.89995  0.10363  1.0000
  Fe  Fe84      1.0  0.41832  0.97594  0.22992  1.0000
  H   H507      1.0  0.46652  0.80174  0.36438  1.0000
  H   H508      1.0  0.42025  0.56687  0.40538  1.0000
  N   N45       1.0  0.30233  0.51836  0.29302  1.0000
  H   H509      1.0  0.32675  0.97860  0.28484  1.0000
  H   H510      1.0  0.38981  0.97060  0.07832  1.0000
  Fe  Fe85      1.0  0.47365  0.96140  0.37852  1.0000
  H   H511      1.0  0.33231  0.50224  0.26726  1.0000
  C   C524      1.0  0.43924  0.67770  0.21240  1.0000
  H   H512      1.0  0.45870  0.55596  0.43827  1.0000
  S   S169      1.0  0.25465  0.80433  0.00386  1.0000
  Fe  Fe86      1.0  0.26506  0.85629  0.98825  1.0000
  S   S170      1.0  0.44807  0.90202  0.38230  1.0000
  Fe  Fe87      1.0  0.43929  0.51072  0.29042  1.0000
  H   H513      1.0  0.36187  0.56907  0.42380  1.0000
  C   C525      1.0  0.47156  0.73444  0.39125  1.0000
  H   H514      1.0  0.31702  0.79603  0.17620  1.0000
  N   N46       1.0  0.40860  0.93662  0.07443  1.0000
  Fe  Fe88      1.0  0.44030  0.94310  0.28493  1.0000
  H   H515      1.0  0.28400  0.83660  0.30174  1.0000
  H   H516      1.0  0.42569  0.80720  0.25364  1.0000
  S   S171      1.0  0.26302  0.64689  0.98686  1.0000
  H   H517      1.0  0.43981  0.83463  0.37320  1.0000
  C   C526      1.0  0.44233  0.71716  0.40924  1.0000
  H   H518      1.0  0.44226  0.94657  0.03393  1.0000
  C   C527      1.0  0.28002  0.78681  0.29846  1.0000
  C   C528      1.0  0.42145  0.73053  0.41069  1.0000
  H   H519      1.0  0.44563  0.88626  0.11523  1.0000
  C   C529      1.0  0.29051  0.81921  0.31343  1.0000
  C   C530      1.0  0.39392  0.95495  0.05859  1.0000
  N   N47       1.0  0.40812  0.58811  0.44847  1.0000
  H   H520      1.0  0.34333  0.64811  0.45158  1.0000
  C   C531      1.0  0.41000  0.90253  0.12018  1.0000
  H   H521      1.0  0.41629  0.67736  0.21542  1.0000
  C   C532      1.0  0.35208  0.77905  0.17910  1.0000
  H   H522      1.0  0.40400  0.85973  0.23704  1.0000
  C   C533      1.0  0.45918  0.69322  0.18441  1.0000
  H   H523      1.0  0.37807  0.92342  0.11830  1.0000
  H   H524      1.0  0.26426  0.95307  0.32601  1.0000
  H   H525      1.0  0.24059  0.63138  0.05642  1.0000
  H   H526      1.0  0.41002  0.97272  0.03876  1.0000
  H   H527      1.0  0.37018  0.93622  0.04591  1.0000
  N   N48       1.0  0.47976  0.76427  0.37517  1.0000
  H   H528      1.0  0.43501  0.69255  0.42030  1.0000
  H   H529      1.0  0.27362  0.53168  0.32485  1.0000
  C   C534      1.0  0.45983  0.77802  0.37710  1.0000
  H   H530      1.0  0.33734  0.75574  0.16359  1.0000
  H   H531      1.0  0.46136  0.93411  0.44990  1.0000
  S   S172      1.0  0.39180  0.49142  0.25846  1.0000
  C   C535      1.0  0.44595  0.56739  0.45110  1.0000
  H   H532      1.0  0.43432  0.65234  0.25954  1.0000
  C   C536      1.0  0.38476  0.87208  0.98263  1.0000
  C   C537      1.0  0.35427  0.87064  0.98173  1.0000
  H   H533      1.0  0.23455  0.86271  0.19792  1.0000
  S   S173      1.0  0.45902  0.48946  0.24949  1.0000
  S   S174      1.0  0.23352  0.59452  0.39380  1.0000
  H   H534      1.0  0.46856  0.63252  0.27872  1.0000
  C   C538      1.0  0.45382  0.98400  0.15653  1.0000
  C   C539      1.0  0.32033  0.50234  0.29094  1.0000
  C   C540      1.0  0.28588  0.97890  0.33159  1.0000
  H   H535      1.0  0.31773  0.54148  0.24410  1.0000
  H   H536      1.0  0.45173  0.70508  0.16521  1.0000
  H   H537      1.0  0.38567  0.84915  0.98798  1.0000
  H   H538      1.0  0.48098  0.85572  0.28609  1.0000
  C   C541      1.0  0.41402  0.90281  0.97649  1.0000
  C   C542      1.0  0.23464  0.71966  0.03668  1.0000
  S   S175      1.0  0.44982  0.98765  0.40525  1.0000
  H   H539      1.0  0.39645  0.61514  0.75548  1.0000
  C   C543      1.0  0.23641  0.49617  0.82136  1.0000
  H   H540      1.0  0.29673  0.62923  0.76008  1.0000
  C   C544      1.0  0.28132  0.61764  0.73742  1.0000
  C   C545      1.0  0.40777  0.76223  0.78552  1.0000
  C   C546      1.0  0.45083  0.57559  0.48628  1.0000
  Fe  Fe89      1.0  0.38319  0.65561  0.67044  1.0000
  S   S176      1.0  0.40702  0.70068  0.63542  1.0000
  S   S177      1.0  0.33919  0.64093  0.70495  1.0000
  Fe  Fe90      1.0  0.44109  0.64182  0.66523  1.0000
  H   H541      1.0  0.26377  0.80181  0.91049  1.0000
  H   H542      1.0  0.45063  0.69355  0.79305  1.0000
  Fe  Fe91      1.0  0.45433  0.71632  0.66340  1.0000
  H   H543      1.0  0.29856  0.86277  0.90495  1.0000
  Fe  Fe92      1.0  0.41995  0.66662  0.60406  1.0000
  S   S178      1.0  0.41864  0.66427  0.54613  1.0000
  S   S179      1.0  0.42986  0.67409  0.70126  1.0000
  S   S180      1.0  0.39280  0.62044  0.63683  1.0000
  N   N49       1.0  0.42668  0.76730  0.75723  1.0000
  Fe  Fe93      1.0  0.28193  0.65649  0.93135  1.0000
  S   S181      1.0  0.31544  0.63967  0.90834  1.0000
  Fe  Fe94      1.0  0.27066  0.68083  0.86168  1.0000
  S   S182      1.0  0.30325  0.66488  0.83412  1.0000
  H   H544      1.0  0.38088  0.95327  0.96160  1.0000
  Fe  Fe95      1.0  0.27811  0.61649  0.86465  1.0000
  S   S183      1.0  0.26851  0.56463  0.84137  1.0000
  Fe  Fe96      1.0  0.33815  0.68891  0.87916  1.0000
  S   S184      1.0  0.39295  0.72957  0.87539  1.0000
  S   S185      1.0  0.24314  0.63062  0.88899  1.0000
  S   S186      1.0  0.30689  0.70740  0.90538  1.0000
  C   C547      1.0  0.47087  0.94106  0.47685  1.0000
  C   C548      1.0  0.41241  0.59584  0.48306  1.0000
  H   H545      1.0  0.36811  0.71329  0.70003  1.0000
  C   C549      1.0  0.43398  0.58993  0.50244  1.0000
  C   C550      1.0  0.42752  0.73330  0.85312  1.0000
  C   C551      1.0  0.41272  0.75008  0.72681  1.0000
  C   C552      1.0  0.42511  0.70819  0.82954  1.0000
  C   C553      1.0  0.25493  0.89589  0.87027  1.0000
  H   H546      1.0  0.40176  0.68518  0.82515  1.0000
  C   C554      1.0  0.30754  0.54905  0.72848  1.0000
  H   H547      1.0  0.30197  0.91844  0.89637  1.0000
  H   H548      1.0  0.33274  0.60651  0.81560  1.0000
  C   C555      1.0  0.27843  0.86324  0.89204  1.0000
  H   H549      1.0  0.37565  0.62391  0.81014  1.0000
  C   C556      1.0  0.38055  0.65507  0.52903  1.0000
  C   C557      1.0  0.37680  0.65637  0.49344  1.0000
  H   H550      1.0  0.47053  0.80857  0.73795  1.0000
  C   C558      1.0  0.31919  0.63743  0.50043  1.0000
  C   C559      1.0  0.32316  0.63689  0.53611  1.0000
  C   C560      1.0  0.35377  0.64556  0.55040  1.0000
  H   H551      1.0  0.29411  0.56880  0.77237  1.0000
  H   H552      1.0  0.41862  0.77594  0.80966  1.0000
  H   H553      1.0  0.30242  0.62934  0.55267  1.0000
  H   H554      1.0  0.35650  0.64454  0.57791  1.0000
  C   C561      1.0  0.37907  0.72691  0.72422  1.0000
  H   H555      1.0  0.39907  0.60651  0.49594  1.0000
  H   H556      1.0  0.42765  0.75413  0.70436  1.0000
  C   C562      1.0  0.36554  0.57501  0.71921  1.0000
  H   H557      1.0  0.33372  0.70227  0.75161  1.0000
  H   H558      1.0  0.32851  0.53561  0.68593  1.0000
  H   H559      1.0  0.46000  0.78348  0.87548  1.0000
  C   C563      1.0  0.46221  0.79040  0.75943  1.0000
  S   S187      1.0  0.45551  0.60511  0.68816  1.0000
  C   C564      1.0  0.24628  0.98448  0.74338  1.0000
  H   H560      1.0  0.28241  0.53145  0.72048  1.0000
  C   C565      1.0  0.35256  0.61758  0.79644  1.0000
  H   H561      1.0  0.46744  0.57048  0.50093  1.0000
  C   C566      1.0  0.28061  0.89492  0.88696  1.0000
  H   H562      1.0  0.28548  0.60548  0.65144  1.0000
  H   H563      1.0  0.25775  0.79227  0.86468  1.0000
  C   C567      1.0  0.27490  0.60421  0.67638  1.0000
  H   H564      1.0  0.46744  0.71557  0.49835  1.0000
  H   H565      1.0  0.47012  0.80555  0.78407  1.0000
  N   N50       1.0  0.34594  0.59352  0.76738  1.0000
  H   H566      1.0  0.43463  0.95594  0.96426  1.0000
  C   C568      1.0  0.37412  0.73877  0.78402  1.0000
  H   H567      1.0  0.35946  0.73435  0.80683  1.0000
  S   S188      1.0  0.25293  0.71000  0.82823  1.0000
  H   H568      1.0  0.25616  0.92022  0.86609  1.0000
  C   C569      1.0  0.24728  0.60044  0.74082  1.0000
  H   H569      1.0  0.26069  0.49955  0.82000  1.0000
  C   C570      1.0  0.31432  0.57029  0.75784  1.0000
  C   C571      1.0  0.41241  0.93219  0.96943  1.0000
  C   C572      1.0  0.38186  0.93058  0.96787  1.0000
  H   H570      1.0  0.35439  0.64147  0.78684  1.0000
  H   H571      1.0  0.47230  0.96586  0.48360  1.0000
  H   H572      1.0  0.38583  0.57734  0.70417  1.0000
  C   C573      1.0  0.37141  0.59617  0.74843  1.0000
  C   C574      1.0  0.24897  0.80033  0.88756  1.0000
  C   C575      1.0  0.45808  0.76356  0.85793  1.0000
  H   H573      1.0  0.47477  0.77520  0.75743  1.0000
  N   N51       1.0  0.25105  0.83332  0.88166  1.0000
  H   H574      1.0  0.45318  0.92098  0.49392  1.0000
  S   S189      1.0  0.46898  0.68526  0.62976  1.0000
  C   C576      1.0  0.35974  0.72088  0.75315  1.0000
  C   C577      1.0  0.33337  0.55151  0.70906  1.0000
  C   C578      1.0  0.45291  0.71313  0.81135  1.0000
  C   C579      1.0  0.29557  0.61954  0.70544  1.0000
  H   H575      1.0  0.46794  0.55082  0.70368  1.0000
  H   H576      1.0  0.43734  0.59621  0.52986  1.0000
  S   S190      1.0  0.31466  0.89891  0.97029  1.0000
  H   H577      1.0  0.24590  0.73408  0.96860  1.0000
  C   C580      1.0  0.34612  0.64731  0.47911  1.0000
  H   H578      1.0  0.24063  0.75327  0.78543  1.0000
  H   H579      1.0  0.39760  0.66430  0.47695  1.0000
  S   S191      1.0  0.28046  0.62523  0.48273  1.0000
  C   C581      1.0  0.35260  0.89982  0.97393  1.0000
  H   H580      1.0  0.25049  0.96894  0.76223  1.0000
  C   C582      1.0  0.24027  0.58733  0.67971  1.0000
  H   H581      1.0  0.47814  0.82778  0.94396  1.0000
  H   H582      1.0  0.23731  0.69193  0.95578  1.0000
  H   H583      1.0  0.23715  0.59889  0.76609  1.0000
  C   C583      1.0  0.23278  0.52432  0.83123  1.0000
  H   H584      1.0  0.60639  0.19789  0.09472  1.0000
  S   S192      1.0  0.69851  0.37296  0.40844  1.0000
  H   H585      1.0  0.49393  0.39519  0.40795  1.0000
  C   C584      1.0  0.61423  0.20288  0.06750  1.0000
  H   H586      1.0  0.72385  0.17231  0.25341  1.0000
  H   H587      1.0  0.60687  0.21142  0.00122  1.0000
  Fe  Fe97      1.0  0.62490  0.23835  0.29796  1.0000
  S   S193      1.0  0.60521  0.27179  0.31750  1.0000
  S   S194      1.0  0.64036  0.20924  0.33385  1.0000
  Fe  Fe98      1.0  0.61436  0.24971  0.22492  1.0000
  S   S195      1.0  0.59444  0.28410  0.23779  1.0000
  S   S196      1.0  0.62272  0.23450  0.17237  1.0000
  Fe  Fe99      1.0  0.63568  0.30933  0.27698  1.0000
  S   S197      1.0  0.66762  0.36837  0.27328  1.0000
  Fe  Fe100     1.0  0.56443  0.24546  0.27766  1.0000
  S   S198      1.0  0.51122  0.23585  0.27877  1.0000
  S   S199      1.0  0.65785  0.27715  0.26048  1.0000
  S   S200      1.0  0.58187  0.20909  0.26112  1.0000
  C   C585      1.0  0.56376  0.02724  0.19605  1.0000
  Fe  Fe101     1.0  0.64142  0.34352  0.41031  1.0000
  S   S201      1.0  0.61949  0.37243  0.43624  1.0000
  Fe  Fe102     1.0  0.57393  0.27576  0.40756  1.0000
  S   S202      1.0  0.54869  0.30169  0.43385  1.0000
  S   S203      1.0  0.54269  0.21560  0.39976  1.0000
  Fe  Fe103     1.0  0.57658  0.34639  0.39903  1.0000
  S   S204      1.0  0.56010  0.38342  0.37796  1.0000
  S   S205      1.0  0.59066  0.01228  0.02666  1.0000
  S   S206      1.0  0.59978  0.32008  0.37090  1.0000
  S   S207      1.0  0.61627  0.29890  0.44619  1.0000
  H   H588      1.0  0.60769  0.42138  0.32756  1.0000
  C   C586      1.0  0.63182  0.43996  0.27969  1.0000
  H   H589      1.0  0.66873  0.24160  0.40816  1.0000
  Fe  Fe104     1.0  0.49803  0.02211  0.43037  1.0000
  S   S208      1.0  0.51489  0.06141  0.39042  1.0000
  H   H590      1.0  0.49686  0.16951  0.25011  1.0000
  H   H591      1.0  0.64085  0.21205  0.06666  1.0000
  Fe  Fe105     1.0  0.53783  0.03222  0.36617  1.0000
  S   S209      1.0  0.59303  0.05720  0.35211  1.0000
  H   H592      1.0  0.63629  0.12537  0.45212  1.0000
  H   H593      1.0  0.70930  0.44037  0.26182  1.0000
  C   C587      1.0  0.53004  0.13077  0.45987  1.0000
  H   H594      1.0  0.51185  0.17791  0.46517  1.0000
  C   C588      1.0  0.48364  0.48272  0.10403  1.0000
  C   C589      1.0  0.66221  0.39785  0.97684  1.0000
  C   C590      1.0  0.65368  0.07075  0.27003  1.0000
  C   C591      1.0  0.62540  0.06019  0.29016  1.0000
  C   C592      1.0  0.62803  0.06832  0.32552  1.0000
  C   C593      1.0  0.65964  0.08594  0.34044  1.0000
  C   C594      1.0  0.68791  0.09617  0.32038  1.0000
  H   H595      1.0  0.60164  0.04631  0.27811  1.0000
  H   H596      1.0  0.66242  0.09193  0.36779  1.0000
  C   C595      1.0  0.64915  0.00895  0.36719  1.0000
  C   C596      1.0  0.65609  0.27055  0.15509  1.0000
  C   C597      1.0  0.67417  0.26631  0.12906  1.0000
  C   C598      1.0  0.69922  0.29503  0.11322  1.0000
  C   C599      1.0  0.70612  0.32804  0.12323  1.0000
  C   C600      1.0  0.68851  0.33231  0.14983  1.0000
  C   C601      1.0  0.66366  0.30357  0.16596  1.0000
  H   H597      1.0  0.66886  0.24087  0.12109  1.0000
  H   H598      1.0  0.60037  0.25749  0.97582  1.0000
  H   H599      1.0  0.69299  0.35760  0.15693  1.0000
  H   H600      1.0  0.64959  0.30699  0.18592  1.0000
  H   H601      1.0  0.62865  0.01421  0.36903  1.0000
  H   H602      1.0  0.72237  0.44515  0.41624  1.0000
  H   H603      1.0  0.67255  0.44978  0.98625  1.0000
  S   S210      1.0  0.49229  0.99872  0.33496  1.0000
  C   C602      1.0  0.68148  0.40526  0.30142  1.0000
  C   C603      1.0  0.67187  0.40303  0.33565  1.0000
  C   C604      1.0  0.68275  0.43298  0.35658  1.0000
  C   C605      1.0  0.53830  0.47791  0.23290  1.0000
  H   H604      1.0  0.65632  0.37816  0.34615  1.0000
  H   H605      1.0  0.67467  0.43046  0.38289  1.0000
  C   C606      1.0  0.67489  0.20328  0.33396  1.0000
  C   C607      1.0  0.67495  0.17914  0.35612  1.0000
  Fe  Fe106     1.0  0.49384  0.43060  0.98107  1.0000
  H   H606      1.0  0.56959  0.12995  0.38009  1.0000
  H   H607      1.0  0.59030  0.14665  0.26265  1.0000
  H   H608      1.0  0.65438  0.16485  0.37242  1.0000
  N   N52       1.0  0.63799  0.47596  0.32908  1.0000
  C   C608      1.0  0.62957  0.48033  0.36437  1.0000
  C   C609      1.0  0.50556  0.11208  0.33565  1.0000
  S   S211      1.0  0.49229  0.07199  0.31077  1.0000
  C   C610      1.0  0.50135  0.14608  0.38400  1.0000
  C   C611      1.0  0.52953  0.17638  0.37427  1.0000
  C   C612      1.0  0.54597  0.17409  0.34517  1.0000
  C   C613      1.0  0.53440  0.14234  0.32652  1.0000
  H   H609      1.0  0.62174  0.41446  0.26797  1.0000
  S   S212      1.0  0.71970  0.00478  0.37008  1.0000
  H   H610      1.0  0.56792  0.19671  0.33722  1.0000
  H   H611      1.0  0.54811  0.14133  0.30483  1.0000
  C   C614      1.0  0.48948  0.11472  0.36497  1.0000
  C   C615      1.0  0.51707  0.43073  0.32850  1.0000
  C   C616      1.0  0.53723  0.42368  0.34979  1.0000
  C   C617      1.0  0.53353  0.39068  0.35044  1.0000
  C   C618      1.0  0.50902  0.36482  0.32934  1.0000
  H   H612      1.0  0.61646  0.17788  0.20936  1.0000
  H   H613      1.0  0.52123  0.45648  0.32787  1.0000
  H   H614      1.0  0.55579  0.44412  0.36594  1.0000
  H   H615      1.0  0.50599  0.33951  0.32891  1.0000
  C   C619      1.0  0.63936  0.17759  0.97736  1.0000
  C   C620      1.0  0.70384  0.46578  0.34387  1.0000
  C   C621      1.0  0.70147  0.22077  0.31220  1.0000
  C   C622      1.0  0.48837  0.37171  0.30866  1.0000
  H   H616      1.0  0.72504  0.19934  0.21988  1.0000
  C   C623      1.0  0.54309  0.02833  0.25242  1.0000
  Fe  Fe107     1.0  0.53276  0.46434  0.04662  1.0000
  H   H617      1.0  0.51695  0.34798  0.24033  1.0000
  C   C624      1.0  0.55480  0.04367  0.22092  1.0000
  C   C625      1.0  0.60727  0.25304  0.07426  1.0000
  C   C626      1.0  0.65015  0.23171  0.42876  1.0000
  C   C627      1.0  0.49685  0.39928  0.43570  1.0000
  Fe  Fe108     1.0  0.55955  0.02285  0.99111  1.0000
  H   H618      1.0  0.67226  0.03326  0.36249  1.0000
  H   H619      1.0  0.55655  0.06800  0.21566  1.0000
  C   C628      1.0  0.62476  0.11862  0.01365  1.0000
  C   C629      1.0  0.71295  0.46811  0.30936  1.0000
  H   H620      1.0  0.62058  0.12851  0.30089  1.0000
  H   H621      1.0  0.50217  0.28598  0.34361  1.0000
  N   N53       1.0  0.67742  0.16658  0.23956  1.0000
  C   C630      1.0  0.70211  0.43810  0.28844  1.0000
  C   C631      1.0  0.70080  0.17214  0.35643  1.0000
  C   C632      1.0  0.65054  0.15113  0.02471  1.0000
  C   C633      1.0  0.60530  0.23001  0.01810  1.0000
  C   C634      1.0  0.61448  0.15173  0.25575  1.0000
  Fe  Fe109     1.0  0.70792  0.27554  0.00733  1.0000
  C   C635      1.0  0.64292  0.17570  0.44353  1.0000
  C   C636      1.0  0.62924  0.16936  0.22601  1.0000
  H   H622      1.0  0.58912  0.09584  0.41112  1.0000
  H   H623      1.0  0.53439  0.45418  0.24356  1.0000
  H   H624      1.0  0.66256  0.24137  0.45425  1.0000
  H   H625      1.0  0.53607  0.04087  0.27207  1.0000
  C   C637      1.0  0.54001  0.99637  0.25840  1.0000
  C   C638      1.0  0.68541  0.08963  0.28479  1.0000
  H   H626      1.0  0.57207  0.03831  0.17102  1.0000
  C   C639      1.0  0.60055  0.12328  0.41618  1.0000
  S   S213      1.0  0.52386  0.41751  0.01615  1.0000
  H   H627      1.0  0.61953  0.09605  0.02765  1.0000
  H   H628      1.0  0.71178  0.10970  0.33240  1.0000
  H   H629      1.0  0.59694  0.19257  0.39065  1.0000
  C   C640      1.0  0.60510  0.17779  0.40486  1.0000
  H   H630      1.0  0.59892  0.30156  0.01397  1.0000
  H   H631      1.0  0.48285  0.37330  0.22509  1.0000
  H   H632      1.0  0.70032  0.15341  0.37358  1.0000
  H   H633      1.0  0.55999  0.04968  0.45272  1.0000
  H   H634      1.0  0.61011  0.25254  0.10189  1.0000
  H   H635      1.0  0.50305  0.24270  0.37986  1.0000
  S   S214      1.0  0.72043  0.10553  0.25734  1.0000
  C   C641      1.0  0.66300  0.14920  0.26863  1.0000
  C   C642      1.0  0.60070  0.28070  0.02504  1.0000
  H   H636      1.0  0.67646  0.14249  0.28619  1.0000
  H   H637      1.0  0.66457  0.18868  0.46002  1.0000
  C   C643      1.0  0.62720  0.13995  0.43900  1.0000
  H   H638      1.0  0.54318  0.46420  0.18054  1.0000
  S   S215      1.0  0.69237  0.22044  0.02041  1.0000
  C   C644      1.0  0.63136  0.14139  0.27715  1.0000
  H   H639      1.0  0.72034  0.35699  0.22222  1.0000
  C   C645      1.0  0.66087  0.17648  0.21815  1.0000
  H   H640      1.0  0.65098  0.06501  0.24262  1.0000
  Fe  Fe110     1.0  0.59265  0.32693  0.46980  1.0000
  H   H641      1.0  0.70324  0.35555  0.33514  1.0000
  S   S216      1.0  0.52720  0.45936  0.10412  1.0000
  C   C646      1.0  0.60359  0.27932  0.06062  1.0000
  H   H642      1.0  0.70829  0.15366  0.21149  1.0000
  C   C647      1.0  0.62418  0.44402  0.31358  1.0000
  H   H643      1.0  0.71546  0.39267  0.21130  1.0000
  C   C648      1.0  0.73134  0.45896  0.44148  1.0000
  S   S217      1.0  0.51545  0.48543  0.39632  1.0000
  C   C649      1.0  0.49202  0.40472  0.30792  1.0000
  C   C650      1.0  0.51560  0.38896  0.45435  1.0000
  H   H644      1.0  0.60393  0.29901  0.07750  1.0000
  C   C651      1.0  0.60145  0.25585  0.00358  1.0000
  H   H645      1.0  0.49177  0.17776  0.32397  1.0000
  S   S218      1.0  0.68242  0.30175  0.02966  1.0000
  C   C652      1.0  0.65386  0.42376  0.97926  1.0000
  N   N54       1.0  0.63176  0.19411  0.42649  1.0000
  H   H646      1.0  0.50806  0.12212  0.25670  1.0000
  H   H647      1.0  0.70291  0.13178  0.98975  1.0000
  C   C653      1.0  0.72777  0.37208  0.34539  1.0000
  H   H648      1.0  0.48497  0.42739  0.16090  1.0000
  H   H649      1.0  0.70187  0.23939  0.29491  1.0000
  C   C654      1.0  0.72675  0.18856  0.33385  1.0000
  C   C655      1.0  0.60644  0.11533  0.98403  1.0000
  N   N55       1.0  0.70404  0.44729  0.46532  1.0000
  C   C656      1.0  0.58943  0.14230  0.39892  1.0000
  H   H650      1.0  0.54337  0.15305  0.44300  1.0000
  C   C657      1.0  0.71019  0.17341  0.23052  1.0000
  Fe  Fe111     1.0  0.69285  0.33039  0.98078  1.0000
  H   H651      1.0  0.63373  0.24238  0.42490  1.0000
  C   C658      1.0  0.49128  0.33142  0.23355  1.0000
  H   H652      1.0  0.61508  0.45531  0.37700  1.0000
  H   H653      1.0  0.66506  0.15326  0.04721  1.0000
  C   C659      1.0  0.65814  0.18073  0.00653  1.0000
  S   S219      1.0  0.51364  0.99454  0.02207  1.0000
  Fe  Fe112     1.0  0.56781  0.45315  0.98579  1.0000
  H   H654      1.0  0.60093  0.17813  0.05257  1.0000
  H   H655      1.0  0.66731  0.02096  0.30172  1.0000
  H   H656      1.0  0.50679  0.01271  0.09005  1.0000
  H   H657      1.0  0.65624  0.07416  0.99188  1.0000
  N   N56       1.0  0.60801  0.22878  0.05303  1.0000
  H   H658      1.0  0.67222  0.19034  0.19506  1.0000
  H   H659      1.0  0.65985  0.46604  0.23542  1.0000
  C   C660      1.0  0.65339  0.46887  0.26156  1.0000
  C   C661      1.0  0.56105  0.99570  0.20319  1.0000
  C   C662      1.0  0.49353  0.46171  0.11953  1.0000
  H   H660      1.0  0.52736  0.37699  0.44066  1.0000
  H   H661      1.0  0.48799  0.14679  0.40617  1.0000
  H   H662      1.0  0.50895  0.10987  0.44513  1.0000
  C   C663      1.0  0.65285  0.99386  0.30694  1.0000
  H   H663      1.0  0.65277  0.99984  0.39222  1.0000
  C   C664      1.0  0.49481  0.99865  0.11263  1.0000
  C   C665      1.0  0.54308  0.48348  0.19773  1.0000
  H   H664      1.0  0.71306  0.29155  0.09303  1.0000
  C   C666      1.0  0.48834  0.11873  0.23981  1.0000
  C   C667      1.0  0.72718  0.21336  0.31215  1.0000
  H   H665      1.0  0.54699  0.12142  0.46672  1.0000
  H   H666      1.0  0.68712  0.40406  0.98195  1.0000
  S   S220      1.0  0.50100  0.47592  0.01324  1.0000
  H   H667      1.0  0.69386  0.48671  0.45257  1.0000
  S   S221      1.0  0.52136  0.99355  0.40814  1.0000
  H   H668      1.0  0.49169  0.28447  0.24160  1.0000
  H   H669      1.0  0.72427  0.99302  0.29525  1.0000
  Fe  Fe113     1.0  0.73204  0.34358  0.04669  1.0000
  C   C668      1.0  0.73212  0.38389  0.37977  1.0000
  C   C669      1.0  0.68722  0.46455  0.46814  1.0000
  C   C670      1.0  0.70225  0.43164  0.90215  1.0000
  C   C671      1.0  0.50507  0.41002  0.50643  1.0000
  H   H670      1.0  0.50882  0.41515  0.53401  1.0000
  H   H671      1.0  0.57696  0.21150  0.64591  1.0000
  S   S222      1.0  0.63272  0.99947  0.61332  1.0000
  S   S223      1.0  0.61132  0.47060  0.63503  1.0000
  H   H672      1.0  0.59987  0.38535  0.88395  1.0000
  C   C672      1.0  0.70140  0.05360  0.76918  1.0000
  C   C673      1.0  0.60453  0.41092  0.87614  1.0000
  H   H673      1.0  0.72778  0.13827  0.78130  1.0000
  H   H674      1.0  0.66795  0.06068  0.95293  1.0000
  C   C674      1.0  0.54346  0.11747  0.63710  1.0000
  H   H675      1.0  0.55274  0.35352  0.84968  1.0000
  C   C675      1.0  0.52507  0.08867  0.70154  1.0000
  C   C676      1.0  0.68079  0.39735  0.89280  1.0000
  C   C677      1.0  0.64351  0.45053  0.70831  1.0000
  Fe  Fe114     1.0  0.64429  0.31046  0.80039  1.0000
  S   S224      1.0  0.61851  0.33541  0.82711  1.0000
  S   S225      1.0  0.67833  0.29880  0.83289  1.0000
  Fe  Fe115     1.0  0.62178  0.31824  0.72886  1.0000
  S   S226      1.0  0.59503  0.34334  0.75052  1.0000
  S   S227      1.0  0.62796  0.30767  0.67192  1.0000
  Fe  Fe116     1.0  0.63863  0.37438  0.78580  1.0000
  S   S228      1.0  0.65015  0.42992  0.79478  1.0000
  Fe  Fe117     1.0  0.57581  0.30321  0.79098  1.0000
  S   S229      1.0  0.52380  0.28998  0.80681  1.0000
  S   S230      1.0  0.66714  0.35207  0.76125  1.0000
  S   S231      1.0  0.60001  0.27537  0.76697  1.0000
  S   S232      1.0  0.58544  0.33844  0.52599  1.0000
  H   H676      1.0  0.63986  0.37581  0.68439  1.0000
  Fe  Fe118     1.0  0.59102  0.03842  0.66858  1.0000
  H   H677      1.0  0.69311  0.44923  0.90598  1.0000
  H   H678      1.0  0.53945  0.36150  0.49626  1.0000
  Fe  Fe119     1.0  0.65027  0.02825  0.66394  1.0000
  C   C678      1.0  0.51502  0.12363  0.52063  1.0000
  S   S233      1.0  0.69639  0.03052  0.68448  1.0000
  Fe  Fe120     1.0  0.62074  0.03975  0.60009  1.0000
  S   S234      1.0  0.63297  0.06140  0.54730  1.0000
  N   N57       1.0  0.72542  0.38634  0.89325  1.0000
  H   H679      1.0  0.60348  0.39992  0.69466  1.0000
  S   S235      1.0  0.64215  0.07119  0.64881  1.0000
  H   H680      1.0  0.72690  0.29171  0.87133  1.0000
  C   C679      1.0  0.53988  0.05106  0.50194  1.0000
  H   H681      1.0  0.69683  0.03456  0.86135  1.0000
  C   C680      1.0  0.59353  0.05761  0.49406  1.0000
  C   C681      1.0  0.59870  0.06088  0.52972  1.0000
  C   C682      1.0  0.57533  0.06138  0.55127  1.0000
  C   C683      1.0  0.54580  0.05628  0.53742  1.0000
  N   N58       1.0  0.67668  0.47110  0.71209  1.0000
  H   H682      1.0  0.69737  0.09258  0.50218  1.0000
  H   H683      1.0  0.57986  0.06537  0.57872  1.0000
  H   H684      1.0  0.52729  0.05535  0.55440  1.0000
  C   C684      1.0  0.61578  0.31669  0.63175  1.0000
  C   C685      1.0  0.62610  0.30819  0.60098  1.0000
  C   C686      1.0  0.61693  0.31438  0.56848  1.0000
  C   C687      1.0  0.59722  0.32923  0.56627  1.0000
  C   C688      1.0  0.58675  0.33759  0.59705  1.0000
  C   C689      1.0  0.59575  0.33120  0.62955  1.0000
  H   H685      1.0  0.64139  0.29674  0.60227  1.0000
  H   H686      1.0  0.62519  0.30773  0.54518  1.0000
  H   H687      1.0  0.57135  0.34892  0.59580  1.0000
  H   H688      1.0  0.58694  0.33732  0.65278  1.0000
  H   H689      1.0  0.70698  0.40368  0.48007  1.0000
  H   H690      1.0  0.71027  0.03563  0.76968  1.0000
  C   C690      1.0  0.68330  0.46725  0.81473  1.0000
  C   C691      1.0  0.53235  0.35638  0.72304  1.0000
  C   C692      1.0  0.65465  0.11097  0.91919  1.0000
  H   H691      1.0  0.60179  0.42437  0.89913  1.0000
  C   C693      1.0  0.60656  0.35707  0.95924  1.0000
  C   C694      1.0  0.70022  0.01546  0.84763  1.0000
  C   C695      1.0  0.66898  0.40704  0.50686  1.0000
  H   H692      1.0  0.56992  0.45876  0.79475  1.0000
  H   H693      1.0  0.69973  0.41269  0.69336  1.0000
  C   C696      1.0  0.68968  0.26636  0.83158  1.0000
  H   H694      1.0  0.58828  0.33144  0.95058  1.0000
  C   C697      1.0  0.51154  0.10783  0.68832  1.0000
  H   H695      1.0  0.48345  0.16214  0.57091  1.0000
  H   H696      1.0  0.71878  0.33619  0.89413  1.0000
  S   S236      1.0  0.57567  0.07465  0.96729  1.0000
  S   S237      1.0  0.56928  0.00963  0.61861  1.0000
  S   S238      1.0  0.56529  0.06054  0.70072  1.0000
  S   S239      1.0  0.60082  0.99746  0.68844  1.0000
  C   C698      1.0  0.70598  0.16758  0.95264  1.0000
  C   C699      1.0  0.66747  0.12440  0.76467  1.0000
  C   C700      1.0  0.52088  0.12256  0.65607  1.0000
  C   C701      1.0  0.69680  0.45781  0.70729  1.0000
  H   H697      1.0  0.72578  0.18950  0.96636  1.0000
  C   C702      1.0  0.54103  0.20466  0.72042  1.0000
  C   C703      1.0  0.69286  0.37494  0.88831  1.0000
  H   H698      1.0  0.65772  0.14654  0.88100  1.0000
  H   H699      1.0  0.49871  0.24591  0.73663  1.0000
  S   S240      1.0  0.71536  0.30100  0.95661  1.0000
  C   C704      1.0  0.49659  0.17290  0.51774  1.0000
  H   H700      1.0  0.49443  0.11170  0.70339  1.0000
  N   N59       1.0  0.66718  0.10708  0.94941  1.0000
  C   C705      1.0  0.55625  0.37687  0.83843  1.0000
  H   H701      1.0  0.62745  0.46067  0.71345  1.0000
  S   S241      1.0  0.50759  0.14999  0.63928  1.0000
  C   C706      1.0  0.69274  0.13480  0.96592  1.0000
  H   H702      1.0  0.57594  0.18742  0.68210  1.0000
  H   H703      1.0  0.52212  0.10430  0.52211  1.0000
  C   C707      1.0  0.50239  0.13117  0.54984  1.0000
  H   H704      1.0  0.63280  0.05690  0.75149  1.0000
  H   H705      1.0  0.50907  0.20194  0.76141  1.0000
  N   N60       1.0  0.67935  0.10005  0.76556  1.0000
  H   H706      1.0  0.71870  0.10391  0.68716  1.0000
  C   C708      1.0  0.70884  0.21556  0.83221  1.0000
  C   C709      1.0  0.54021  0.38455  0.50821  1.0000
  N   N61       1.0  0.58204  0.40818  0.84860  1.0000
  H   H707      1.0  0.65885  0.12684  0.79058  1.0000
  C   C710      1.0  0.53373  0.37980  0.69932  1.0000
  H   H708      1.0  0.65513  0.23433  0.79201  1.0000
  C   C711      1.0  0.49255  0.33130  0.66412  1.0000
  C   C712      1.0  0.71211  0.46853  0.82549  1.0000
  N   N62       1.0  0.55551  0.21982  0.69039  1.0000
  C   C713      1.0  0.54934  0.24346  0.67625  1.0000
  C   C714      1.0  0.52890  0.25320  0.69262  1.0000
  C   C715      1.0  0.52024  0.21365  0.73742  1.0000
  C   C716      1.0  0.51445  0.23835  0.72354  1.0000
  C   C717      1.0  0.57953  0.21262  0.67441  1.0000
  H   H709      1.0  0.56060  0.25526  0.65233  1.0000
  C   C718      1.0  0.73125  0.02430  0.83551  1.0000
  C   C719      1.0  0.48372  0.25756  0.81861  1.0000
  H   H710      1.0  0.67589  0.34814  0.88158  1.0000
  H   H711      1.0  0.64704  0.11595  0.74558  1.0000
  H   H712      1.0  0.51437  0.34946  0.80410  1.0000
  H   H713      1.0  0.54585  0.18583  0.73158  1.0000
  H   H714      1.0  0.67150  0.19003  0.79264  1.0000
  C   C720      1.0  0.66756  0.14338  0.90497  1.0000
  C   C721      1.0  0.48646  0.42102  0.48854  1.0000
  S   S242      1.0  0.54791  0.48298  0.64093  1.0000
  C   C722      1.0  0.49317  0.15599  0.54834  1.0000
  H   H715      1.0  0.71532  0.07099  0.48049  1.0000
  C   C723      1.0  0.53898  0.40404  0.79737  1.0000
  C   C724      1.0  0.55638  0.09769  0.64996  1.0000
  C   C725      1.0  0.67439  0.23743  0.80939  1.0000
  H   H716      1.0  0.62778  0.05611  0.95667  1.0000
  H   H717      1.0  0.55131  0.12911  0.61237  1.0000
  C   C726      1.0  0.51438  0.36712  0.66914  1.0000
  H   H718      1.0  0.65484  0.38781  0.88981  1.0000
  H   H719      1.0  0.50856  0.30401  0.73834  1.0000
  C   C727      1.0  0.59792  0.38271  0.96294  1.0000
  H   H720      1.0  0.52268  0.40233  0.77668  1.0000
  C   C728      1.0  0.71891  0.09159  0.56423  1.0000
  C   C729      1.0  0.49029  0.30811  0.68906  1.0000
  Fe  Fe121     1.0  0.57740  0.46915  0.67555  1.0000
  H   H721      1.0  0.56586  0.40621  0.50863  1.0000
  C   C730      1.0  0.68380  0.21223  0.80984  1.0000
  H   H722      1.0  0.59974  0.14273  0.94312  1.0000
  H   H723      1.0  0.48949  0.19231  0.51653  1.0000
  H   H724      1.0  0.70338  0.19708  0.91130  1.0000
  C   C731      1.0  0.71468  0.26961  0.85402  1.0000
  H   H725      1.0  0.70096  0.09980  0.56470  1.0000
  C   C732      1.0  0.70266  0.07134  0.50442  1.0000
  H   H726      1.0  0.57384  0.09420  0.63510  1.0000
  C   C733      1.0  0.66883  0.04219  0.76040  1.0000
  C   C734      1.0  0.65812  0.06591  0.75865  1.0000
  H   H727      1.0  0.68729  0.15025  0.75736  1.0000
  H   H728      1.0  0.54755  0.36568  0.74597  1.0000
  S   S243      1.0  0.53748  0.46286  0.94765  1.0000
  H   H729      1.0  0.63020  0.42568  0.86735  1.0000
  S   S244      1.0  0.61367  0.45093  0.97120  1.0000
  H   H730      1.0  0.52445  0.27225  0.68139  1.0000
  N   N63       1.0  0.51923  0.39409  0.48932  1.0000
  C   C735      1.0  0.71114  0.11133  0.77505  1.0000
  N   N64       1.0  0.72310  0.07679  0.53502  1.0000
  C   C736      1.0  0.54753  0.08341  0.68245  1.0000
  H   H731      1.0  0.51492  0.38489  0.65063  1.0000
  H   H732      1.0  0.63190  0.41606  0.52818  1.0000
  H   H733      1.0  0.51811  0.07783  0.72674  1.0000
  C   C737      1.0  0.62169  0.41641  0.97245  1.0000
  H   H734      1.0  0.53236  0.37842  0.53531  1.0000
  N   N65       1.0  0.51836  0.14034  0.49070  1.0000
  C   C738      1.0  0.68387  0.42334  0.69715  1.0000
  H   H735      1.0  0.60466  0.23319  0.68200  1.0000
  S   S245      1.0  0.57704  0.47079  0.54637  1.0000
  S   S246      1.0  0.64911  0.33215  0.95782  1.0000
  C   C739      1.0  0.58682  0.43741  0.83358  1.0000
  C   C740      1.0  0.53426  0.37437  0.81283  1.0000
  S   S247      1.0  0.50159  0.04066  0.48505  1.0000
  S   S248      1.0  0.55754  0.42421  0.71121  1.0000
  C   C741      1.0  0.69475  0.41839  0.48368  1.0000
  H   H736      1.0  0.71461  0.44610  0.82202  1.0000
  C   C742      1.0  0.65227  0.42501  0.51063  1.0000
  C   C743      1.0  0.50920  0.16461  0.48889  1.0000
  H   H737      1.0  0.63426  0.08903  0.90620  1.0000
  C   C744      1.0  0.56557  0.43576  0.80752  1.0000
  C   C745      1.0  0.65018  0.40253  0.69216  1.0000
  H   H738      1.0  0.49401  0.21637  0.82081  1.0000
  C   C746      1.0  0.62979  0.41608  0.69786  1.0000
  C   C747      1.0  0.69332  0.17182  0.92193  1.0000
  C   C748      1.0  0.56411  0.05279  0.48018  1.0000
  C   C749      1.0  0.51064  0.32109  0.71828  1.0000
  C   C750      1.0  0.61365  0.14504  0.96620  1.0000
  H   H739      1.0  0.66135  0.38391  0.52118  1.0000
  H   H740      1.0  0.60750  0.46210  0.84138  1.0000
  H   H741      1.0  0.57320  0.37672  0.95708  1.0000
  C   C751      1.0  0.65420  0.07280  0.96331  1.0000
  S   S249      1.0  0.71925  0.18244  0.83188  1.0000
  H   H742      1.0  0.67914  0.04680  0.50622  1.0000
  H   H743      1.0  0.64528  0.20004  0.96276  1.0000
  H   H744      1.0  0.65229  0.01525  0.75420  1.0000
  C   C752      1.0  0.66123  0.45384  0.49101  1.0000
  C   C753      1.0  0.63874  0.36447  0.96614  1.0000
  C   C754      1.0  0.72270  0.08831  0.77670  1.0000
  C   C755      1.0  0.72430  0.24458  0.85425  1.0000
  H   H745      1.0  0.72299  0.47387  0.71132  1.0000
  H   H746      1.0  0.49988  0.11793  0.57358  1.0000
  H   H747      1.0  0.61167  0.05742  0.47730  1.0000
  H   H748      1.0  0.64793  0.46755  0.49335  1.0000
  H   H749      1.0  0.48692  0.72308  0.38899  1.0000
  N   N66       1.0  0.54276  0.53306  0.24134  1.0000
  N   N67       1.0  0.64233  0.98344  0.33953  1.0000
  S   S250      1.0  0.69943  0.86745  0.40547  1.0000
  C   C756      1.0  0.66737  0.50133  0.27760  1.0000
  C   C757      1.0  0.72770  0.71256  0.31974  1.0000
  Fe  Fe122     1.0  0.62339  0.73638  0.29650  1.0000
  S   S251      1.0  0.60533  0.77068  0.31813  1.0000
  S   S252      1.0  0.63686  0.70253  0.32746  1.0000
  Fe  Fe123     1.0  0.61180  0.74915  0.22437  1.0000
  S   S253      1.0  0.59344  0.78448  0.23910  1.0000
  S   S254      1.0  0.61549  0.73038  0.17176  1.0000
  Fe  Fe124     1.0  0.63551  0.80841  0.27747  1.0000
  S   S255      1.0  0.66745  0.86762  0.27452  1.0000
  Fe  Fe125     1.0  0.56370  0.74586  0.27902  1.0000
  S   S256      1.0  0.51117  0.73783  0.28102  1.0000
  S   S257      1.0  0.65616  0.77524  0.25898  1.0000
  S   S258      1.0  0.57960  0.70878  0.26057  1.0000
  N   N68       1.0  0.65891  0.75166  0.39683  1.0000
  Fe  Fe126     1.0  0.64255  0.84090  0.41096  1.0000
  S   S259      1.0  0.62088  0.86792  0.44169  1.0000
  Fe  Fe127     1.0  0.57499  0.77348  0.40359  1.0000
  S   S260      1.0  0.55009  0.79723  0.43376  1.0000
  S   S261      1.0  0.54227  0.71436  0.39052  1.0000
  Fe  Fe128     1.0  0.57850  0.84508  0.40322  1.0000
  S   S262      1.0  0.55781  0.87962  0.38502  1.0000
  Fe  Fe129     1.0  0.69729  0.76351  0.99645  1.0000
  S   S263      1.0  0.60152  0.82103  0.37096  1.0000
  S   S264      1.0  0.61667  0.79284  0.44255  1.0000
  C   C758      1.0  0.48885  0.69375  0.18160  1.0000
  C   C759      1.0  0.62455  0.94928  0.34629  1.0000
  H   H750      1.0  0.51341  0.95057  0.34220  1.0000
  Fe  Fe130     1.0  0.49384  0.51500  0.42052  1.0000
  S   S265      1.0  0.51083  0.55570  0.38172  1.0000
  H   H751      1.0  0.59066  0.79218  0.02206  1.0000
  H   H752      1.0  0.50954  0.66702  0.27448  1.0000
  Fe  Fe131     1.0  0.53230  0.52571  0.35603  1.0000
  S   S266      1.0  0.58571  0.54864  0.33629  1.0000
  H   H753      1.0  0.70410  0.75456  0.40944  1.0000
  S   S267      1.0  0.57931  0.49938  0.01965  1.0000
  C   C760      1.0  0.54687  0.53844  0.20679  1.0000
  C   C761      1.0  0.53849  0.50325  0.25448  1.0000
  H   H754      1.0  0.60429  0.89740  0.32607  1.0000
  H   H755      1.0  0.65401  0.56574  0.23380  1.0000
  C   C762      1.0  0.65428  0.57053  0.26126  1.0000
  C   C763      1.0  0.62435  0.55734  0.27868  1.0000
  C   C764      1.0  0.62369  0.56346  0.31414  1.0000
  C   C765      1.0  0.65390  0.58208  0.33195  1.0000
  C   C766      1.0  0.68403  0.59532  0.31443  1.0000
  H   H756      1.0  0.60184  0.54266  0.26435  1.0000
  H   H757      1.0  0.65403  0.58654  0.35942  1.0000
  C   C767      1.0  0.64670  0.66714  0.99373  1.0000
  C   C768      1.0  0.65105  0.76247  0.15312  1.0000
  C   C769      1.0  0.66473  0.75413  0.12538  1.0000
  C   C770      1.0  0.69210  0.78000  0.10910  1.0000
  C   C771      1.0  0.70584  0.81419  0.12062  1.0000
  C   C772      1.0  0.69310  0.82229  0.14944  1.0000
  C   C773      1.0  0.66563  0.79640  0.16568  1.0000
  H   H758      1.0  0.65409  0.72777  0.11628  1.0000
  H   H759      1.0  0.70244  0.77352  0.08740  1.0000
  H   H760      1.0  0.70344  0.84864  0.15834  1.0000
  H   H761      1.0  0.65515  0.80297  0.18719  1.0000
  H   H762      1.0  0.72743  0.49294  0.29834  1.0000
  C   C774      1.0  0.62850  0.93479  0.28704  1.0000
  Fe  Fe132     1.0  0.50292  0.94775  0.99036  1.0000
  H   H763      1.0  0.50328  0.71429  0.45197  1.0000
  C   C775      1.0  0.68255  0.90538  0.30185  1.0000
  C   C776      1.0  0.67676  0.90407  0.33718  1.0000
  C   C777      1.0  0.68872  0.93461  0.35751  1.0000
  H   H764      1.0  0.59654  0.67818  0.08320  1.0000
  H   H765      1.0  0.66343  0.87947  0.34902  1.0000
  H   H766      1.0  0.68425  0.93285  0.38488  1.0000
  C   C778      1.0  0.67195  0.69813  0.33290  1.0000
  C   C779      1.0  0.66953  0.67193  0.35374  1.0000
  C   C780      1.0  0.69595  0.66604  0.35756  1.0000
  C   C781      1.0  0.68448  0.59014  0.27876  1.0000
  C   C782      1.0  0.70151  0.71898  0.31647  1.0000
  H   H767      1.0  0.64675  0.65544  0.36640  1.0000
  H   H768      1.0  0.69366  0.64577  0.37361  1.0000
  H   H769      1.0  0.70385  0.73930  0.30040  1.0000
  C   C783      1.0  0.50117  0.60827  0.32958  1.0000
  H   H770      1.0  0.51989  0.92675  0.23363  1.0000
  C   C784      1.0  0.49852  0.64456  0.37680  1.0000
  C   C785      1.0  0.52856  0.67326  0.36808  1.0000
  C   C786      1.0  0.54549  0.66868  0.34072  1.0000
  C   C787      1.0  0.53217  0.63664  0.32204  1.0000
  H   H771      1.0  0.68460  0.52405  0.26404  1.0000
  H   H772      1.0  0.53170  0.57241  0.25346  1.0000
  H   H773      1.0  0.56887  0.68994  0.33373  1.0000
  H   H774      1.0  0.54590  0.63409  0.30115  1.0000
  H   H775      1.0  0.48482  0.64705  0.39776  1.0000
  C   C788      1.0  0.51350  0.92698  0.33799  1.0000
  C   C789      1.0  0.53289  0.91924  0.35978  1.0000
  C   C790      1.0  0.53354  0.88847  0.35549  1.0000
  C   C791      1.0  0.51511  0.86614  0.32804  1.0000
  H   H776      1.0  0.65557  0.97815  0.25472  1.0000
  S   S268      1.0  0.67521  0.78935  0.02695  1.0000
  H   H777      1.0  0.54722  0.93724  0.38037  1.0000
  H   H778      1.0  0.51579  0.84286  0.32335  1.0000
  C   C792      1.0  0.66301  0.70815  0.42709  1.0000
  S   S269      1.0  0.61586  0.95488  0.97557  1.0000
  C   C793      1.0  0.71378  0.72568  0.21203  1.0000
  S   S270      1.0  0.48617  0.49369  0.32529  1.0000
  H   H779      1.0  0.61647  0.94105  0.37217  1.0000
  H   H780      1.0  0.63196  0.69673  0.05606  1.0000
  C   C794      1.0  0.70046  0.93792  0.28721  1.0000
  H   H781      1.0  0.55772  0.72270  0.46725  1.0000
  H   H782      1.0  0.62268  0.64676  0.27764  1.0000
  C   C795      1.0  0.49785  0.67817  0.20668  1.0000
  H   H783      1.0  0.67882  0.77814  0.35090  1.0000
  H   H784      1.0  0.60146  0.73239  0.09941  1.0000
  Fe  Fe133     1.0  0.57505  0.96446  0.99368  1.0000
  H   H785      1.0  0.53429  0.55065  0.28976  1.0000
  H   H786      1.0  0.50355  0.78365  0.32805  1.0000
  C   C796      1.0  0.54533  0.94699  0.24062  1.0000
  H   H787      1.0  0.62938  0.61877  0.24865  1.0000
  C   C797      1.0  0.72118  0.70262  0.22709  1.0000
  H   H788      1.0  0.65957  0.64057  0.03034  1.0000
  H   H789      1.0  0.52311  0.76716  0.35448  1.0000
  S   S271      1.0  0.68236  0.70724  0.00374  1.0000
  S   S272      1.0  0.71735  0.50257  0.37219  1.0000
  C   C798      1.0  0.54719  0.51381  0.18449  1.0000
  C   C799      1.0  0.54519  0.56048  0.26438  1.0000
  H   H790      1.0  0.67095  0.52948  0.32429  1.0000
  C   C800      1.0  0.62894  0.68829  0.42782  1.0000
  H   H791      1.0  0.65939  0.79584  0.37741  1.0000
  C   C801      1.0  0.65892  0.69333  0.23356  1.0000
  H   H792      1.0  0.49973  0.94689  0.17147  1.0000
  H   H793      1.0  0.69848  0.80267  0.39009  1.0000
  H   H794      1.0  0.59618  0.78205  0.08376  1.0000
  Fe  Fe134     1.0  0.54393  0.98049  0.05495  1.0000
  C   C802      1.0  0.64135  0.64141  0.26654  1.0000
  H   H795      1.0  0.58355  0.68474  0.41222  1.0000
  H   H796      1.0  0.63467  0.69003  0.23600  1.0000
  H   H797      1.0  0.70690  0.60934  0.32862  1.0000
  C   C803      1.0  0.50970  0.78155  0.35513  1.0000
  H   H798      1.0  0.65236  0.63523  0.28855  1.0000
  N   N69       1.0  0.54948  0.98080  0.23414  1.0000
  C   C804      1.0  0.50625  0.97933  0.12894  1.0000
  S   S273      1.0  0.53943  0.97656  0.11265  1.0000
  H   H799      1.0  0.57129  0.88090  0.98449  1.0000
  Fe  Fe135     1.0  0.72660  0.82878  0.04187  1.0000
  N   N70       1.0  0.59906  0.71468  0.04747  1.0000
  H   H800      1.0  0.54999  0.56192  0.19631  1.0000
  C   C805      1.0  0.49543  0.87375  0.30651  1.0000
  H   H801      1.0  0.70490  0.93947  0.25986  1.0000
  H   H802      1.0  0.59245  0.66461  0.03876  1.0000
  S   S274      1.0  0.72130  0.60685  0.25428  1.0000
  H   H803      1.0  0.59724  0.70352  0.99358  1.0000
  C   C806      1.0  0.64211  0.63790  0.01069  1.0000
  H   H804      1.0  0.52624  0.80768  0.36606  1.0000
  H   H805      1.0  0.61262  0.58277  0.01498  1.0000
  C   C807      1.0  0.61549  0.60504  0.00203  1.0000
  Fe  Fe136     1.0  0.59327  0.81895  0.47068  1.0000
  C   C808      1.0  0.54147  0.92682  0.46289  1.0000
  H   H806      1.0  0.55095  0.52283  0.45229  1.0000
  H   H807      1.0  0.56271  0.94238  0.22552  1.0000
  C   C809      1.0  0.67468  0.78357  0.37786  1.0000
  C   C810      1.0  0.65945  0.50435  0.31164  1.0000
  C   C811      1.0  0.70639  0.96713  0.34291  1.0000
  C   C812      1.0  0.61003  0.70046  0.41301  1.0000
  H   H808      1.0  0.62428  0.91571  0.26702  1.0000
  C   C813      1.0  0.64615  0.96973  0.28021  1.0000
  H   H809      1.0  0.73223  0.74709  0.19789  1.0000
  C   C814      1.0  0.67767  0.73987  0.41117  1.0000
  C   C815      1.0  0.59608  0.72008  0.01350  1.0000
  C   C816      1.0  0.59869  0.73634  0.07252  1.0000
  C   C817      1.0  0.49362  0.90384  0.31171  1.0000
  C   C818      1.0  0.59541  0.76435  0.06385  1.0000
  C   C819      1.0  0.59236  0.74761  0.00391  1.0000
  C   C820      1.0  0.59224  0.76997  0.02929  1.0000
  H   H810      1.0  0.50492  0.70637  0.16036  1.0000
  S   S275      1.0  0.53096  0.93198  0.02512  1.0000
  C   C821      1.0  0.51147  0.92548  0.45869  1.0000
  H   H811      1.0  0.67648  0.73883  0.20366  1.0000
  H   H812      1.0  0.49505  0.90966  0.43777  1.0000
  H   H813      1.0  0.70527  0.85571  0.33072  1.0000
  H   H814      1.0  0.54971  0.94469  0.26831  1.0000
  C   C822      1.0  0.72488  0.68562  0.33975  1.0000
  C   C823      1.0  0.72965  0.87148  0.34157  1.0000
  C   C824      1.0  0.61746  0.92446  0.32023  1.0000
  C   C825      1.0  0.71195  0.96851  0.30742  1.0000
  Fe  Fe137     1.0  0.54717  0.50755  0.98338  1.0000
  H   H815      1.0  0.61064  0.74075  0.38449  1.0000
  H   H816      1.0  0.57117  0.58016  0.26932  1.0000
  H   H817      1.0  0.61715  0.66311  0.43895  1.0000
  H   H818      1.0  0.72190  0.61242  0.00747  1.0000
  C   C826      1.0  0.49138  0.96232  0.15905  1.0000
  C   C827      1.0  0.62550  0.73235  0.39751  1.0000
  N   N71       1.0  0.66649  0.67097  0.24842  1.0000
  H   H819      1.0  0.54803  0.91206  0.44559  1.0000
  C   C828      1.0  0.59584  0.88545  0.98128  1.0000
  H   H820      1.0  0.48995  0.68055  0.32666  1.0000
  C   C829      1.0  0.60523  0.68716  0.05687  1.0000
  H   H821      1.0  0.49658  0.49754  0.08213  1.0000
  H   H822      1.0  0.52109  0.67899  0.20468  1.0000
  H   H823      1.0  0.53598  0.49920  0.28190  1.0000
  C   C830      1.0  0.67791  0.56770  0.98766  1.0000
  C   C831      1.0  0.62190  0.91908  0.97838  1.0000
  H   H824      1.0  0.67797  0.69851  0.43761  1.0000
  H   H825      1.0  0.55030  0.51796  0.15702  1.0000
  H   H826      1.0  0.65222  0.49601  0.38012  1.0000
  C   C832      1.0  0.68247  0.72104  0.21525  1.0000
  C   C833      1.0  0.60136  0.85752  0.97842  1.0000
  H   H827      1.0  0.58082  0.83161  0.97915  1.0000
  Fe  Fe138     1.0  0.68295  0.82207  0.98135  1.0000
  C   C834      1.0  0.69705  0.67512  0.24509  1.0000
  H   H828      1.0  0.68003  0.54991  0.00428  1.0000
  H   H829      1.0  0.70320  0.65764  0.25713  1.0000
  C   C835      1.0  0.59327  0.60096  0.97595  1.0000
  C   C836      1.0  0.70125  0.60262  0.98953  1.0000
  S   S276      1.0  0.48443  0.56834  0.30323  1.0000
  H   H830      1.0  0.49416  0.62819  0.24779  1.0000
  C   C837      1.0  0.48495  0.61296  0.35768  1.0000
  C   C838      1.0  0.48805  0.64678  0.25981  1.0000
  H   H831      1.0  0.53003  0.98409  0.28258  1.0000
  H   H832      1.0  0.61502  0.49347  0.36414  1.0000
  H   H833      1.0  0.56741  0.98282  0.18332  1.0000
  H   H834      1.0  0.69108  0.62294  0.47391  1.0000
  H   H835      1.0  0.59089  0.75244  0.97691  1.0000
  C   C839      1.0  0.65570  0.92193  0.71886  1.0000
  H   H836      1.0  0.50881  0.84737  0.59052  1.0000
  N   N72       1.0  0.53234  0.72886  0.54713  1.0000
  C   C840      1.0  0.69802  0.62506  0.96786  1.0000
  H   H837      1.0  0.61093  0.89094  0.89081  1.0000
  C   C841      1.0  0.69540  0.74276  0.86326  1.0000
  H   H838      1.0  0.67634  0.82780  0.88966  1.0000
  C   C842      1.0  0.52695  0.83995  0.68599  1.0000
  C   C843      1.0  0.72984  0.74848  0.80351  1.0000
  C   C844      1.0  0.56260  0.49960  0.49337  1.0000
  N   N73       1.0  0.70685  0.59635  0.54844  1.0000
  C   C845      1.0  0.65805  0.57547  0.49809  1.0000
  H   H839      1.0  0.63133  0.53041  0.52804  1.0000
  N   N74       1.0  0.67228  0.61307  0.94498  1.0000
  H   H840      1.0  0.54933  0.75787  0.67949  1.0000
  S   S277      1.0  0.70192  0.79336  0.94920  1.0000
  Fe  Fe139     1.0  0.64145  0.79930  0.80339  1.0000
  S   S278      1.0  0.60934  0.81634  0.83025  1.0000
  S   S279      1.0  0.66449  0.77654  0.83895  1.0000
  Fe  Fe140     1.0  0.62534  0.81696  0.73224  1.0000
  S   S280      1.0  0.59252  0.83505  0.75433  1.0000
  S   S281      1.0  0.63857  0.81565  0.67546  1.0000
  Fe  Fe141     1.0  0.63197  0.86194  0.79571  1.0000
  S   S282      1.0  0.64250  0.91425  0.81848  1.0000
  Fe  Fe142     1.0  0.57220  0.78859  0.78766  1.0000
  S   S283      1.0  0.51752  0.74805  0.79214  1.0000
  S   S284      1.0  0.66637  0.84688  0.77164  1.0000
  S   S285      1.0  0.60288  0.76874  0.76284  1.0000
  S   S286      1.0  0.57821  0.81557  0.52737  1.0000
  C   C846      1.0  0.59751  0.63033  0.95945  1.0000
  Fe  Fe143     1.0  0.58473  0.53797  0.65601  1.0000
  H   H841      1.0  0.57612  0.73218  0.52837  1.0000
  H   H842      1.0  0.50250  0.67325  0.74671  1.0000
  Fe  Fe144     1.0  0.64407  0.52621  0.64994  1.0000
  H   H843      1.0  0.50454  0.89131  0.94507  1.0000
  S   S287      1.0  0.69731  0.54149  0.64091  1.0000
  N   N75       1.0  0.50303  0.94399  0.48047  1.0000
  H   H844      1.0  0.58775  0.69058  0.69334  1.0000
  Fe  Fe145     1.0  0.58283  0.97129  0.63633  1.0000
  H   H845      1.0  0.55987  0.92624  0.92079  1.0000
  S   S288      1.0  0.61917  0.54365  0.61338  1.0000
  C   C847      1.0  0.48358  0.74318  0.81650  1.0000
  C   C848      1.0  0.52225  0.51761  0.49694  1.0000
  C   C849      1.0  0.50238  0.84324  0.93344  1.0000
  C   C850      1.0  0.52370  0.96377  0.50688  1.0000
  H   H846      1.0  0.71496  0.52330  0.71120  1.0000
  C   C851      1.0  0.73211  0.60703  0.57539  1.0000
  H   H847      1.0  0.71934  0.71652  0.88358  1.0000
  H   H848      1.0  0.67400  0.95020  0.97181  1.0000
  N   N76       1.0  0.54450  0.67849  0.72094  1.0000
  H   H849      1.0  0.68063  0.66283  0.93339  1.0000
  C   C852      1.0  0.67866  0.56540  0.55073  1.0000
  C   C853      1.0  0.62104  0.81560  0.63469  1.0000
  C   C854      1.0  0.63741  0.81530  0.60457  1.0000
  C   C855      1.0  0.62513  0.81597  0.57159  1.0000
  C   C856      1.0  0.59611  0.81681  0.56823  1.0000
  C   C857      1.0  0.57976  0.81716  0.59835  1.0000
  C   C858      1.0  0.59213  0.81670  0.63136  1.0000
  H   H850      1.0  0.65992  0.81469  0.60675  1.0000
  H   H851      1.0  0.63805  0.81566  0.54879  1.0000
  H   H852      1.0  0.55729  0.81783  0.59614  1.0000
  H   H853      1.0  0.57935  0.81746  0.65413  1.0000
  C   C859      1.0  0.70653  0.52741  0.83417  1.0000
  H   H854      1.0  0.53065  0.48816  0.57341  1.0000
  C   C860      1.0  0.67727  0.95640  0.82430  1.0000
  C   C861      1.0  0.62407  0.66325  0.96823  1.0000
  C   C862      1.0  0.54382  0.64985  0.73867  1.0000
  C   C863      1.0  0.69071  0.50719  0.72295  1.0000
  C   C864      1.0  0.56275  0.94704  0.48966  1.0000
  C   C865      1.0  0.55705  0.49010  0.52768  1.0000
  H   H855      1.0  0.67524  0.54897  0.57214  1.0000
  C   C866      1.0  0.71664  0.72923  0.86170  1.0000
  H   H856      1.0  0.72232  0.60925  0.60069  1.0000
  C   C867      1.0  0.69098  0.75903  0.83490  1.0000
  C   C868      1.0  0.70835  0.76169  0.80494  1.0000
  H   H857      1.0  0.59110  0.74130  0.66612  1.0000
  H   H858      1.0  0.70541  0.77413  0.78291  1.0000
  H   H859      1.0  0.64972  0.97542  0.85167  1.0000
  C   C869      1.0  0.65174  0.55567  0.96425  1.0000
  C   C870      1.0  0.55391  0.96574  0.51178  1.0000
  H   H860      1.0  0.56234  0.83562  0.89381  1.0000
  C   C871      1.0  0.54199  0.72306  0.48731  1.0000
  C   C872      1.0  0.65526  0.89950  0.66172  1.0000
  C   C873      1.0  0.69242  0.90989  0.88773  1.0000
  H   H861      1.0  0.56125  0.63433  0.63574  1.0000
  H   H862      1.0  0.68080  0.92509  0.89223  1.0000
  S   S289      1.0  0.49686  0.52956  0.47636  1.0000
  H   H863      1.0  0.60915  0.93662  0.66311  1.0000
  H   H864      1.0  0.51690  0.97816  0.52439  1.0000
  H   H865      1.0  0.53288  0.70588  0.59378  1.0000
  C   C874      1.0  0.57107  0.72587  0.68303  1.0000
  S   S290      1.0  0.61232  0.52396  0.69419  1.0000
  C   C875      1.0  0.72490  0.92559  0.87743  1.0000
  H   H866      1.0  0.66311  0.88596  0.64440  1.0000
  H   H867      1.0  0.55486  0.89544  0.68751  1.0000
  C   C876      1.0  0.48595  0.76849  0.83987  1.0000
  H   H868      1.0  0.59631  0.88679  0.61349  1.0000
  C   C877      1.0  0.50689  0.80989  0.66615  1.0000
  N   N77       1.0  0.72206  0.87084  0.87589  1.0000
  H   H869      1.0  0.51396  0.64301  0.64617  1.0000
  H   H870      1.0  0.65873  0.49637  0.81053  1.0000
  H   H871      1.0  0.53277  0.74584  0.59892  1.0000
  C   C878      1.0  0.51437  0.56337  0.68165  1.0000
  C   C879      1.0  0.51137  0.71841  0.47869  1.0000
  C   C880      1.0  0.67349  0.98180  0.84203  1.0000
  C   C881      1.0  0.65364  0.92435  0.97423  1.0000
  C   C882      1.0  0.50226  0.72436  0.53887  1.0000
  C   C883      1.0  0.53509  0.49553  0.54695  1.0000
  C   C884      1.0  0.53366  0.87554  0.63716  1.0000
  C   C885      1.0  0.65380  0.55465  0.52577  1.0000
  C   C886      1.0  0.51375  0.84544  0.61732  1.0000
  H   H872      1.0  0.56939  0.74652  0.58653  1.0000
  H   H873      1.0  0.55577  0.63823  0.72328  1.0000
  C   C887      1.0  0.65936  0.89652  0.97290  1.0000
  H   H874      1.0  0.63449  0.89226  0.59861  1.0000
  N   N78       1.0  0.56431  0.88297  0.90627  1.0000
  C   C888      1.0  0.51718  0.87892  0.93400  1.0000
  C   C889      1.0  0.56917  0.69734  0.69872  1.0000
  H   H875      1.0  0.72666  0.82670  0.88317  1.0000
  C   C890      1.0  0.54832  0.89850  0.92013  1.0000
  H   H876      1.0  0.62747  0.94709  0.72429  1.0000
  H   H877      1.0  0.68403  0.63853  0.89753  1.0000
  H   H878      1.0  0.62862  0.56934  0.92513  1.0000
  C   C891      1.0  0.54774  0.73523  0.69053  1.0000
  C   C892      1.0  0.59629  0.90394  0.89064  1.0000
  H   H879      1.0  0.67495  0.51746  0.71441  1.0000
  H   H880      1.0  0.68392  0.90113  0.96949  1.0000
  C   C893      1.0  0.68068  0.49684  0.81922  1.0000
  C   C894      1.0  0.54059  0.61571  0.65004  1.0000
  H   H881      1.0  0.59293  0.90918  0.86364  1.0000
  C   C895      1.0  0.52162  0.68759  0.72848  1.0000
  C   C896      1.0  0.55216  0.72828  0.52188  1.0000
  C   C897      1.0  0.48755  0.59754  0.67559  1.0000
  H   H882      1.0  0.62873  0.92871  0.60238  1.0000
  S   S291      1.0  0.56113  0.55982  0.96169  1.0000
  H   H883      1.0  0.64967  0.86196  0.90004  1.0000
  C   C898      1.0  0.67492  0.87452  0.89201  1.0000
  C   C899      1.0  0.51378  0.62069  0.65587  1.0000
  C   C900      1.0  0.54113  0.58709  0.66295  1.0000
  H   H884      1.0  0.63341  0.52854  0.96271  1.0000
  H   H885      1.0  0.71465  0.59252  0.69762  1.0000
  H   H886      1.0  0.51455  0.54149  0.69212  1.0000
  H   H887      1.0  0.50748  0.79984  0.91841  1.0000
  C   C901      1.0  0.54984  0.84796  0.90525  1.0000
  S   S292      1.0  0.54631  0.97679  0.95604  1.0000
  H   H888      1.0  0.55662  0.65900  0.76403  1.0000
  S   S293      1.0  0.55072  0.91578  0.61699  1.0000
  C   C902      1.0  0.70824  0.96525  0.81205  1.0000
  H   H889      1.0  0.62766  0.68534  0.95437  1.0000
  C   C903      1.0  0.52283  0.71594  0.71330  1.0000
  H   H890      1.0  0.50917  0.79192  0.84374  1.0000
  H   H891      1.0  0.58056  0.62746  0.93910  1.0000
  H   H892      1.0  0.71170  0.94619  0.79835  1.0000
  C   C904      1.0  0.51750  0.50909  0.53153  1.0000
  N   N79       1.0  0.63513  0.91088  0.65023  1.0000
  H   H893      1.0  0.69349  0.50984  0.75134  1.0000
  C   C905      1.0  0.62523  0.92782  0.67227  1.0000
  C   C906      1.0  0.54001  0.87263  0.67172  1.0000
  C   C907      1.0  0.63540  0.93368  0.70687  1.0000
  H   H894      1.0  0.48634  0.72449  0.55884  1.0000
  C   C908      1.0  0.62326  0.90437  0.61440  1.0000
  C   C909      1.0  0.64931  0.57885  0.94291  1.0000
  H   H895      1.0  0.70420  0.54996  0.83726  1.0000
  H   H896      1.0  0.53234  0.83796  0.71262  1.0000
  H   H897      1.0  0.66354  0.92607  0.74570  1.0000
  H   H898      1.0  0.58595  0.94802  0.49340  1.0000
  C   C910      1.0  0.66568  0.90466  0.69619  1.0000
  H   H899      1.0  0.61096  0.92882  0.90504  1.0000
  C   C911      1.0  0.54232  0.73183  0.58339  1.0000
  C   C912      1.0  0.67031  0.63676  0.92125  1.0000
  S   S294      1.0  0.57732  0.58453  0.65866  1.0000
  C   C913      1.0  0.68712  0.60678  0.49565  1.0000
  H   H900      1.0  0.50514  0.72354  0.72014  1.0000
  H   H901      1.0  0.49960  0.51207  0.54614  1.0000
  C   C914      1.0  0.50021  0.81280  0.63175  1.0000
  H   H902      1.0  0.57991  0.49587  0.47853  1.0000
  C   C915      1.0  0.69021  0.85528  0.88607  1.0000
  H   H903      1.0  0.51817  0.62904  0.74260  1.0000
  H   H904      1.0  0.63883  0.56727  0.47862  1.0000
  H   H905      1.0  0.68107  0.89489  0.70523  1.0000
  H   H906      1.0  0.64447  0.62803  0.91401  1.0000
  C   C916      1.0  0.71129  0.61703  0.52139  1.0000
  C   C917      1.0  0.49139  0.71923  0.50457  1.0000
  C   C918      1.0  0.54570  0.51412  0.47828  1.0000
  C   C919      1.0  0.51881  0.82759  0.91909  1.0000
  H   H907      1.0  0.48492  0.78995  0.61613  1.0000
  S   S295      1.0  0.49101  0.76948  0.68554  1.0000
  H   H908      1.0  0.57023  0.98149  0.53278  1.0000
  S   S296      1.0  0.63840  0.82682  0.96671  1.0000
  H   H909      1.0  0.68205  0.74038  0.88656  1.0000
  H   H910      1.0  0.71625  0.65215  0.96961  1.0000
  C   C920      1.0  0.48797  0.56880  0.68823  1.0000
  C   C921      1.0  0.63315  0.86285  0.97429  1.0000
  Fe  Fe146     1.0  0.58477  0.48814  0.60167  1.0000
  H   H911      1.0  0.97935  0.20368  0.41634  1.0000
  S   S297      1.0  0.89617  0.42169  0.25944  1.0000
  N   N80       1.0  0.80099  0.00405  0.31949  1.0000
  Fe  Fe147     1.0  0.87726  0.44646  0.29710  1.0000
  S   S298      1.0  0.82111  0.41510  0.30747  1.0000
  C   C922      1.0  0.96494  0.45697  0.17646  1.0000
  C   C923      1.0  0.73255  0.38546  0.22294  1.0000
  Fe  Fe148     1.0  0.78130  0.12116  0.42771  1.0000
  S   S299      1.0  0.81093  0.16279  0.39161  1.0000
  Fe  Fe149     1.0  0.75323  0.06387  0.37226  1.0000
  S   S300      1.0  0.78153  0.10115  0.33134  1.0000
  H   H912      1.0  0.78172  0.26362  0.98994  1.0000
  Fe  Fe150     1.0  0.82531  0.12649  0.36846  1.0000
  S   S301      1.0  0.88045  0.14465  0.36965  1.0000
  Fe  Fe151     1.0  0.76628  0.13721  0.35694  1.0000
  S   S302      1.0  0.75826  0.17804  0.33062  1.0000
  S   S303      1.0  0.79767  0.08571  0.40730  1.0000
  H   H913      1.0  0.78224  0.00035  0.37028  1.0000
  Fe  Fe152     1.0  0.77712  0.14346  0.25429  1.0000
  S   S304      1.0  0.79707  0.19215  0.22387  1.0000
  H   H914      1.0  0.85147  0.25283  0.18329  1.0000
  Fe  Fe153     1.0  0.84534  0.14891  0.25861  1.0000
  S   S305      1.0  0.86919  0.19835  0.22930  1.0000
  S   S306      1.0  0.87448  0.12064  0.26860  1.0000
  Fe  Fe154     1.0  0.84029  0.21583  0.26137  1.0000
  S   S307      1.0  0.85849  0.27258  0.27784  1.0000
  Fe  Fe155     1.0  0.82530  0.17311  0.19311  1.0000
  S   S308      1.0  0.84007  0.18156  0.13605  1.0000
  S   S309      1.0  0.81954  0.16880  0.29331  1.0000
  S   S310      1.0  0.80310  0.12309  0.22062  1.0000
  H   H915      1.0  0.81694  0.24111  0.99810  1.0000
  C   C924      1.0  0.76632  0.41239  0.17253  1.0000
  C   C925      1.0  0.88727  0.09564  0.29308  1.0000
  C   C926      1.0  0.91216  0.09065  0.27992  1.0000
  C   C927      1.0  0.92518  0.07364  0.29859  1.0000
  C   C928      1.0  0.91247  0.05904  0.33046  1.0000
  C   C929      1.0  0.88552  0.06154  0.34234  1.0000
  C   C930      1.0  0.87334  0.07992  0.32417  1.0000
  H   H916      1.0  0.92130  0.09978  0.25470  1.0000
  H   H917      1.0  0.87398  0.04928  0.36588  1.0000
  H   H918      1.0  0.85303  0.08177  0.33421  1.0000
  C   C931      1.0  0.88409  0.30736  0.30738  1.0000
  C   C932      1.0  0.88625  0.33935  0.30339  1.0000
  C   C933      1.0  0.90547  0.36756  0.32613  1.0000
  C   C934      1.0  0.92339  0.36469  0.35325  1.0000
  C   C935      1.0  0.90146  0.30406  0.33488  1.0000
  H   H919      1.0  0.87293  0.34246  0.28248  1.0000
  H   H920      1.0  0.90666  0.39174  0.32254  1.0000
  C   C936      1.0  0.89837  0.23082  0.40216  1.0000
  H   H921      1.0  0.93395  0.32955  0.37888  1.0000
  C   C937      1.0  0.82036  0.17598  0.09500  1.0000
  C   C938      1.0  0.78885  0.17119  0.09144  1.0000
  C   C939      1.0  0.77506  0.16848  0.05832  1.0000
  C   C940      1.0  0.79222  0.16994  0.02822  1.0000
  C   C941      1.0  0.82361  0.17443  0.03176  1.0000
  C   C942      1.0  0.83761  0.17773  0.06487  1.0000
  H   H922      1.0  0.77522  0.16993  0.11418  1.0000
  H   H923      1.0  0.98066  0.02045  0.07092  1.0000
  H   H924      1.0  0.83713  0.17533  0.00906  1.0000
  H   H925      1.0  0.86196  0.18136  0.06716  1.0000
  C   C943      1.0  0.91528  0.16871  0.34320  1.0000
  C   C944      1.0  0.94200  0.16325  0.34597  1.0000
  S   S311      1.0  0.90432  0.99907  0.26835  1.0000
  N   N81       1.0  0.93225  0.23848  0.39908  1.0000
  C   C945      1.0  0.91877  0.19562  0.32300  1.0000
  H   H926      1.0  0.93975  0.14244  0.36119  1.0000
  H   H927      1.0  0.89851  0.20012  0.32024  1.0000
  H   H928      1.0  0.89979  0.27959  0.33857  1.0000
  H   H929      1.0  0.75042  0.45385  0.45150  1.0000
  N   N82       1.0  0.93176  0.07561  0.45668  1.0000
  C   C946      1.0  0.94900  0.21757  0.30736  1.0000
  Fe  Fe156     1.0  0.97262  0.02640  0.36471  1.0000
  C   C947      1.0  0.78749  0.40322  0.33635  1.0000
  C   C948      1.0  0.79192  0.41475  0.37085  1.0000
  C   C949      1.0  0.76455  0.40517  0.39225  1.0000
  C   C950      1.0  0.78990  0.40060  0.22040  1.0000
  H   H930      1.0  0.96179  0.45455  0.20385  1.0000
  C   C951      1.0  0.75513  0.38150  0.32407  1.0000
  H   H931      1.0  0.81645  0.43121  0.38107  1.0000
  H   H932      1.0  0.76857  0.41429  0.41879  1.0000
  Fe  Fe157     1.0  0.97527  0.45930  0.37942  1.0000
  H   H933      1.0  0.75096  0.37163  0.29782  1.0000
  C   C952      1.0  0.80992  0.27663  0.34510  1.0000
  C   C953      1.0  0.92069  0.33240  0.35776  1.0000
  H   H934      1.0  0.92864  0.08394  0.40334  1.0000
  H   H935      1.0  0.79984  0.25025  0.33591  1.0000
  H   H936      1.0  0.78750  0.38995  0.24560  1.0000
  H   H937      1.0  0.97470  0.46192  0.07765  1.0000
  H   H938      1.0  0.77593  0.03187  0.32617  1.0000
  H   H939      1.0  0.88834  0.25320  0.17099  1.0000
  S   S312      1.0  0.74130  0.37450  0.99932  1.0000
  H   H940      1.0  0.94650  0.28234  0.36855  1.0000
  C   C954      1.0  0.97194  0.18479  0.32978  1.0000
  H   H941      1.0  0.93984  0.20236  0.22476  1.0000
  S   S313      1.0  0.73518  0.09779  0.39575  1.0000
  C   C955      1.0  0.91241  0.36249  0.17705  1.0000
  C   C956      1.0  0.84590  0.32372  0.38350  1.0000
  Fe  Fe158     1.0  0.91916  0.47180  0.23347  1.0000
  H   H942      1.0  0.93735  0.34684  0.25296  1.0000
  C   C957      1.0  0.96306  0.17370  0.23854  1.0000
  H   H943      1.0  0.94465  0.15927  0.25739  1.0000
  H   H944      1.0  0.86366  0.33357  0.40458  1.0000
  S   S314      1.0  0.75742  0.31565  0.02865  1.0000
  H   H945      1.0  0.83811  0.27227  0.38603  1.0000
  C   C958      1.0  0.83035  0.01291  0.26683  1.0000
  C   C959      1.0  0.82052  0.99739  0.29868  1.0000
  C   C960      1.0  0.90536  0.41014  0.98075  1.0000
  H   H946      1.0  0.84078  0.41500  0.21633  1.0000
  H   H947      1.0  0.79737  0.43437  0.12884  1.0000
  S   S315      1.0  0.94711  0.39959  0.38367  1.0000
  C   C961      1.0  0.82288  0.42701  0.17088  1.0000
  C   C962      1.0  0.92786  0.36904  0.20925  1.0000
  Fe  Fe159     1.0  0.94348  0.44438  0.29052  1.0000
  C   C963      1.0  0.81996  0.41440  0.20385  1.0000
  H   H948      1.0  0.90736  0.28775  0.22792  1.0000
  H   H949      1.0  0.88307  0.09512  0.41020  1.0000
  N   N83       1.0  0.89368  0.30235  0.18180  1.0000
  C   C964      1.0  0.89509  0.32871  0.16372  1.0000
  C   C965      1.0  0.90901  0.30868  0.21325  1.0000
  H   H950      1.0  0.81126  0.30919  0.99158  1.0000
  C   C966      1.0  0.79092  0.02613  0.30946  1.0000
  C   C967      1.0  0.92612  0.34203  0.22751  1.0000
  C   C968      1.0  0.87438  0.26682  0.16851  1.0000
  H   H951      1.0  0.88271  0.32374  0.13893  1.0000
  H   H952      1.0  0.79313  0.06049  0.27040  1.0000
  Fe  Fe160     1.0  0.95127  0.01653  0.30056  1.0000
  S   S316      1.0  0.77369  0.16739  0.98715  1.0000
  H   H953      1.0  0.78546  0.28906  0.30618  1.0000
  H   H954      1.0  0.86764  0.26520  0.14082  1.0000
  H   H955      1.0  0.89711  0.25472  0.40367  1.0000
  C   C969      1.0  0.87053  0.39365  0.98093  1.0000
  C   C970      1.0  0.80022  0.04206  0.27778  1.0000
  C   C971      1.0  0.91912  0.08321  0.42879  1.0000
  H   H956      1.0  0.82845  0.48043  0.30116  1.0000
  H   H957      1.0  0.94403  0.07056  0.28693  1.0000
  C   C972      1.0  0.83160  0.25591  0.97678  1.0000
  C   C973      1.0  0.79584  0.42579  0.15496  1.0000
  C   C974      1.0  0.95793  0.06760  0.45188  1.0000
  S   S317      1.0  0.92728  0.03564  0.35535  1.0000
  H   H958      1.0  0.93175  0.47006  0.10493  1.0000
  H   H959      1.0  0.95157  0.23882  0.29270  1.0000
  C   C975      1.0  0.94450  0.46395  0.15642  1.0000
  H   H960      1.0  0.85772  0.38734  0.00505  1.0000
  C   C976      1.0  0.95381  0.26563  0.38015  1.0000
  C   C977      1.0  0.83162  0.28911  0.37318  1.0000
  S   S318      1.0  0.92156  0.46412  0.33105  1.0000
  N   N84       1.0  0.83872  0.34523  0.36621  1.0000
  C   C978      1.0  0.81659  0.33289  0.33935  1.0000
  C   C979      1.0  0.80211  0.29853  0.32820  1.0000
  C   C980      1.0  0.85410  0.38150  0.37706  1.0000
  H   H961      1.0  0.81057  0.34978  0.32592  1.0000
  S   S319      1.0  0.73491  0.36352  0.10063  1.0000
  H   H962      1.0  0.83807  0.38531  0.39521  1.0000
  H   H963      1.0  0.87851  0.39076  0.38942  1.0000
  H   H964      1.0  0.85850  0.39784  0.35451  1.0000
  C   C981      1.0  0.82000  0.03531  0.25635  1.0000
  H   H965      1.0  0.82858  0.04878  0.23246  1.0000
  H   H966      1.0  0.95343  0.05168  0.42796  1.0000
  H   H967      1.0  0.91366  0.38347  0.16273  1.0000
  H   H968      1.0  0.84686  0.00864  0.25103  1.0000
  H   H969      1.0  0.77071  0.46153  0.34436  1.0000
  H   H970      1.0  0.74537  0.41108  0.15962  1.0000
  S   S320      1.0  0.97224  0.41463  0.28792  1.0000
  N   N85       1.0  0.76374  0.40025  0.20496  1.0000
  H   H971      1.0  0.92379  0.19425  0.42606  1.0000
  H   H972      1.0  0.84592  0.43728  0.15753  1.0000
  H   H973      1.0  0.84410  0.14817  0.45185  1.0000
  H   H974      1.0  0.91912  0.41645  0.00474  1.0000
  C   C982      1.0  0.89335  0.08969  0.43253  1.0000
  C   C983      1.0  0.94133  0.21674  0.41259  1.0000
  Fe  Fe161     1.0  0.76347  0.34325  0.97967  1.0000
  H   H975      1.0  0.88688  0.21610  0.42561  1.0000
  H   H976      1.0  0.97743  0.09114  0.38145  1.0000
  S   S321      1.0  0.91475  0.47093  0.17584  1.0000
  H   H977      1.0  0.94095  0.39494  0.22028  1.0000
  C   C984      1.0  0.97263  0.22181  0.40709  1.0000
  H   H978      1.0  0.98194  0.09156  0.45001  1.0000
  H   H979      1.0  0.95924  0.05249  0.47336  1.0000
  C   C985      1.0  0.97608  0.21278  0.31123  1.0000
  C   C986      1.0  0.96033  0.19840  0.22022  1.0000
  H   H980      1.0  0.88383  0.21496  0.37938  1.0000
  S   S322      1.0  0.97020  0.99427  0.25968  1.0000
  H   H981      1.0  0.75083  0.16516  0.05607  1.0000
  H   H982      1.0  0.74710  0.22618  0.29447  1.0000
  H   H983      1.0  0.97579  0.11688  0.24017  1.0000
  H   H984      1.0  0.97787  0.35404  0.29640  1.0000
  C   C987      1.0  0.94796  0.46546  0.12066  1.0000
  H   H985      1.0  0.73642  0.39479  0.25024  1.0000
  C   C988      1.0  0.88095  0.08906  0.46513  1.0000
  H   H986      1.0  0.86057  0.09343  0.46819  1.0000
  C   C989      1.0  0.97259  0.46131  0.10521  1.0000
  H   H987      1.0  0.91038  0.47545  0.99941  1.0000
  H   H988      1.0  0.85998  0.23056  0.97576  1.0000
  H   H989      1.0  0.81252  0.48590  0.36078  1.0000
  H   H990      1.0  0.74305  0.48696  0.43725  1.0000
  C   C990      1.0  0.84781  0.15001  0.47944  1.0000
  C   C991      1.0  0.79957  0.12643  0.68634  1.0000
  H   H991      1.0  0.77659  0.09092  0.61588  1.0000
  C   C992      1.0  0.74678  0.42004  0.90195  1.0000
  N   N86       1.0  0.82572  0.27942  0.96172  1.0000
  C   C993      1.0  0.95653  0.21541  0.83779  1.0000
  Fe  Fe162     1.0  0.88619  0.16856  0.66837  1.0000
  S   S323      1.0  0.91256  0.20934  0.62922  1.0000
  S   S324      1.0  0.83892  0.16386  0.68888  1.0000
  Fe  Fe163     1.0  0.93979  0.14894  0.66963  1.0000
  H   H992      1.0  0.81666  0.09037  0.68435  1.0000
  H   H993      1.0  0.78322  0.06307  0.56308  1.0000
  Fe  Fe164     1.0  0.95820  0.22455  0.65988  1.0000
  C   C994      1.0  0.85640  0.21798  0.75809  1.0000
  Fe  Fe165     1.0  0.92185  0.17030  0.60332  1.0000
  S   S325      1.0  0.91983  0.16425  0.54562  1.0000
  S   S326      1.0  0.93175  0.18664  0.70139  1.0000
  S   S327      1.0  0.89214  0.12821  0.63970  1.0000
  C   C995      1.0  0.86922  0.29304  0.92209  1.0000
  Fe  Fe166     1.0  0.78391  0.16382  0.92966  1.0000
  S   S328      1.0  0.81787  0.14918  0.90340  1.0000
  Fe  Fe167     1.0  0.75786  0.17500  0.86081  1.0000
  S   S329      1.0  0.79067  0.16174  0.83011  1.0000
  H   H994      1.0  0.92434  0.21343  0.77009  1.0000
  Fe  Fe168     1.0  0.77547  0.11776  0.86589  1.0000
  H   H995      1.0  0.77460  0.15528  0.68918  1.0000
  Fe  Fe169     1.0  0.83077  0.19366  0.86904  1.0000
  S   S330      1.0  0.88216  0.23641  0.85329  1.0000
  C   C996      1.0  0.73580  0.06787  0.68463  1.0000
  S   S331      1.0  0.79876  0.21013  0.89727  1.0000
  C   C997      1.0  0.90897  0.22382  0.76305  1.0000
  C   C998      1.0  0.77165  0.12991  0.68750  1.0000
  C   C999      1.0  0.97786  0.27511  0.82591  1.0000
  H   H996      1.0  0.75974  0.36984  0.90362  1.0000
  C   C1000     1.0  0.92090  0.23974  0.84479  1.0000
  C   C1001     1.0  0.86080  0.16922  0.77772  1.0000
  C   C1002     1.0  0.92588  0.21172  0.84640  1.0000
  H   H997      1.0  0.83005  0.20258  0.76021  1.0000
  H   H998      1.0  0.90611  0.18715  0.85420  1.0000
  H   H999      1.0  0.87530  0.15709  0.76990  1.0000
  C   C1003     1.0  0.76118  0.08640  0.59340  1.0000
  H   H1000     1.0  0.95990  0.19347  0.83924  1.0000
  H   H1001     1.0  0.91537  0.29788  0.73588  1.0000
  C   C1004     1.0  0.94725  0.27146  0.83468  1.0000
  C   C1005     1.0  0.88287  0.15858  0.52895  1.0000
  H   H1002     1.0  0.74368  0.24782  0.87152  1.0000
  S   S332      1.0  0.74067  0.12919  0.89450  1.0000
  C   C1006     1.0  0.82233  0.14469  0.50133  1.0000
  C   C1007     1.0  0.82762  0.14769  0.53702  1.0000
  C   C1008     1.0  0.85773  0.15421  0.55086  1.0000
  H   H1003     1.0  0.89350  0.26369  0.92633  1.0000
  C   C1009     1.0  0.87814  0.15733  0.49329  1.0000
  H   H1004     1.0  0.80830  0.14450  0.55400  1.0000
  H   H1005     1.0  0.86129  0.15545  0.57847  1.0000
  H   H1006     1.0  0.75239  0.46990  0.91371  1.0000
  C   C1010     1.0  0.76485  0.07069  0.56376  1.0000
  N   N87       1.0  0.87570  0.20432  0.76544  1.0000
  S   S333      1.0  0.95338  0.11224  0.69452  1.0000
  H   H1007     1.0  0.73493  0.10903  0.61664  1.0000
  H   H1008     1.0  0.94386  0.29339  0.83322  1.0000
  H   H1009     1.0  0.88363  0.30746  0.90046  1.0000
  S   S334      1.0  0.96952  0.18794  0.63096  1.0000
  H   H1010     1.0  0.83585  0.15276  0.76635  1.0000
  C   C1011     1.0  0.87031  0.25173  0.74716  1.0000
  C   C1012     1.0  0.87489  0.26855  0.93675  1.0000
  H   H1011     1.0  0.95016  0.27293  0.75038  1.0000
  C   C1013     1.0  0.76370  0.06437  0.68427  1.0000
  C   C1014     1.0  0.73496  0.99892  0.81763  1.0000
  H   H1012     1.0  0.88671  0.08438  0.51941  1.0000
  H   H1013     1.0  0.93162  0.07181  0.51132  1.0000
  H   H1014     1.0  0.77266  0.42909  0.90546  1.0000
  C   C1015     1.0  0.89524  0.08333  0.49375  1.0000
  S   S335      1.0  0.96566  0.44034  0.94554  1.0000
  S   S336      1.0  0.80893  0.36462  0.94620  1.0000
  H   H1015     1.0  0.95913  0.30270  0.69184  1.0000
  C   C1016     1.0  0.73798  0.09679  0.59376  1.0000
  C   C1017     1.0  0.92079  0.07654  0.48901  1.0000
  C   C1018     1.0  0.92215  0.41841  0.94937  1.0000
  C   C1019     1.0  0.86962  0.39371  0.91885  1.0000
  C   C1020     1.0  0.90383  0.40989  0.91868  1.0000
  C   C1021     1.0  0.74537  0.06590  0.53465  1.0000
  C   C1022     1.0  0.79543  0.09347  0.68467  1.0000
  H   H1016     1.0  0.85626  0.38757  0.89458  1.0000
  H   H1017     1.0  0.91626  0.41601  0.89430  1.0000
  H   H1018     1.0  0.85487  0.26232  0.74109  1.0000
  H   H1019     1.0  0.85922  0.16957  0.80622  1.0000
  S   S337      1.0  0.76594  0.06655  0.84100  1.0000
  H   H1020     1.0  0.96597  0.06020  0.71816  1.0000
  C   C1023     1.0  0.90421  0.27161  0.74416  1.0000
  H   H1021     1.0  0.76079  0.03900  0.68353  1.0000
  C   C1024     1.0  0.92372  0.25761  0.75211  1.0000
  C   C1025     1.0  0.84450  0.29832  0.93511  1.0000
  H   H1022     1.0  0.75876  0.00543  0.80791  1.0000
  C   C1026     1.0  0.85252  0.38547  0.94972  1.0000
  H   H1023     1.0  0.74346  0.36208  0.85986  1.0000
  H   H1024     1.0  0.74802  0.09719  0.78365  1.0000
  C   C1027     1.0  0.73551  0.44319  0.90666  1.0000
  H   H1025     1.0  0.74893  0.05451  0.51137  1.0000
  H   H1026     1.0  0.96948  0.36182  0.70476  1.0000
  S   S338      1.0  0.78345  0.13273  0.48438  1.0000
  C   C1028     1.0  0.73993  0.10082  0.68628  1.0000
  H   H1027     1.0  0.78659  0.28903  0.95335  1.0000
  C   C1029     1.0  0.85609  0.24995  0.96439  1.0000
  H   H1028     1.0  0.84016  0.31737  0.92359  1.0000
  H   H1029     1.0  0.89766  0.16105  0.47636  1.0000
  C   C1030     1.0  0.73765  0.36264  0.88746  1.0000
  C   C1031     1.0  0.98191  0.32475  0.68466  1.0000
  H   H1030     1.0  0.98063  0.13760  0.76472  1.0000
  C   C1032     1.0  0.80006  0.28553  0.97491  1.0000
  C   C1033     1.0  0.91755  0.58275  0.43332  1.0000
  S   S339      1.0  0.89891  0.92342  0.25616  1.0000
  C   C1034     1.0  0.82627  0.92773  0.17951  1.0000
  Fe  Fe170     1.0  0.88021  0.94785  0.29465  1.0000
  S   S340      1.0  0.82369  0.91680  0.30454  1.0000
  S   S341      1.0  0.90026  0.49682  0.26953  1.0000
  H   H1031     1.0  0.84332  0.87379  0.99273  1.0000
  Fe  Fe171     1.0  0.77800  0.61422  0.43477  1.0000
  S   S342      1.0  0.80886  0.65872  0.40192  1.0000
  Fe  Fe172     1.0  0.75210  0.56139  0.37525  1.0000
  S   S343      1.0  0.78200  0.60182  0.33710  1.0000
  S   S344      1.0  0.75797  0.67739  0.34106  1.0000
  Fe  Fe173     1.0  0.82429  0.62435  0.37600  1.0000
  S   S345      1.0  0.87947  0.64289  0.37793  1.0000
  Fe  Fe174     1.0  0.76554  0.63554  0.36521  1.0000
  H   H1032     1.0  0.79397  0.92157  0.10088  1.0000
  S   S346      1.0  0.79535  0.58065  0.41157  1.0000
  H   H1033     1.0  0.96531  0.80203  0.35056  1.0000
  Fe  Fe175     1.0  0.77778  0.64358  0.25264  1.0000
  S   S347      1.0  0.79928  0.69193  0.22175  1.0000
  H   H1034     1.0  0.82722  0.55031  0.22918  1.0000
  Fe  Fe176     1.0  0.84518  0.64838  0.26099  1.0000
  S   S348      1.0  0.87075  0.69760  0.23157  1.0000
  S   S349      1.0  0.87311  0.61928  0.27171  1.0000
  Fe  Fe177     1.0  0.84079  0.71534  0.26123  1.0000
  S   S350      1.0  0.85743  0.77210  0.27529  1.0000
  Fe  Fe178     1.0  0.82834  0.67240  0.19366  1.0000
  S   S351      1.0  0.84423  0.67798  0.13719  1.0000
  S   S352      1.0  0.81808  0.66833  0.29363  1.0000
  S   S353      1.0  0.80448  0.62259  0.22139  1.0000
  C   C1035     1.0  0.76352  0.91105  0.19805  1.0000
  H   H1035     1.0  0.97292  0.61001  0.24363  1.0000
  C   C1036     1.0  0.88532  0.59391  0.29604  1.0000
  C   C1037     1.0  0.90904  0.58750  0.28218  1.0000
  C   C1038     1.0  0.92187  0.57038  0.30078  1.0000
  C   C1039     1.0  0.91016  0.55714  0.33333  1.0000
  C   C1040     1.0  0.88406  0.56081  0.34589  1.0000
  C   C1041     1.0  0.87204  0.57932  0.32772  1.0000
  H   H1036     1.0  0.91746  0.59557  0.25651  1.0000
  H   H1037     1.0  0.87316  0.54952  0.36998  1.0000
  H   H1038     1.0  0.85255  0.58234  0.33827  1.0000
  C   C1042     1.0  0.88409  0.80745  0.30359  1.0000
  C   C1043     1.0  0.88584  0.83924  0.29966  1.0000
  C   C1044     1.0  0.90547  0.86769  0.32194  1.0000
  C   C1045     1.0  0.92402  0.86515  0.34858  1.0000
  C   C1046     1.0  0.90252  0.80465  0.33026  1.0000
  H   H1039     1.0  0.87173  0.84197  0.27933  1.0000
  H   H1040     1.0  0.90601  0.89161  0.31878  1.0000
  N   N88       1.0  0.80283  0.91965  0.15458  1.0000
  H   H1041     1.0  0.97480  0.71392  0.44973  1.0000
  C   C1047     1.0  0.82656  0.67817  0.09653  1.0000
  C   C1048     1.0  0.84239  0.67722  0.06621  1.0000
  C   C1049     1.0  0.83004  0.67822  0.03336  1.0000
  C   C1050     1.0  0.80182  0.68066  0.03034  1.0000
  C   C1051     1.0  0.78600  0.68172  0.06064  1.0000
  C   C1052     1.0  0.79813  0.68029  0.09350  1.0000
  H   H1042     1.0  0.86440  0.67565  0.06813  1.0000
  H   H1043     1.0  0.84259  0.67746  0.01044  1.0000
  H   H1044     1.0  0.76420  0.68370  0.05873  1.0000
  H   H1045     1.0  0.78567  0.68114  0.11646  1.0000
  C   C1053     1.0  0.91252  0.66501  0.34897  1.0000
  C   C1054     1.0  0.93912  0.65927  0.35049  1.0000
  N   N89       1.0  0.96385  0.72978  0.40319  1.0000
  C   C1055     1.0  0.94366  0.71076  0.30895  1.0000
  C   C1056     1.0  0.91479  0.69061  0.32757  1.0000
  H   H1046     1.0  0.93768  0.63932  0.36652  1.0000
  H   H1047     1.0  0.89464  0.69542  0.32597  1.0000
  H   H1048     1.0  0.90140  0.78040  0.33362  1.0000
  H   H1049     1.0  0.96060  0.94779  0.07179  1.0000
  C   C1057     1.0  0.81083  0.91835  0.11837  1.0000
  H   H1050     1.0  0.75296  0.73349  0.98359  1.0000
  S   S354      1.0  0.97454  0.91442  0.28564  1.0000
  C   C1058     1.0  0.78954  0.90329  0.33324  1.0000
  C   C1059     1.0  0.79349  0.91249  0.36842  1.0000
  C   C1060     1.0  0.76583  0.90140  0.38979  1.0000
  C   C1061     1.0  0.88123  0.58888  0.47233  1.0000
  H   H1051     1.0  0.87795  0.59024  0.41716  1.0000
  C   C1062     1.0  0.75728  0.88247  0.32021  1.0000
  H   H1052     1.0  0.81787  0.92833  0.37925  1.0000
  H   H1053     1.0  0.76951  0.90892  0.41682  1.0000
  Fe  Fe179     1.0  0.94739  0.51559  0.30203  1.0000
  H   H1054     1.0  0.75337  0.87467  0.29328  1.0000
  Fe  Fe180     1.0  0.94593  0.94455  0.28781  1.0000
  H   H1055     1.0  0.88958  0.81851  0.13611  1.0000
  C   C1063     1.0  0.92964  0.86542  0.20794  1.0000
  N   N90       1.0  0.93377  0.57891  0.46048  1.0000
  H   H1056     1.0  0.95638  0.55673  0.43029  1.0000
  H   H1057     1.0  0.75288  0.90384  0.14369  1.0000
  H   H1058     1.0  0.85072  0.93369  0.17256  1.0000
  S   S355      1.0  0.92440  0.96447  0.32860  1.0000
  H   H1059     1.0  0.80614  0.84662  0.31714  1.0000
  H   H1060     1.0  0.93816  0.84473  0.25348  1.0000
  N   N91       1.0  0.89911  0.79850  0.18108  1.0000
  C   C1064     1.0  0.97526  0.54817  0.03358  1.0000
  Fe  Fe181     1.0  0.97567  0.95960  0.37719  1.0000
  H   H1061     1.0  0.93572  0.83064  0.37362  1.0000
  H   H1062     1.0  0.80988  0.75786  0.99384  1.0000
  C   C1065     1.0  0.88167  0.76286  0.16787  1.0000
  H   H1063     1.0  0.90459  0.90150  0.99279  1.0000
  S   S356      1.0  0.91908  0.97684  0.17428  1.0000
  H   H1064     1.0  0.76846  0.96021  0.34715  1.0000
  H   H1065     1.0  0.80838  0.89300  0.11197  1.0000
  Fe  Fe182     1.0  0.97105  0.52511  0.36452  1.0000
  H   H1066     1.0  0.91080  0.78525  0.22926  1.0000
  C   C1066     1.0  0.96104  0.57292  0.45407  1.0000
  H   H1067     1.0  0.83619  0.93901  0.11303  1.0000
  C   C1067     1.0  0.96115  0.94927  0.09951  1.0000
  H   H1068     1.0  0.92490  0.58182  0.40717  1.0000
  H   H1069     1.0  0.84555  0.88970  0.35983  1.0000
  H   H1070     1.0  0.79437  0.56333  0.26980  1.0000
  S   S357      1.0  0.94709  0.89970  0.37939  1.0000
  H   H1071     1.0  0.78150  0.91996  0.25052  1.0000
  H   H1072     1.0  0.98044  0.63693  0.28171  1.0000
  H   H1073     1.0  0.89613  0.75013  0.17272  1.0000
  C   C1068     1.0  0.81929  0.53677  0.25310  1.0000
  C   C1069     1.0  0.94443  0.51857  0.03167  1.0000
  C   C1070     1.0  0.95904  0.69102  0.21689  1.0000
  H   H1074     1.0  0.84105  0.64549  0.46218  1.0000
  C   C1071     1.0  0.82911  0.51353  0.26211  1.0000
  C   C1072     1.0  0.96135  0.66719  0.23717  1.0000
  H   H1075     1.0  0.80971  0.98422  0.36492  1.0000
  H   H1076     1.0  0.85775  0.74829  0.18076  1.0000
  H   H1077     1.0  0.83781  0.93476  0.23391  1.0000
  C   C1073     1.0  0.77168  0.91104  0.16343  1.0000
  H   H1078     1.0  0.96016  0.95124  0.19922  1.0000
  C   C1074     1.0  0.90048  0.82412  0.16175  1.0000
  S   S358      1.0  0.74877  0.80104  0.01518  1.0000
  N   N92       1.0  0.82719  0.79598  0.35993  1.0000
  C   C1075     1.0  0.84831  0.81936  0.38406  1.0000
  C   C1076     1.0  0.81173  0.80532  0.33645  1.0000
  C   C1077     1.0  0.85508  0.85334  0.38451  1.0000
  H   H1079     1.0  0.74996  0.72786  0.30580  1.0000
  H   H1080     1.0  0.92847  0.51116  0.05369  1.0000
  C   C1078     1.0  0.82014  0.76041  0.36005  1.0000
  H   H1081     1.0  0.86095  0.81216  0.40237  1.0000
  S   S359      1.0  0.73322  0.86366  0.99861  1.0000
  H   H1082     1.0  0.87315  0.87229  0.40248  1.0000
  C   C1079     1.0  0.98030  0.94077  0.15405  1.0000
  C   C1080     1.0  0.96499  0.78201  0.36570  1.0000
  H   H1083     1.0  0.84190  0.75903  0.36832  1.0000
  H   H1084     1.0  0.79951  0.74502  0.37735  1.0000
  H   H1085     1.0  0.87696  0.76091  0.13962  1.0000
  C   C1081     1.0  0.98141  0.94092  0.11806  1.0000
  H   H1086     1.0  0.77879  0.53460  0.32558  1.0000
  C   C1082     1.0  0.93818  0.76152  0.38605  1.0000
  H   H1087     1.0  0.91680  0.71898  0.41990  1.0000
  H   H1088     1.0  0.74545  0.70598  0.22505  1.0000
  S   S360      1.0  0.95402  0.98686  0.40639  1.0000
  C   C1083     1.0  0.96025  0.95063  0.17144  1.0000
  N   N93       1.0  0.80215  0.50537  0.31626  1.0000
  H   H1089     1.0  0.93970  0.56612  0.28842  1.0000
  S   S361      1.0  0.78582  0.68348  0.98962  1.0000
  C   C1084     1.0  0.80092  0.54421  0.27599  1.0000
  H   H1090     1.0  0.91744  0.76547  0.38700  1.0000
  H   H1091     1.0  0.91690  0.87821  0.15945  1.0000
  Fe  Fe183     1.0  0.92292  0.97433  0.23161  1.0000
  H   H1092     1.0  0.94133  0.89142  0.21871  1.0000
  C   C1085     1.0  0.81781  0.83903  0.33628  1.0000
  C   C1086     1.0  0.92198  0.83316  0.35279  1.0000
  H   H1093     1.0  0.79527  0.78690  0.31714  1.0000
  C   C1087     1.0  0.89093  0.58752  0.43881  1.0000
  H   H1094     1.0  0.94527  0.73085  0.29304  1.0000
  H   H1095     1.0  0.93883  0.69566  0.22038  1.0000
  H   H1096     1.0  0.81337  0.74820  0.33379  1.0000
  C   C1088     1.0  0.79262  0.52827  0.30769  1.0000
  S   S362      1.0  0.92525  0.53412  0.35835  1.0000
  H   H1097     1.0  0.94300  0.65426  0.25649  1.0000
  C   C1089     1.0  0.92808  0.83917  0.22743  1.0000
  C   C1090     1.0  0.94125  0.95934  0.11688  1.0000
  H   H1098     1.0  0.97265  0.59345  0.38104  1.0000
  H   H1099     1.0  0.78492  0.50170  0.36772  1.0000
  C   C1091     1.0  0.96780  0.67926  0.33173  1.0000
  C   C1092     1.0  0.78749  0.91993  0.22358  1.0000
  H   H1100     1.0  0.86681  0.80093  0.97957  1.0000
  C   C1093     1.0  0.73353  0.88097  0.37667  1.0000
  C   C1094     1.0  0.94129  0.96069  0.15287  1.0000
  H   H1101     1.0  0.92616  0.96650  0.10238  1.0000
  C   C1095     1.0  0.97067  0.70572  0.31151  1.0000
  C   C1096     1.0  0.91584  0.85796  0.17483  1.0000
  C   C1097     1.0  0.93803  0.73536  0.40476  1.0000
  C   C1098     1.0  0.91262  0.80565  0.21355  1.0000
  C   C1099     1.0  0.83978  0.86319  0.36037  1.0000
  C   C1100     1.0  0.96378  0.70309  0.42395  1.0000
  C   C1101     1.0  0.81907  0.92829  0.21430  1.0000
  S   S363      1.0  0.73310  0.59346  0.40089  1.0000
  C   C1102     1.0  0.82016  0.49788  0.29396  1.0000
  H   H1102     1.0  0.82947  0.98091  0.30719  1.0000
  C   C1103     1.0  0.78985  0.98637  0.35206  1.0000
  H   H1103     1.0  0.84443  0.50854  0.24507  1.0000
  S   S364      1.0  0.95518  0.48829  0.40849  1.0000
  C   C1104     1.0  0.79208  0.48776  0.34894  1.0000
  S   S365      1.0  0.73701  0.84683  0.09716  1.0000
  C   C1105     1.0  0.93432  0.49848  0.00133  1.0000
  H   H1104     1.0  0.97807  0.69264  0.41132  1.0000
  H   H1105     1.0  0.73870  0.90386  0.20507  1.0000
  S   S366      1.0  0.96670  0.49357  0.26146  1.0000
  H   H1106     1.0  0.98219  0.72843  0.17782  1.0000
  H   H1107     1.0  0.93849  0.68112  0.42673  1.0000
  H   H1108     1.0  0.81912  0.72323  0.78429  1.0000
  C   C1106     1.0  0.90425  0.62524  0.77795  1.0000
  C   C1107     1.0  0.73503  0.57426  0.65878  1.0000
  H   H1109     1.0  0.90292  0.64227  0.83000  1.0000
  H   H1110     1.0  0.73991  0.58765  0.57715  1.0000
  C   C1108     1.0  0.91567  0.76612  0.76836  1.0000
  Fe  Fe184     1.0  0.88297  0.66865  0.67937  1.0000
  S   S367      1.0  0.90168  0.70500  0.63596  1.0000
  S   S368      1.0  0.83492  0.65545  0.70487  1.0000
  Fe  Fe185     1.0  0.94482  0.66324  0.68235  1.0000
  S   S369      1.0  0.96685  0.63685  0.71268  1.0000
  H   H1111     1.0  0.73836  0.74593  0.94738  1.0000
  Fe  Fe186     1.0  0.95012  0.73197  0.66439  1.0000
  H   H1112     1.0  0.89239  0.58931  0.52622  1.0000
  Fe  Fe187     1.0  0.91852  0.67045  0.61391  1.0000
  S   S370      1.0  0.91564  0.65991  0.55679  1.0000
  S   S371      1.0  0.93017  0.69808  0.71008  1.0000
  S   S372      1.0  0.89602  0.63150  0.65504  1.0000
  H   H1113     1.0  0.84897  0.73046  0.69692  1.0000
  Fe  Fe188     1.0  0.79909  0.67636  0.93439  1.0000
  S   S373      1.0  0.82407  0.64871  0.91322  1.0000
  Fe  Fe189     1.0  0.78136  0.68979  0.86328  1.0000
  S   S374      1.0  0.80464  0.66246  0.83691  1.0000
  C   C1109     1.0  0.85327  0.60148  0.74597  1.0000
  Fe  Fe190     1.0  0.78117  0.62173  0.87611  1.0000
  C   C1110     1.0  0.85650  0.88881  0.90751  1.0000
  Fe  Fe191     1.0  0.84686  0.69046  0.87437  1.0000
  S   S375      1.0  0.89455  0.70207  0.84753  1.0000
  S   S376      1.0  0.75431  0.64657  0.89976  1.0000
  S   S377      1.0  0.82520  0.72066  0.89834  1.0000
  H   H1114     1.0  0.89537  0.66254  0.48778  1.0000
  H   H1115     1.0  0.76298  0.56204  0.62337  1.0000
  N   N94       1.0  0.85895  0.73464  0.75098  1.0000
  C   C1111     1.0  0.88254  0.74635  0.77638  1.0000
  C   C1112     1.0  0.93623  0.73510  0.84347  1.0000
  C   C1113     1.0  0.95661  0.72902  0.82160  1.0000
  C   C1114     1.0  0.94934  0.76716  0.86045  1.0000
  H   H1116     1.0  0.94673  0.70459  0.80785  1.0000
  H   H1117     1.0  0.93407  0.77239  0.87724  1.0000
  H   H1118     1.0  0.84352  0.88540  0.88343  1.0000
  H   H1119     1.0  0.87580  0.74028  0.80302  1.0000
  C   C1115     1.0  0.82442  0.71356  0.75996  1.0000
  C   C1116     1.0  0.79566  0.77946  0.91627  1.0000
  H   H1120     1.0  0.74317  0.75092  0.78019  1.0000
  C   C1117     1.0  0.87770  0.65086  0.53951  1.0000
  C   C1118     1.0  0.85049  0.63954  0.56059  1.0000
  C   C1119     1.0  0.81975  0.63003  0.54613  1.0000
  C   C1120     1.0  0.81612  0.63188  0.51057  1.0000
  C   C1121     1.0  0.73795  0.49909  0.84049  1.0000
  C   C1122     1.0  0.87430  0.65353  0.50412  1.0000
  H   H1121     1.0  0.85297  0.63740  0.58796  1.0000
  H   H1122     1.0  0.79879  0.62060  0.56252  1.0000
  H   H1123     1.0  0.93002  0.63300  0.77913  1.0000
  H   H1124     1.0  0.81837  0.68664  0.76311  1.0000
  C   C1123     1.0  0.73425  0.73220  0.83181  1.0000
  H   H1125     1.0  0.84445  0.62490  0.82620  1.0000
  H   H1126     1.0  0.83979  0.59119  0.72187  1.0000
  C   C1124     1.0  0.90043  0.76094  0.70833  1.0000
  H   H1127     1.0  0.81702  0.60664  0.64704  1.0000
  Fe  Fe192     1.0  0.75212  0.83293  0.97047  1.0000
  H   H1128     1.0  0.80794  0.71378  0.73968  1.0000
  H   H1129     1.0  0.94768  0.49197  0.95015  1.0000
  C   C1125     1.0  0.85598  0.62058  0.80402  1.0000
  S   S378      1.0  0.95171  0.92664  0.93416  1.0000
  C   C1126     1.0  0.73937  0.90551  0.87134  1.0000
  C   C1127     1.0  0.73687  0.59547  0.68659  1.0000
  C   C1128     1.0  0.90848  0.90880  0.93799  1.0000
  C   C1129     1.0  0.89895  0.58679  0.49998  1.0000
  H   H1130     1.0  0.86026  0.59198  0.47682  1.0000
  S   S379      1.0  0.97545  0.78982  0.65704  1.0000
  C   C1130     1.0  0.88620  0.61050  0.74763  1.0000
  C   C1131     1.0  0.80413  0.59724  0.77209  1.0000
  S   S380      1.0  0.96816  0.69928  0.63908  1.0000
  C   C1132     1.0  0.73536  0.52871  0.84495  1.0000
  C   C1133     1.0  0.79675  0.62472  0.68613  1.0000
  C   C1134     1.0  0.84353  0.64386  0.48961  1.0000
  H   H1131     1.0  0.83227  0.81619  0.88298  1.0000
  C   C1135     1.0  0.83894  0.87765  0.93797  1.0000
  H   H1132     1.0  0.90729  0.76616  0.68157  1.0000
  H   H1133     1.0  0.76887  0.63661  0.72202  1.0000
  C   C1136     1.0  0.89064  0.90388  0.90748  1.0000
  S   S381      1.0  0.77720  0.61839  0.49249  1.0000
  H   H1134     1.0  0.76452  0.91782  0.86296  1.0000
  C   C1137     1.0  0.92457  0.77356  0.73413  1.0000
  H   H1135     1.0  0.93436  0.77538  0.78849  1.0000
  H   H1136     1.0  0.93912  0.58029  0.51517  1.0000
  S   S382      1.0  0.79531  0.85638  0.93401  1.0000
  C   C1138     1.0  0.88908  0.63032  0.80639  1.0000
  H   H1137     1.0  0.73866  0.95310  0.87390  1.0000
  H   H1138     1.0  0.89786  0.60651  0.72543  1.0000
  H   H1139     1.0  0.87826  0.83047  0.92387  1.0000
  H   H1140     1.0  0.79158  0.58157  0.74852  1.0000
  C   C1139     1.0  0.85341  0.81128  0.93019  1.0000
  H   H1141     1.0  0.75417  0.63210  0.57010  1.0000
  H   H1142     1.0  0.79068  0.58227  0.79469  1.0000
  N   N95       1.0  0.83851  0.60627  0.77410  1.0000
  C   C1140     1.0  0.89125  0.89810  0.96900  1.0000
  C   C1141     1.0  0.79484  0.60368  0.65819  1.0000
  C   C1142     1.0  0.73710  0.85006  0.86757  1.0000
  H   H1143     1.0  0.80266  0.62100  0.77152  1.0000
  H   H1144     1.0  0.77581  0.77386  0.89843  1.0000
  S   S383      1.0  0.76903  0.56644  0.86375  1.0000
  C   C1143     1.0  0.86754  0.74112  0.71722  1.0000
  C   C1144     1.0  0.76414  0.57843  0.64479  1.0000
  H   H1145     1.0  0.90340  0.91191  0.88341  1.0000
  C   C1145     1.0  0.92542  0.58187  0.49355  1.0000
  C   C1146     1.0  0.76766  0.62046  0.70035  1.0000
  C   C1147     1.0  0.82766  0.80332  0.90724  1.0000
  H   H1146     1.0  0.95014  0.78870  0.72751  1.0000
  H   H1147     1.0  0.76388  0.86456  0.87307  1.0000
  H   H1148     1.0  0.76024  0.49988  0.84852  1.0000
  C   C1148     1.0  0.84696  0.79495  0.96158  1.0000
  H   H1149     1.0  0.73393  0.64129  0.51919  1.0000
  N   N96       1.0  0.78951  0.76379  0.94724  1.0000
  S   S384      1.0  0.76228  0.71655  0.82832  1.0000
  H   H1150     1.0  0.74957  0.71310  0.94216  1.0000
  C   C1149     1.0  0.75593  0.73778  0.95543  1.0000
  C   C1150     1.0  0.85647  0.88240  0.96897  1.0000
  C   C1151     1.0  0.81468  0.77090  0.96963  1.0000
  H   H1151     1.0  0.73251  0.84169  0.83999  1.0000
  H   H1152     1.0  0.96434  0.55894  0.47541  1.0000
  C   C1152     1.0  0.95558  0.50791  0.97354  1.0000
