data_image0
_chemical_formula_structural       FeS2FeSCFeSFeNS2FeSFeS4C3SCHSHFeHFeSHCHCH2C2HCH3C6H3CH2CS2FeHCHFeCH2SFeH2C6H5CH3C4SCH2CSFe2H2CHCSC3HCH2C3HCH2C4HCNC6H2C3H4SC2HC2FeNCSHCHCNC6H8CH3C3HSHC3HSHSH2CHCSC2S2FeCHS2NFeCHCHC3HCFeCHC2H2NHCH3NC6SHSCH2C2H2CH5FeHC2SH2C3HNHSHFeSC2SHFeCSNH2SCFeS2FeS2FeCFeS3C2HCFeSHFeS2FeSFeS4CSH2CFeSCHC6H4C6H4CHFeNC7HCH2NH2C2H2C6H4C2HNCSC2H2C6H5C2FeHCHC3H3C2HCH2CHNCH2SHSH5C2H2C2HCSHSH2FeCH2CHCH2CH2NC2H7SH6SHCHC2HC4SC3HCH3C2H2CSHSNH3SHFeCHSCSC2NHCHCHC2H3C7H4C3HC3H6SFeCSCNHCNH2C2H5C2HFeCSH3CHCHFeSH2FeHFeS2C2SCSCFeHC2H2SFeH4SCSNHCHC3SH3FeCNHCFeCHSCH2CHNH2CHFeNCFeSNFeS2HFeS2FeS2FeSFeS3FeSFeSFeSFeSCSFeSHFeSHFeSFeS3FeS2FeSFeSFeS3HFeS2FeSFeSHSHC3HC2HCH2C6H5C8H4CHCHCHC6HCHC6H4C6H4C4HC2HC6H4C2HCH2CNHCNCHSCNHSCHC4HNC6H9C2HCSCHC2H2CSHCH8CHCHSH2C2SHCH2CSHCHCH2C3HCH2CH5NC2HCHNHNCHNH2C2H3C2H2C3H3CHSHSH3C6H4CHCHCHCH2NH2C3H2C3HCH2C3HC3SC2H7C3H2FeS2FeS2FeSFeS3FeSHCHFeS2FeS2FeSHFeCFeS3FeCFeS3FeSHFeHFeSHSFeS2FeS2FeSFeS3C2HC7H5C2HC7H8CHCH2C4H2C2HSHCSCHC2HC6H4C6H4C6H5FeC2H2C2H2NC6H9NC4SCH2C3H3SCNC6H7CH2CSCHNC3H2SCFeNHC2H3CH5CHSHC2SHCHNCHCHC2HCHCHCHNHCH3C2HCNHNHC3HCHCHC3HSCHC2HC2H2CNCHFeH2CHCHS2CH5SH2CH3C4H5NCS2Fe3SCSCHC3H3FeC3HCHC2SCHSHCSCNHFeC2HCSC2H2C2H2CH5SNSHCNHFeHSCH6CHC6H3CH3SCHFeSCFe2SHCH2CHCHCHSC6H4CHSH2SCHCHNSCHCHSC2H2CHNHC6HCHCFeH3SH2CHCSCHC2SHCHC2HCH3SC2H2C2H3C2SH3C3FeCHSHFeSHFeS2FeSFeS4CFeS2C2FeS2C2HSHFeSC2HFeNSHCHSHFeS2FeS2FeSFeS3NC2H5C3HC6H4C6H4C3HCH5C6H4C6H4C6HNH3C2HNSCH2CNC4SH2C3HCH2NC2H5SHSHCHSH3CHC3H2C2HFeCFeH2C2H2NH2C3H2CHC2HC2H5CSCH2CH4C2H2C3H2CHCH2C4HS3FeSFe2SFeSCS3CSFeS2FeS2FeCFe2S2H2SCSH2C4H3C5H2FeH2C8H5C6H4NC2HC2H2C2FeCHC2HCH2C3HS2CHSCSCNC5NC2H3C2HSHFeCH2NC2HNC2H2CHCHFeH2NCFeHCHCHSH4SC2H2FeCH2SCH3C2HCHNHC3HCFeH4SH2NSHFeH4CHCHCHC4NH6SCHCSC3HC2H4CH2CHCHC2SCSCSH
_chemical_formula_sum              "Fe128 S256 C768 N64 H768"
_cell_length_a       37.202
_cell_length_b       56.4608
_cell_length_c       69.9203
_cell_angle_alpha    89.8969
_cell_angle_beta     90.0442
_cell_angle_gamma    86.7521

_space_group_name_H-M_alt    "P 1"
_space_group_IT_number       1

loop_
  _space_group_symop_operation_xyz
  'x, y, z'

loop_
  _atom_site_type_symbol
  _atom_site_label
  _atom_site_symmetry_multiplicity
  _atom_site_fract_x
  _atom_site_fract_y
  _atom_site_fract_z
  _atom_site_occupancy
  Fe  Fe1       1.0  0.09829  0.41365  0.26991  1.0000
  S   S1        1.0  0.11736  0.44755  0.25798  1.0000
  S   S2        1.0  0.11736  0.40133  0.29884  1.0000
  Fe  Fe2       1.0  0.04414  0.40748  0.23767  1.0000
  S   S3        1.0  0.05903  0.44095  0.22294  1.0000
  C   C1        1.0  0.44730  0.35143  0.10850  1.0000
  Fe  Fe3       1.0  0.11700  0.42896  0.22950  1.0000
  S   S4        1.0  0.16561  0.42280  0.20964  1.0000
  Fe  Fe4       1.0  0.05844  0.45634  0.25283  1.0000
  N   N1        1.0  0.40601  0.05610  0.06988  1.0000
  S   S5        1.0  0.10146  0.39412  0.24216  1.0000
  S   S6        1.0  0.03979  0.42388  0.26680  1.0000
  Fe  Fe5       1.0  0.33628  0.47782  0.15725  1.0000
  S   S7        1.0  0.28427  0.48761  0.17364  1.0000
  Fe  Fe6       1.0  0.37893  0.45502  0.12365  1.0000
  S   S8        1.0  0.37897  0.43367  0.09625  1.0000
  S   S9        1.0  0.36728  0.44271  0.15357  1.0000
  S   S10       1.0  0.34290  0.48821  0.12629  1.0000
  S   S11       1.0  0.26476  0.34147  0.29891  1.0000
  C   C2        1.0  0.43346  0.06201  0.05808  1.0000
  C   C3        1.0  0.51342  0.07734  0.07890  1.0000
  C   C4        1.0  0.47627  0.10022  0.35346  1.0000
  S   S12       1.0  0.33415  0.12944  0.33858  1.0000
  C   C5        1.0  0.47697  0.37097  0.34278  1.0000
  H   H1        1.0  0.02736  0.06837  0.33923  1.0000
  S   S13       1.0  0.10575  0.07970  0.24402  1.0000
  H   H2        1.0  0.47859  0.17982  0.33829  1.0000
  Fe  Fe7       1.0  0.04927  0.06940  0.23756  1.0000
  H   H3        1.0  0.49041  0.41618  0.26460  1.0000
  Fe  Fe8       1.0  0.09137  0.07216  0.27454  1.0000
  S   S14       1.0  0.10574  0.09672  0.29843  1.0000
  H   H4        1.0  0.38950  0.44413  0.28716  1.0000
  C   C6        1.0  0.42233  0.36536  0.29904  1.0000
  H   H5        1.0  0.27009  0.11324  0.30283  1.0000
  C   C7        1.0  0.40112  0.03283  0.07411  1.0000
  H   H6        1.0  0.38110  0.39704  0.13267  1.0000
  H   H7        1.0  0.44572  0.44988  0.26870  1.0000
  C   C8        1.0  0.48118  0.39043  0.07807  1.0000
  C   C9        1.0  0.40920  0.42944  0.28516  1.0000
  H   H8        1.0  0.31359  0.28338  0.33827  1.0000
  C   C10       1.0  0.47485  0.05783  0.10143  1.0000
  H   H9        1.0  0.40166  0.36659  0.31054  1.0000
  H   H10       1.0  0.46695  0.04182  0.10832  1.0000
  H   H11       1.0  0.18309  0.07083  0.24378  1.0000
  C   C11       1.0  0.21680  0.08689  0.32647  1.0000
  C   C12       1.0  0.20334  0.06849  0.31563  1.0000
  C   C13       1.0  0.16942  0.07137  0.30682  1.0000
  C   C14       1.0  0.14854  0.09257  0.30906  1.0000
  C   C15       1.0  0.16193  0.11091  0.32000  1.0000
  C   C16       1.0  0.19613  0.10819  0.32853  1.0000
  H   H12       1.0  0.21927  0.05199  0.31393  1.0000
  H   H13       1.0  0.15945  0.05713  0.29842  1.0000
  H   H14       1.0  0.14591  0.12738  0.32171  1.0000
  C   C17       1.0  0.25943  0.02224  0.19503  1.0000
  H   H15       1.0  0.45404  0.11721  0.10005  1.0000
  H   H16       1.0  0.42177  0.39865  0.15960  1.0000
  C   C18       1.0  0.20287  0.07688  0.25375  1.0000
  S   S15       1.0  0.03053  0.49149  0.26081  1.0000
  S   S16       1.0  0.06649  0.03098  0.23329  1.0000
  Fe  Fe9       1.0  0.41602  0.46243  0.16176  1.0000
  H   H17       1.0  0.45078  0.38169  0.05311  1.0000
  C   C19       1.0  0.41981  0.41926  0.08847  1.0000
  H   H18       1.0  0.06907  0.05333  0.31393  1.0000
  Fe  Fe10      1.0  0.34100  0.37425  0.35030  1.0000
  C   C20       1.0  0.42058  0.40669  0.07116  1.0000
  H   H19       1.0  0.29702  0.24688  0.32142  1.0000
  H   H20       1.0  0.39689  0.40720  0.06216  1.0000
  S   S17       1.0  0.03341  0.06549  0.26828  1.0000
  Fe  Fe11      1.0  0.12174  0.04070  0.24236  1.0000
  H   H21       1.0  0.03682  0.46288  0.33820  1.0000
  H   H22       1.0  0.40573  0.34769  0.08744  1.0000
  C   C21       1.0  0.15554  0.38171  0.29869  1.0000
  C   C22       1.0  0.17002  0.37269  0.28155  1.0000
  C   C23       1.0  0.20248  0.35874  0.28172  1.0000
  C   C24       1.0  0.22083  0.35440  0.29897  1.0000
  C   C25       1.0  0.20547  0.36255  0.31614  1.0000
  C   C26       1.0  0.17277  0.37604  0.31601  1.0000
  H   H23       1.0  0.15664  0.37674  0.26816  1.0000
  H   H24       1.0  0.21407  0.35215  0.26844  1.0000
  H   H25       1.0  0.21894  0.35872  0.32956  1.0000
  H   H26       1.0  0.16130  0.38240  0.32936  1.0000
  H   H27       1.0  0.48937  0.35388  0.34680  1.0000
  C   C27       1.0  0.24223  0.01605  0.12238  1.0000
  H   H28       1.0  0.43258  0.43230  0.32895  1.0000
  H   H29       1.0  0.41429  0.19000  0.33801  1.0000
  H   H30       1.0  0.26380  0.02865  0.12028  1.0000
  C   C28       1.0  0.19843  0.44130  0.20006  1.0000
  C   C29       1.0  0.19765  0.46574  0.20340  1.0000
  C   C30       1.0  0.22424  0.47956  0.19529  1.0000
  C   C31       1.0  0.25213  0.46914  0.18394  1.0000
  S   S18       1.0  0.17561  0.02326  0.23253  1.0000
  C   C32       1.0  0.39950  0.38370  0.12633  1.0000
  H   H31       1.0  0.17636  0.47405  0.21201  1.0000
  H   H32       1.0  0.50374  0.11516  0.07620  1.0000
  C   C33       1.0  0.26175  0.07261  0.26817  1.0000
  S   S19       1.0  0.42154  0.08155  0.12233  1.0000
  Fe  Fe12      1.0  0.30906  0.16429  0.34853  1.0000
  Fe  Fe13      1.0  0.28768  0.34593  0.32828  1.0000
  H   H33       1.0  0.42311  0.05598  0.32388  1.0000
  H   H34       1.0  0.08756  0.44625  0.31823  1.0000
  C   C34       1.0  0.45703  0.07959  0.10572  1.0000
  H   H35       1.0  0.02344  0.34799  0.18306  1.0000
  C   C35       1.0  0.45120  0.39236  0.06594  1.0000
  S   S20       1.0  0.45910  0.44082  0.17840  1.0000
  C   C36       1.0  0.20296  0.02992  0.21264  1.0000
  C   C37       1.0  0.45974  0.39180  0.28096  1.0000
  C   C38       1.0  0.22126  0.10450  0.27762  1.0000
  H   H36       1.0  0.22311  0.49849  0.19778  1.0000
  C   C39       1.0  0.42613  0.48781  0.07851  1.0000
  H   H37       1.0  0.27428  0.43637  0.17209  1.0000
  H   H38       1.0  0.44285  0.47916  0.20586  1.0000
  C   C40       1.0  0.41303  0.35599  0.10077  1.0000
  C   C41       1.0  0.21461  0.05133  0.18326  1.0000
  C   C42       1.0  0.48098  0.40390  0.09492  1.0000
  H   H39       1.0  0.24218  0.04883  0.24675  1.0000
  C   C43       1.0  0.31317  0.24547  0.33429  1.0000
  H   H40       1.0  0.50383  0.40225  0.10451  1.0000
  H   H41       1.0  0.13792  0.42294  0.33348  1.0000
  C   C44       1.0  0.40348  0.40714  0.29302  1.0000
  C   C45       1.0  0.46368  0.46718  0.21180  1.0000
  C   C46       1.0  0.44485  0.39268  0.15036  1.0000
  C   C47       1.0  0.47345  0.16437  0.32973  1.0000
  H   H42       1.0  0.22717  0.41200  0.18601  1.0000
  C   C48       1.0  0.32242  0.26615  0.34387  1.0000
  N   N2        1.0  0.42883  0.38876  0.29105  1.0000
  C   C49       1.0  0.23675  0.01766  0.21060  1.0000
  C   C50       1.0  0.19208  0.04692  0.19894  1.0000
  C   C51       1.0  0.11596  0.43005  0.34231  1.0000
  C   C52       1.0  0.49621  0.13144  0.31043  1.0000
  C   C53       1.0  0.38887  0.37215  0.10976  1.0000
  C   C54       1.0  0.47827  0.47162  0.22998  1.0000
  H   H43       1.0  0.28772  0.06296  0.26932  1.0000
  H   H44       1.0  0.37914  0.40482  0.30121  1.0000
  C   C55       1.0  0.42390  0.39796  0.34107  1.0000
  C   C56       1.0  0.50340  0.43193  0.20927  1.0000
  C   C57       1.0  0.49462  0.08472  0.34055  1.0000
  H   H45       1.0  0.45828  0.40869  0.14542  1.0000
  H   H46       1.0  0.39422  0.09155  0.07955  1.0000
  H   H47       1.0  0.46851  0.48708  0.23794  1.0000
  H   H48       1.0  0.46684  0.33971  0.10113  1.0000
  S   S21       1.0  0.49764  0.04765  0.31472  1.0000
  C   C58       1.0  0.48159  0.40998  0.32891  1.0000
  C   C59       1.0  0.50828  0.07146  0.14711  1.0000
  H   H49       1.0  0.48018  0.04930  0.04195  1.0000
  C   C60       1.0  0.46600  0.41375  0.27266  1.0000
  C   C61       1.0  0.43277  0.13732  0.31736  1.0000
  Fe  Fe14      1.0  0.33187  0.03010  0.15384  1.0000
  N   N3        1.0  0.25404  0.09233  0.27911  1.0000
  C   C62       1.0  0.03338  0.04940  0.33800  1.0000
  S   S22       1.0  0.28321  0.38170  0.34195  1.0000
  H   H50       1.0  0.16616  0.05647  0.20029  1.0000
  C   C63       1.0  0.22638  0.43087  0.18877  1.0000
  H   H51       1.0  0.42359  0.47403  0.08917  1.0000
  C   C64       1.0  0.50869  0.04567  0.19795  1.0000
  N   N4        1.0  0.23761  0.40253  0.25486  1.0000
  C   C65       1.0  0.21085  0.41897  0.25981  1.0000
  C   C66       1.0  0.26234  0.39432  0.26817  1.0000
  C   C67       1.0  0.20761  0.42707  0.27868  1.0000
  C   C68       1.0  0.26017  0.40227  0.28709  1.0000
  C   C69       1.0  0.23235  0.41852  0.29240  1.0000
  C   C70       1.0  0.23939  0.39384  0.23513  1.0000
  H   H52       1.0  0.19139  0.42547  0.24920  1.0000
  H   H53       1.0  0.28299  0.38078  0.26447  1.0000
  H   H54       1.0  0.18549  0.43937  0.28272  1.0000
  H   H55       1.0  0.27879  0.39487  0.29778  1.0000
  H   H56       1.0  0.22951  0.42398  0.30721  1.0000
  H   H57       1.0  0.25954  0.37873  0.23338  1.0000
  H   H58       1.0  0.21275  0.38761  0.23072  1.0000
  H   H59       1.0  0.24635  0.40840  0.22533  1.0000
  C   C71       1.0  0.48190  0.03228  0.18968  1.0000
  H   H60       1.0  0.47003  0.03743  0.17609  1.0000
  H   H61       1.0  0.41299  0.35350  0.28765  1.0000
  H   H62       1.0  0.29572  0.08592  0.29964  1.0000
  C   C72       1.0  0.23627  0.06457  0.25537  1.0000
  C   C73       1.0  0.05692  0.04099  0.32361  1.0000
  C   C74       1.0  0.44493  0.41514  0.33280  1.0000
  H   H63       1.0  0.20574  0.06433  0.17262  1.0000
  S   S23       1.0  0.34772  0.03551  0.12322  1.0000
  H   H64       1.0  0.40578  0.13111  0.31635  1.0000
  C   C75       1.0  0.40651  0.48720  0.06155  1.0000
  C   C76       1.0  0.06404  0.01659  0.32155  1.0000
  C   C77       1.0  0.38072  0.07469  0.07732  1.0000
  H   H65       1.0  0.16876  0.10619  0.26423  1.0000
  S   S24       1.0  0.38216  0.04569  0.16482  1.0000
  H   H66       1.0  0.45622  0.10798  0.30083  1.0000
  S   S25       1.0  0.27460  0.04432  0.16059  1.0000
  H   H67       1.0  0.38371  0.16998  0.32835  1.0000
  H   H68       1.0  0.21487  0.11997  0.28642  1.0000
  C   C78       1.0  0.44069  0.43270  0.27489  1.0000
  H   H69       1.0  0.49737  0.42313  0.32213  1.0000
  C   C79       1.0  0.28183  0.10096  0.29178  1.0000
  S   S26       1.0  0.25976  0.08277  0.33692  1.0000
  C   C80       1.0  0.45707  0.36334  0.12508  1.0000
  C   C81       1.0  0.08756  0.44337  0.33361  1.0000
  S   S27       1.0  0.11022  0.03385  0.27349  1.0000
  S   S28       1.0  0.42927  0.47235  0.13150  1.0000
  Fe  Fe15      1.0  0.39985  0.04784  0.13420  1.0000
  C   C82       1.0  0.46117  0.12416  0.30854  1.0000
  H   H70       1.0  0.42408  0.36258  0.35263  1.0000
  S   S29       1.0  0.34650  0.33971  0.33448  1.0000
  S   S30       1.0  0.30907  0.19735  0.33045  1.0000
  N   N5        1.0  0.43905  0.15742  0.32746  1.0000
  Fe  Fe16      1.0  0.05360  0.02777  0.26456  1.0000
  C   C83       1.0  0.25317  0.44464  0.18084  1.0000
  H   H71       1.0  0.43757  0.08045  0.05482  1.0000
  C   C84       1.0  0.47630  0.44732  0.20134  1.0000
  H   H72       1.0  0.30184  0.11040  0.28332  1.0000
  C   C85       1.0  0.43798  0.06853  0.33195  1.0000
  C   C86       1.0  0.24838  0.03907  0.18123  1.0000
  C   C87       1.0  0.32388  0.22303  0.34163  1.0000
  H   H73       1.0  0.51339  0.41655  0.20127  1.0000
  C   C88       1.0  0.49590  0.09919  0.08329  1.0000
  Fe  Fe17      1.0  0.39302  0.50499  0.13561  1.0000
  C   C89       1.0  0.40902  0.17088  0.33673  1.0000
  H   H74       1.0  0.22895  0.01280  0.10848  1.0000
  C   C90       1.0  0.47549  0.06867  0.32989  1.0000
  C   C91       1.0  0.45057  0.41844  0.10001  1.0000
  H   H75       1.0  0.47991  0.37728  0.27942  1.0000
  H   H76       1.0  0.45035  0.42796  0.11337  1.0000
  N   N6        1.0  0.01774  0.03394  0.35013  1.0000
  H   H77       1.0  0.50140  0.10847  0.13980  1.0000
  C   C92       1.0  0.50555  0.45629  0.23783  1.0000
  H   H78       1.0  0.44734  0.35725  0.30563  1.0000
  H   H79       1.0  0.46402  0.38196  0.15951  1.0000
  H   H80       1.0  0.36273  0.37667  0.10342  1.0000
  N   N7        1.0  0.43317  0.37913  0.13384  1.0000
  C   C93       1.0  0.45757  0.04443  0.05066  1.0000
  C   C94       1.0  0.50250  0.15160  0.32115  1.0000
  C   C95       1.0  0.46772  0.10029  0.09671  1.0000
  C   C96       1.0  0.19508  0.09686  0.26503  1.0000
  C   C97       1.0  0.49768  0.38786  0.33391  1.0000
  C   C98       1.0  0.44005  0.37588  0.34614  1.0000
  S   S31       1.0  0.37724  0.40421  0.34376  1.0000
  H   H81       1.0  0.38873  0.47289  0.05910  1.0000
  S   S32       1.0  0.38470  0.49710  0.16697  1.0000
  C   C99       1.0  0.50308  0.05673  0.08812  1.0000
  H   H82       1.0  0.20631  0.12255  0.33669  1.0000
  H   H83       1.0  0.35780  0.07779  0.06730  1.0000
  C   C100      1.0  0.47089  0.01190  0.19887  1.0000
  C   C101      1.0  0.41956  0.08443  0.34447  1.0000
  H   H84       1.0  0.37024  0.06970  0.09158  1.0000
  H   H85       1.0  0.39432  0.50469  0.03483  1.0000
  C   C102      1.0  0.05902  0.45252  0.34478  1.0000
  H   H86       1.0  0.22190  0.02483  0.13210  1.0000
  H   H87       1.0  0.39066  0.08406  0.34602  1.0000
  H   H88       1.0  0.48433  0.36055  0.13045  1.0000
  H   H89       1.0  0.37906  0.02808  0.08321  1.0000
  H   H90       1.0  0.48543  0.07200  0.15679  1.0000
  Fe  Fe18      1.0  0.28543  0.11346  0.35106  1.0000
  H   H91       1.0  0.46333  0.50722  0.09515  1.0000
  C   C103      1.0  0.44872  0.50628  0.08174  1.0000
  C   C104      1.0  0.51221  0.01919  0.22520  1.0000
  S   S33       1.0  0.42766  0.01159  0.13307  1.0000
  H   H92       1.0  0.28529  0.01262  0.19364  1.0000
  H   H93       1.0  0.40464  0.16363  0.35127  1.0000
  C   C105      1.0  0.45317  0.02069  0.05522  1.0000
  C   C106      1.0  0.42469  0.01480  0.06695  1.0000
  C   C107      1.0  0.40984  0.50518  0.04794  1.0000
  H   H94       1.0  0.15675  0.38374  0.40891  1.0000
  N   N8        1.0  0.15525  0.23382  0.47516  1.0000
  H   H95       1.0  0.30494  0.28626  0.40928  1.0000
  S   S34       1.0  0.32644  0.35808  0.37859  1.0000
  H   H96       1.0  0.08715  0.43073  0.38785  1.0000
  Fe  Fe19      1.0  0.26877  0.36235  0.36875  1.0000
  S   S35       1.0  0.21882  0.37620  0.38479  1.0000
  C   C108      1.0  0.28431  0.49387  0.65180  1.0000
  C   C109      1.0  0.08769  0.43443  0.37262  1.0000
  S   S36       1.0  0.05745  0.47933  0.64245  1.0000
  H   H97       1.0  0.07971  0.30839  0.56001  1.0000
  Fe  Fe20      1.0  0.11365  0.47664  0.63077  1.0000
  C   C110      1.0  0.09474  0.35191  0.57095  1.0000
  S   S37       1.0  0.14146  0.44806  0.61200  1.0000
  N   N9        1.0  0.18889  0.07398  0.56230  1.0000
  H   H98       1.0  0.25653  0.29066  0.41258  1.0000
  H   H99       1.0  0.15902  0.28992  0.45811  1.0000
  S   S38       1.0  0.13776  0.48261  0.65983  1.0000
  C   C111      1.0  0.25958  0.50352  0.63843  1.0000
  Fe  Fe21      1.0  0.08804  0.37153  0.51626  1.0000
  S   S39       1.0  0.41639  0.11968  0.37174  1.0000
  S   S40       1.0  0.07297  0.40019  0.53858  1.0000
  Fe  Fe22      1.0  0.12964  0.34701  0.48291  1.0000
  S   S41       1.0  0.08605  0.32220  0.47645  1.0000
  S   S42       1.0  0.18322  0.33884  0.46817  1.0000
  Fe  Fe23      1.0  0.04858  0.35452  0.48086  1.0000
  C   C112      1.0  0.26173  0.21849  0.37807  1.0000
  Fe  Fe24      1.0  0.08391  0.31737  0.50822  1.0000
  S   S43       1.0  0.08457  0.28222  0.52435  1.0000
  S   S44       1.0  0.09231  0.37994  0.48475  1.0000
  S   S45       1.0  0.12923  0.34076  0.51483  1.0000
  C   C113      1.0  0.02152  0.40875  0.42335  1.0000
  C   C114      1.0  0.20834  0.10387  0.38348  1.0000
  H   H100      1.0  0.20883  0.02623  0.53424  1.0000
  C   C115      1.0  0.14007  0.10573  0.42279  1.0000
  Fe  Fe25      1.0  0.06262  0.09321  0.48822  1.0000
  S   S46       1.0  0.11026  0.07799  0.50478  1.0000
  H   H101      1.0  0.13746  0.39243  0.37158  1.0000
  Fe  Fe26      1.0  0.08312  0.14451  0.49510  1.0000
  S   S47       1.0  0.13197  0.13286  0.51243  1.0000
  S   S48       1.0  0.07070  0.18206  0.48375  1.0000
  Fe  Fe27      1.0  0.14129  0.10522  0.48962  1.0000
  S   S49       1.0  0.19517  0.09352  0.47699  1.0000
  Fe  Fe28      1.0  0.09645  0.10636  0.52620  1.0000
  S   S50       1.0  0.09696  0.09910  0.55836  1.0000
  S   S51       1.0  0.09497  0.11814  0.47131  1.0000
  S   S52       1.0  0.04638  0.12032  0.51063  1.0000
  S   S53       1.0  0.30932  0.10771  0.38040  1.0000
  C   C116      1.0  0.34265  0.26443  0.36075  1.0000
  S   S54       1.0  0.33364  0.16240  0.37764  1.0000
  H   H102      1.0  0.16216  0.09528  0.58368  1.0000
  H   H103      1.0  0.17035  0.41108  0.36172  1.0000
  C   C117      1.0  0.02336  0.31306  0.55361  1.0000
  Fe  Fe29      1.0  0.28431  0.14418  0.38640  1.0000
  S   S55       1.0  0.24837  0.15890  0.41011  1.0000
  C   C118      1.0  0.25041  0.23909  0.36823  1.0000
  H   H104      1.0  0.15078  0.24871  0.44715  1.0000
  C   C119      1.0  0.21029  0.11186  0.45860  1.0000
  C   C120      1.0  0.19280  0.13396  0.45487  1.0000
  C   C121      1.0  0.20487  0.14821  0.43998  1.0000
  C   C122      1.0  0.23413  0.14034  0.42855  1.0000
  C   C123      1.0  0.25139  0.11812  0.43211  1.0000
  C   C124      1.0  0.23970  0.10402  0.44725  1.0000
  H   H105      1.0  0.17011  0.14015  0.46355  1.0000
  H   H106      1.0  0.19138  0.16536  0.43723  1.0000
  H   H107      1.0  0.27417  0.11201  0.42347  1.0000
  H   H108      1.0  0.25337  0.08695  0.45011  1.0000
  C   C125      1.0  0.10978  0.02586  0.58765  1.0000
  C   C126      1.0  0.09815  0.04600  0.59804  1.0000
  C   C127      1.0  0.09300  0.06816  0.58874  1.0000
  C   C128      1.0  0.09881  0.07037  0.56894  1.0000
  C   C129      1.0  0.10918  0.05004  0.55846  1.0000
  C   C130      1.0  0.11505  0.02801  0.56781  1.0000
  H   H109      1.0  0.09405  0.04468  0.61332  1.0000
  H   H110      1.0  0.08502  0.08377  0.59700  1.0000
  H   H111      1.0  0.11389  0.05143  0.54325  1.0000
  H   H112      1.0  0.11832  0.11760  0.42803  1.0000
  C   C131      1.0  0.20346  0.04465  0.53822  1.0000
  H   H113      1.0  0.15311  0.12843  0.39942  1.0000
  Fe  Fe30      1.0  0.35625  0.12651  0.36832  1.0000
  N   N10       1.0  0.11588  0.42586  0.36159  1.0000
  C   C132      1.0  0.15975  0.11170  0.40661  1.0000
  C   C133      1.0  0.07922  0.25452  0.51308  1.0000
  C   C134      1.0  0.06973  0.25301  0.49378  1.0000
  C   C135      1.0  0.06654  0.23068  0.48520  1.0000
  C   C136      1.0  0.07324  0.20960  0.49570  1.0000
  C   C137      1.0  0.08286  0.21108  0.51498  1.0000
  C   C138      1.0  0.08558  0.23346  0.52365  1.0000
  H   H114      1.0  0.06467  0.26905  0.48549  1.0000
  C   C139      1.0  0.27824  0.28608  0.40212  1.0000
  H   H115      1.0  0.08799  0.19501  0.52323  1.0000
  H   H116      1.0  0.09288  0.23443  0.53860  1.0000
  N   N11       1.0  0.18746  0.09689  0.40012  1.0000
  H   H117      1.0  0.19065  0.11281  0.37252  1.0000
  H   H118      1.0  0.02137  0.29486  0.54888  1.0000
  C   C140      1.0  0.16017  0.23810  0.49422  1.0000
  C   C141      1.0  0.25618  0.26124  0.37628  1.0000
  H   H119      1.0  0.17447  0.20332  0.45966  1.0000
  H   H120      1.0  0.37049  0.24065  0.38059  1.0000
  C   C142      1.0  0.12229  0.43521  0.59140  1.0000
  C   C143      1.0  0.14328  0.41870  0.58046  1.0000
  C   C144      1.0  0.12899  0.40803  0.56408  1.0000
  C   C145      1.0  0.09337  0.41365  0.55854  1.0000
  C   C146      1.0  0.07242  0.43015  0.56948  1.0000
  C   C147      1.0  0.08675  0.44091  0.58578  1.0000
  H   H121      1.0  0.17084  0.41421  0.58464  1.0000
  H   H122      1.0  0.14558  0.39555  0.55574  1.0000
  H   H123      1.0  0.18639  0.05405  0.43404  1.0000
  H   H124      1.0  0.07025  0.45351  0.59405  1.0000
  C   C148      1.0  0.18848  0.09149  0.54873  1.0000
  C   C149      1.0  0.19719  0.07642  0.40979  1.0000
  H   H125      1.0  0.19688  0.03693  0.56808  1.0000
  N   N12       1.0  0.05946  0.34388  0.56538  1.0000
  C   C150      1.0  0.14938  0.08470  0.43255  1.0000
  S   S56       1.0  0.04254  0.34741  0.51222  1.0000
  C   C151      1.0  0.18275  0.08027  0.58242  1.0000
  C   C152      1.0  0.19670  0.05082  0.55732  1.0000
  H   H126      1.0  0.20808  0.05800  0.50937  1.0000
  H   H127      1.0  0.18181  0.10981  0.55262  1.0000
  C   C153      1.0  0.20884  0.36499  0.40771  1.0000
  C   C154      1.0  0.23330  0.34966  0.41753  1.0000
  C   C155      1.0  0.22499  0.34168  0.43601  1.0000
  C   C156      1.0  0.19214  0.34884  0.44476  1.0000
  C   C157      1.0  0.16742  0.36382  0.43480  1.0000
  C   C158      1.0  0.17583  0.37193  0.41638  1.0000
  H   H128      1.0  0.25891  0.34440  0.41106  1.0000
  H   H129      1.0  0.24432  0.33022  0.44370  1.0000
  H   H130      1.0  0.14208  0.36944  0.44142  1.0000
  H   H131      1.0  0.14781  0.19688  0.48034  1.0000
  H   H132      1.0  0.16713  0.26466  0.51595  1.0000
  C   C159      1.0  0.15488  0.25207  0.46223  1.0000
  C   C160      1.0  0.16430  0.27985  0.48769  1.0000
  Fe  Fe31      1.0  0.08122  0.48958  0.67059  1.0000
  H   H133      1.0  0.05045  0.38349  0.44179  1.0000
  C   C161      1.0  0.20303  0.06240  0.52429  1.0000
  H   H134      1.0  0.22009  0.06517  0.40510  1.0000
  C   C162      1.0  0.25299  0.45760  0.65155  1.0000
  C   C163      1.0  0.15947  0.27534  0.46829  1.0000
  C   C164      1.0  0.14519  0.41109  0.37032  1.0000
  H   H135      1.0  0.12592  0.20897  0.45958  1.0000
  H   H136      1.0  0.04485  0.43463  0.56533  1.0000
  H   H137      1.0  0.16745  0.29786  0.49258  1.0000
  C   C165      1.0  0.16460  0.26117  0.50077  1.0000
  C   C166      1.0  0.15083  0.20959  0.46834  1.0000
  H   H138      1.0  0.27821  0.30023  0.39105  1.0000
  C   C167      1.0  0.19582  0.08597  0.52958  1.0000
  H   H139      1.0  0.22878  0.11624  0.38810  1.0000
  H   H140      1.0  0.15967  0.22378  0.50457  1.0000
  C   C168      1.0  0.43870  0.10010  0.35545  1.0000
  H   H141      1.0  0.11089  0.33774  0.57864  1.0000
  N   N13       1.0  0.27314  0.26279  0.39357  1.0000
  C   C169      1.0  0.17822  0.06998  0.42611  1.0000
  H   H142      1.0  0.18538  0.48919  0.61407  1.0000
  H   H143      1.0  0.19889  0.49934  0.68004  1.0000
  S   S57       1.0  0.25780  0.14868  0.35771  1.0000
  H   H144      1.0  0.03691  0.45504  0.37322  1.0000
  S   S58       1.0  0.02754  0.06492  0.47684  1.0000
  H   H145      1.0  0.22229  0.08829  0.37639  1.0000
  H   H146      1.0  0.28759  0.20421  0.40347  1.0000
  H   H147      1.0  0.10960  0.35708  0.55795  1.0000
  H   H148      1.0  0.15206  0.41768  0.38478  1.0000
  H   H149      1.0  0.17212  0.06522  0.59056  1.0000
  C   C170      1.0  0.22898  0.46771  0.63801  1.0000
  C   C171      1.0  0.20765  0.50089  0.61730  1.0000
  H   H150      1.0  0.09199  0.36757  0.58058  1.0000
  H   H151      1.0  0.13501  0.08015  0.44545  1.0000
  C   C172      1.0  0.28413  0.24265  0.40338  1.0000
  C   C173      1.0  0.03035  0.35979  0.56442  1.0000
  H   H152      1.0  0.04514  0.41256  0.41516  1.0000
  C   C174      1.0  0.05638  0.32083  0.55993  1.0000
  S   S59       1.0  0.02910  0.01307  0.68465  1.0000
  H   H153      1.0  0.20737  0.45732  0.63272  1.0000
  S   S60       1.0  0.35196  0.28980  0.37399  1.0000
  H   H154      1.0  0.29765  0.24386  0.41705  1.0000
  H   H155      1.0  0.20824  0.08535  0.58911  1.0000
  Fe  Fe32      1.0  0.32738  0.32391  0.36187  1.0000
  C   C175      1.0  0.27859  0.22021  0.39579  1.0000
  H   H156      1.0  0.24980  0.43973  0.65675  1.0000
  H   H157      1.0  0.24787  0.27716  0.36835  1.0000
  C   C176      1.0  0.34524  0.22144  0.35810  1.0000
  H   H158      1.0  0.19561  0.09984  0.51881  1.0000
  C   C177      1.0  0.05906  0.44809  0.36442  1.0000
  H   H159      1.0  0.35492  0.20440  0.36347  1.0000
  H   H160      1.0  0.01707  0.49767  0.56486  1.0000
  C   C178      1.0  0.28086  0.47080  0.65844  1.0000
  H   H161      1.0  0.03307  0.37827  0.56812  1.0000
  H   H162      1.0  0.05894  0.22971  0.47030  1.0000
  N   N14       1.0  0.23247  0.49042  0.63168  1.0000
  C   C179      1.0  0.35444  0.24205  0.36768  1.0000
  C   C180      1.0  0.02462  0.39234  0.43848  1.0000
  H   H163      1.0  0.12422  0.01259  0.55962  1.0000
  H   H164      1.0  0.22226  0.50391  0.60376  1.0000
  H   H165      1.0  0.29930  0.46342  0.66924  1.0000
  H   H166      1.0  0.25806  0.20122  0.37181  1.0000
  H   H167      1.0  0.49119  0.11230  0.36196  1.0000
  H   H168      1.0  0.01564  0.10344  0.44916  1.0000
  H   H169      1.0  0.30522  0.50450  0.65754  1.0000
  S   S61       1.0  0.26877  0.32696  0.35421  1.0000
  H   H170      1.0  0.23825  0.23789  0.35417  1.0000
  H   H171      1.0  0.16854  0.49034  0.73317  1.0000
  H   H172      1.0  0.48541  0.35145  0.95864  1.0000
  H   H173      1.0  0.46393  0.50589  0.77981  1.0000
  H   H174      1.0  0.49264  0.31369  0.97711  1.0000
  H   H175      1.0  0.07404  0.03523  0.72764  1.0000
  S   S62       1.0  0.06543  0.47368  0.69885  1.0000
  H   H176      1.0  0.49609  0.49950  0.94509  1.0000
  C   C181      1.0  0.51194  0.50396  0.82170  1.0000
  H   H177      1.0  0.25145  0.48653  0.70015  1.0000
  C   C182      1.0  0.50349  0.50026  0.80236  1.0000
  C   C183      1.0  0.01881  0.47907  0.75078  1.0000
  H   H178      1.0  0.11453  0.02130  0.70124  1.0000
  C   C184      1.0  0.04266  0.48617  0.71902  1.0000
  C   C185      1.0  0.08600  0.01725  0.72775  1.0000
  C   C186      1.0  0.47027  0.50898  0.79467  1.0000
  C   C187      1.0  0.24965  0.50419  0.69407  1.0000
  S   S63       1.0  0.31599  0.50908  0.71052  1.0000
  C   C188      1.0  0.02935  0.50995  0.72019  1.0000
  C   C189      1.0  0.51204  0.34378  0.96204  1.0000
  C   C190      1.0  0.03726  0.47096  0.73442  1.0000
  H   H179      1.0  0.04755  0.45265  0.73376  1.0000
  C   C191      1.0  0.17164  0.50818  0.72786  1.0000
  H   H180      1.0  0.47607  0.01120  0.81520  1.0000
  H   H181      1.0  0.01536  0.46698  0.76259  1.0000
  H   H182      1.0  0.12410  0.50845  0.71012  1.0000
  C   C192      1.0  0.36197  0.79219  0.05786  1.0000
  C   C193      1.0  0.40910  0.57086  0.09247  1.0000
  H   H183      1.0  0.40869  0.59548  0.06861  1.0000
  H   H184      1.0  0.43655  0.83856  0.04799  1.0000
  C   C194      1.0  0.37047  0.76861  0.05284  1.0000
  S   S64       1.0  0.40945  0.54012  0.12314  1.0000
  H   H185      1.0  0.46888  0.53835  0.07052  1.0000
  S   S65       1.0  0.35486  0.57872  0.04168  1.0000
  N   N15       1.0  0.43200  0.52330  0.05123  1.0000
  H   H186      1.0  0.34354  0.57884  0.16944  1.0000
  H   H187      1.0  0.42086  0.99639  0.07058  1.0000
  H   H188      1.0  0.46022  0.81887  0.03161  1.0000
  S   S66       1.0  0.36223  0.98134  0.09501  1.0000
  H   H189      1.0  0.25526  0.53776  0.11109  1.0000
  Fe  Fe33      1.0  0.40627  0.00842  0.16310  1.0000
  C   C195      1.0  0.37100  0.56846  0.06427  1.0000
  H   H190      1.0  0.42928  0.57988  0.10036  1.0000
  S   S67       1.0  0.35453  0.99230  0.15388  1.0000
  C   C196      1.0  0.42988  0.77940  0.04371  1.0000
  S   S68       1.0  0.38396  0.87859  0.05661  1.0000
  C   C197      1.0  0.27823  0.53434  0.13933  1.0000
  C   C198      1.0  0.38796  0.80899  0.05575  1.0000
  N   N16       1.0  0.42124  0.80251  0.04851  1.0000
  H   H191      1.0  0.35045  0.75543  0.05404  1.0000
  C   C199      1.0  0.43617  0.54153  0.03655  1.0000
  H   H192      1.0  0.36845  0.55048  0.16687  1.0000
  C   C200      1.0  0.39480  0.55043  0.10027  1.0000
  H   H193      1.0  0.30191  0.93595  0.15177  1.0000
  C   C201      1.0  0.36868  0.53900  0.08993  1.0000
  C   C202      1.0  0.35580  0.56595  0.15904  1.0000
  H   H194      1.0  0.45597  0.77439  0.03753  1.0000
  H   H195      1.0  0.44110  0.55898  0.04312  1.0000
  H   H196      1.0  0.34381  0.58090  0.12310  1.0000
  C   C203      1.0  0.39750  0.57975  0.07447  1.0000
  C   C204      1.0  0.37001  0.95266  0.08471  1.0000
  C   C205      1.0  0.38263  0.93287  0.09534  1.0000
  C   C206      1.0  0.38690  0.91037  0.08653  1.0000
  C   C207      1.0  0.37904  0.90742  0.06698  1.0000
  C   C208      1.0  0.36689  0.92730  0.05634  1.0000
  C   C209      1.0  0.36222  0.94971  0.06519  1.0000
  H   H197      1.0  0.38882  0.93480  0.11036  1.0000
  H   H198      1.0  0.39636  0.89514  0.09491  1.0000
  H   H199      1.0  0.36061  0.92536  0.04133  1.0000
  H   H200      1.0  0.35231  0.96482  0.05681  1.0000
  C   C210      1.0  0.29892  0.56081  0.11512  1.0000
  C   C211      1.0  0.27544  0.54377  0.12090  1.0000
  C   C212      1.0  0.25115  0.98787  0.14909  1.0000
  H   H201      1.0  0.38107  0.82732  0.05959  1.0000
  C   C213      1.0  0.40474  0.76210  0.04590  1.0000
  C   C214      1.0  0.44835  0.82014  0.04621  1.0000
  C   C215      1.0  0.35662  0.54812  0.07215  1.0000
  H   H202      1.0  0.31390  0.94712  0.11797  1.0000
  H   H203      1.0  0.23420  0.99952  0.15804  1.0000
  H   H204      1.0  0.28593  0.98432  0.10477  1.0000
  H   H205      1.0  0.29735  0.56809  0.10073  1.0000
  H   H206      1.0  0.33613  0.53925  0.06437  1.0000
  H   H207      1.0  0.33533  0.79755  0.06314  1.0000
  S   S69       1.0  0.43933  0.99374  0.18806  1.0000
  Fe  Fe34      1.0  0.37954  0.87054  0.02464  1.0000
  C   C216      1.0  0.32520  0.56799  0.12785  1.0000
  S   S70       1.0  0.42052  0.63137  0.02367  1.0000
  C   C217      1.0  0.28913  0.95203  0.14573  1.0000
  N   N17       1.0  0.25779  0.99379  0.13047  1.0000
  H   H208      1.0  0.41137  0.74392  0.04153  1.0000
  C   C218      1.0  0.29583  0.95825  0.12679  1.0000
  N   N18       1.0  0.32829  0.55823  0.14576  1.0000
  H   H209      1.0  0.37801  0.57428  0.15132  1.0000
  H   H210      1.0  0.35745  0.52327  0.09569  1.0000
  C   C219      1.0  0.45156  0.52390  0.06780  1.0000
  C   C220      1.0  0.30492  0.54187  0.15167  1.0000
  H   H211      1.0  0.47002  0.81709  0.05700  1.0000
  H   H212      1.0  0.30710  0.53428  0.16593  1.0000
  H   H213      1.0  0.26192  0.96263  0.17189  1.0000
  H   H214      1.0  0.47769  0.98971  0.22386  1.0000
  H   H215      1.0  0.41122  0.54440  0.02786  1.0000
  C   C221      1.0  0.27996  0.97937  0.11938  1.0000
  C   C222      1.0  0.26673  0.96695  0.15700  1.0000
  H   H216      1.0  0.45904  0.53631  0.02697  1.0000
  Fe  Fe35      1.0  0.37406  0.99865  0.12381  1.0000
  C   C223      1.0  0.04787  0.00096  0.33393  1.0000
  S   S71       1.0  0.02332  0.99591  0.27304  1.0000
  H   H217      1.0  0.26023  0.52098  0.14401  1.0000
  H   H218      1.0  0.05209  0.98194  0.33196  1.0000
  H   H219      1.0  0.24543  0.00448  0.22114  1.0000
  C   C224      1.0  0.48608  0.00545  0.21667  1.0000
  H   H220      1.0  0.47194  0.00690  0.04980  1.0000
  C   C225      1.0  0.02452  0.00998  0.34818  1.0000
  H   H221      1.0  0.08124  0.00975  0.31005  1.0000
  Fe  Fe36      1.0  0.37717  0.60531  0.02063  1.0000
  S   S72       1.0  0.07878  0.52851  0.66467  1.0000
  H   H222      1.0  0.08740  0.95368  0.59597  1.0000
  H   H223      1.0  0.45466  0.80756  0.67479  1.0000
  Fe  Fe37      1.0  0.13352  0.95733  0.66460  1.0000
  H   H224      1.0  0.07164  0.98441  0.56279  1.0000
  Fe  Fe38      1.0  0.06468  0.94324  0.64354  1.0000
  S   S73       1.0  0.12187  0.94645  0.63432  1.0000
  S   S74       1.0  0.07712  0.95089  0.67422  1.0000
  C   C226      1.0  0.02361  0.57401  0.60684  1.0000
  C   C227      1.0  0.03592  0.91350  0.56231  1.0000
  S   S75       1.0  0.17627  0.93759  0.68318  1.0000
  C   C228      1.0  0.04772  0.97822  0.57041  1.0000
  S   S76       1.0  0.12161  0.99626  0.65846  1.0000
  C   C229      1.0  0.07289  0.94248  0.58646  1.0000
  Fe  Fe39      1.0  0.10550  0.98505  0.62869  1.0000
  H   H225      1.0  0.05880  0.88427  0.57906  1.0000
  C   C230      1.0  0.02933  0.53448  0.56504  1.0000
  C   C231      1.0  0.21760  0.53401  0.67427  1.0000
  H   H226      1.0  0.03633  0.57173  0.56165  1.0000
  H   H227      1.0  0.04889  0.57156  0.61445  1.0000
  S   S77       1.0  0.04747  0.98078  0.63623  1.0000
  Fe  Fe40      1.0  0.13428  0.52107  0.65226  1.0000
  H   H228      1.0  0.09236  0.91020  0.60061  1.0000
  H   H229      1.0  0.02299  0.98422  0.56245  1.0000
  H   H230      1.0  0.04629  0.98697  0.58467  1.0000
  H   H231      1.0  0.45248  0.60997  0.67992  1.0000
  S   S78       1.0  0.18146  0.54361  0.65903  1.0000
  C   C232      1.0  0.07620  0.91787  0.58897  1.0000
  S   S79       1.0  0.03294  0.91133  0.63638  1.0000
  N   N19       1.0  0.05097  0.95235  0.57252  1.0000
  H   H232      1.0  0.04539  0.53294  0.57801  1.0000
  C   C233      1.0  0.21982  0.51141  0.68260  1.0000
  H   H233      1.0  0.46569  0.83814  0.67800  1.0000
  C   C234      1.0  0.01644  0.59438  0.59550  1.0000
  C   C235      1.0  0.24505  0.54947  0.67796  1.0000
  C   C236      1.0  0.50867  0.61587  0.65883  1.0000
  S   S80       1.0  0.12016  0.99794  0.59875  1.0000
  H   H234      1.0  0.03640  0.60753  0.59435  1.0000
  H   H235      1.0  0.26166  0.52175  0.63381  1.0000
  H   H236      1.0  0.49809  0.59837  0.65800  1.0000
  Fe  Fe41      1.0  0.06448  0.98869  0.66630  1.0000
  C   C237      1.0  0.02399  0.55639  0.55577  1.0000
  N   N20       1.0  0.49187  0.63330  0.66973  1.0000
  H   H237      1.0  0.24360  0.56702  0.67164  1.0000
  C   C238      1.0  0.05741  0.90333  0.57686  1.0000
  Fe  Fe42      1.0  0.05841  0.51832  0.63561  1.0000
  C   C239      1.0  0.03302  0.93820  0.56031  1.0000
  H   H238      1.0  0.21235  0.98253  0.68682  1.0000
  S   S81       1.0  0.11352  0.51510  0.62232  1.0000
  C   C240      1.0  0.47062  0.81969  0.68340  1.0000
  H   H239      1.0  0.49290  0.66882  0.67997  1.0000
  H   H240      1.0  0.01804  0.59386  0.53366  1.0000
  C   C241      1.0  0.45769  0.62916  0.67929  1.0000
  H   H241      1.0  0.02033  0.90243  0.55315  1.0000
  N   N21       1.0  0.50900  0.81226  0.68247  1.0000
  H   H242      1.0  0.43502  0.63857  0.67159  1.0000
  H   H243      1.0  0.19540  0.51809  0.62256  1.0000
  C   C242      1.0  0.50605  0.65507  0.67122  1.0000
  H   H244      1.0  0.01540  0.94592  0.54931  1.0000
  Fe  Fe43      1.0  0.38508  0.65598  0.00497  1.0000
  N   N22       1.0  0.23103  0.90333  0.77617  1.0000
  C   C243      1.0  0.22896  0.96853  0.69352  1.0000
  Fe  Fe44      1.0  0.44141  0.61622  0.99555  1.0000
  S   S82       1.0  0.40071  0.58878  0.99396  1.0000
  N   N23       1.0  0.11409  0.97057  0.72707  1.0000
  Fe  Fe45      1.0  0.36762  0.61611  0.97749  1.0000
  S   S83       1.0  0.34590  0.60562  0.94869  1.0000
  S   S84       1.0  0.40993  0.64285  0.97738  1.0000
  H   H245      1.0  0.37448  0.57376  0.82271  1.0000
  Fe  Fe46      1.0  0.15370  0.66229  0.85615  1.0000
  S   S85       1.0  0.12179  0.65759  0.88292  1.0000
  S   S86       1.0  0.15187  0.69609  0.83907  1.0000
  Fe  Fe47      1.0  0.18508  0.61193  0.85670  1.0000
  S   S87       1.0  0.15636  0.60305  0.88368  1.0000
  S   S88       1.0  0.21945  0.58264  0.84324  1.0000
  Fe  Fe48      1.0  0.10874  0.62265  0.87014  1.0000
  S   S89       1.0  0.05505  0.60608  0.87211  1.0000
  Fe  Fe49      1.0  0.17235  0.63852  0.89392  1.0000
  S   S90       1.0  0.19049  0.64558  0.92413  1.0000
  S   S91       1.0  0.13637  0.62886  0.84231  1.0000
  S   S92       1.0  0.20541  0.64590  0.86797  1.0000
  Fe  Fe50      1.0  0.38522  0.54101  0.76742  1.0000
  S   S93       1.0  0.38304  0.58039  0.76343  1.0000
  Fe  Fe51      1.0  0.34734  0.53453  0.72849  1.0000
  S   S94       1.0  0.34434  0.57356  0.72212  1.0000
  Fe  Fe52      1.0  0.40116  0.57257  0.73341  1.0000
  S   S95       1.0  0.44406  0.59729  0.72447  1.0000
  Fe  Fe53      1.0  0.32706  0.57724  0.75271  1.0000
  S   S96       1.0  0.28079  0.60254  0.76120  1.0000
  C   C244      1.0  0.50024  0.51861  0.94276  1.0000
  S   S97       1.0  0.32739  0.53840  0.75862  1.0000
  Fe  Fe54      1.0  0.44221  0.93877  0.75700  1.0000
  S   S98       1.0  0.43925  0.90072  0.76511  1.0000
  H   H246      1.0  0.18713  0.88306  0.78545  1.0000
  Fe  Fe55      1.0  0.36787  0.93900  0.73677  1.0000
  S   S99       1.0  0.36095  0.90056  0.74350  1.0000
  H   H247      1.0  0.02249  0.66119  0.86915  1.0000
  Fe  Fe56      1.0  0.38193  0.90983  0.77255  1.0000
  S   S100      1.0  0.36279  0.90090  0.80200  1.0000
  Fe  Fe57      1.0  0.41965  0.89542  0.73534  1.0000
  S   S101      1.0  0.44766  0.86400  0.72058  1.0000
  S   S102      1.0  0.38573  0.94859  0.76657  1.0000
  S   S103      1.0  0.42540  0.93313  0.72642  1.0000
  Fe  Fe58      1.0  0.21219  0.86603  0.87443  1.0000
  S   S104      1.0  0.22354  0.82995  0.86190  1.0000
  S   S105      1.0  0.25492  0.88346  0.89143  1.0000
  Fe  Fe59      1.0  0.13815  0.87219  0.85512  1.0000
  S   S106      1.0  0.14311  0.83624  0.84133  1.0000
  Fe  Fe60      1.0  0.16634  0.82396  0.86970  1.0000
  S   S107      1.0  0.15622  0.79103  0.88670  1.0000
  Fe  Fe61      1.0  0.19989  0.84547  0.83490  1.0000
  S   S108      1.0  0.22619  0.84029  0.80617  1.0000
  S   S109      1.0  0.15643  0.85929  0.88423  1.0000
  S   S110      1.0  0.19339  0.88222  0.84667  1.0000
  H   H248      1.0  0.50176  0.92247  0.72106  1.0000
  Fe  Fe62      1.0  0.33416  0.85878  0.98947  1.0000
  S   S111      1.0  0.38235  0.84989  0.97098  1.0000
  S   S112      1.0  0.27841  0.85348  0.97792  1.0000
  Fe  Fe63      1.0  0.40383  0.83017  0.99703  1.0000
  S   S113      1.0  0.43387  0.79381  0.99589  1.0000
  Fe  Fe64      1.0  0.40458  0.88233  0.98422  1.0000
  S   S114      1.0  0.42942  0.91378  0.97020  1.0000
  H   H249      1.0  0.47048  0.97547  0.86209  1.0000
  S   S115      1.0  0.35436  0.89272  0.00097  1.0000
  H   H250      1.0  0.51186  0.87517  0.92312  1.0000
  C   C245      1.0  0.45894  0.91285  0.95047  1.0000
  C   C246      1.0  0.24947  0.91233  0.76112  1.0000
  C   C247      1.0  0.48809  0.86948  0.70876  1.0000
  H   H251      1.0  0.31148  0.58261  0.85077  1.0000
  C   C248      1.0  0.12270  0.98588  0.71282  1.0000
  C   C249      1.0  0.47103  0.95700  0.85772  1.0000
  H   H252      1.0  0.06824  0.72123  0.89573  1.0000
  C   C250      1.0  0.28819  0.63753  0.83362  1.0000
  H   H253      1.0  0.05604  0.85979  0.84348  1.0000
  H   H254      1.0  0.46234  0.59382  0.92128  1.0000
  C   C251      1.0  0.25967  0.87633  0.91583  1.0000
  C   C252      1.0  0.23442  0.86314  0.92531  1.0000
  C   C253      1.0  0.23944  0.85723  0.94470  1.0000
  C   C254      1.0  0.27020  0.86389  0.95451  1.0000
  C   C255      1.0  0.29500  0.87752  0.94512  1.0000
  C   C256      1.0  0.28947  0.88398  0.92590  1.0000
  H   H255      1.0  0.21126  0.85728  0.91768  1.0000
  H   H256      1.0  0.22014  0.84672  0.95194  1.0000
  H   H257      1.0  0.31858  0.88297  0.95265  1.0000
  H   H258      1.0  0.30885  0.89446  0.91869  1.0000
  H   H259      1.0  0.46324  0.74566  0.99379  1.0000
  C   C257      1.0  0.05405  0.89767  0.83949  1.0000
  C   C258      1.0  0.32394  0.61437  0.81086  1.0000
  C   C259      1.0  0.32789  0.88137  0.80330  1.0000
  C   C260      1.0  0.31055  0.87840  0.82083  1.0000
  C   C261      1.0  0.28019  0.86487  0.82192  1.0000
  C   C262      1.0  0.26725  0.85409  0.80550  1.0000
  C   C263      1.0  0.28566  0.85607  0.78814  1.0000
  C   C264      1.0  0.31581  0.86988  0.78700  1.0000
  H   H260      1.0  0.31994  0.88714  0.83350  1.0000
  H   H261      1.0  0.26650  0.86315  0.83542  1.0000
  H   H262      1.0  0.27610  0.84741  0.77548  1.0000
  H   H263      1.0  0.32943  0.87180  0.77350  1.0000
  C   C265      1.0  0.02480  0.60885  0.85280  1.0000
  H   H264      1.0  0.49316  0.51948  0.84820  1.0000
  C   C266      1.0  0.48295  0.58963  0.93188  1.0000
  H   H265      1.0  0.45812  0.63547  0.69435  1.0000
  C   C267      1.0  0.14156  0.92297  0.89091  1.0000
  H   H266      1.0  0.33349  0.74224  0.00845  1.0000
  C   C268      1.0  0.28527  0.93420  0.78296  1.0000
  C   C269      1.0  0.28406  0.95574  0.71099  1.0000
  C   C270      1.0  0.48826  0.88517  0.69326  1.0000
  C   C271      1.0  0.48461  0.58825  0.71292  1.0000
  C   C272      1.0  0.09169  0.97808  0.74165  1.0000
  C   C273      1.0  0.02648  0.56235  0.80455  1.0000
  H   H267      1.0  0.45881  0.95097  0.94886  1.0000
  C   C274      1.0  0.03331  0.91748  0.83275  1.0000
  H   H268      1.0  0.17618  0.90066  0.94014  1.0000
  C   C275      1.0  0.15600  0.72213  0.85247  1.0000
  C   C276      1.0  0.15720  0.74394  0.84295  1.0000
  C   C277      1.0  0.15795  0.76515  0.85337  1.0000
  C   C278      1.0  0.15708  0.76463  0.87336  1.0000
  C   C279      1.0  0.15617  0.74280  0.88289  1.0000
  C   C280      1.0  0.15597  0.72155  0.87247  1.0000
  H   H269      1.0  0.15742  0.74447  0.82748  1.0000
  H   H270      1.0  0.15885  0.78191  0.84591  1.0000
  H   H271      1.0  0.15560  0.74232  0.89835  1.0000
  H   H272      1.0  0.15521  0.70480  0.87992  1.0000
  C   C281      1.0  0.23185  0.58737  0.81943  1.0000
  C   C282      1.0  0.25353  0.56989  0.81020  1.0000
  C   C283      1.0  0.26755  0.57418  0.79204  1.0000
  C   C284      1.0  0.25973  0.59588  0.78290  1.0000
  C   C285      1.0  0.23651  0.61297  0.79171  1.0000
  C   C286      1.0  0.22273  0.60879  0.81006  1.0000
  H   H273      1.0  0.26044  0.55325  0.81739  1.0000
  H   H274      1.0  0.28509  0.56085  0.78543  1.0000
  H   H275      1.0  0.23027  0.62980  0.78468  1.0000
  H   H276      1.0  0.20603  0.62240  0.81715  1.0000
  C   C287      1.0  0.37649  0.76505  0.00185  1.0000
  C   C288      1.0  0.48718  0.91570  0.86379  1.0000
  C   C289      1.0  0.38340  0.72163  0.00410  1.0000
  C   C290      1.0  0.41325  0.76624  0.99796  1.0000
  H   H277      1.0  0.08460  0.73322  0.83052  1.0000
  C   C291      1.0  0.41995  0.72278  0.99973  1.0000
  C   C292      1.0  0.20082  0.52106  0.73371  1.0000
  H   H278      1.0  0.47037  0.52176  0.90820  1.0000
  C   C293      1.0  0.30146  0.61483  0.94246  1.0000
  C   C294      1.0  0.27730  0.62443  0.95606  1.0000
  C   C295      1.0  0.24257  0.63275  0.95043  1.0000
  C   C296      1.0  0.23212  0.63194  0.93117  1.0000
  C   C297      1.0  0.25603  0.62186  0.91765  1.0000
  C   C298      1.0  0.29058  0.61324  0.92331  1.0000
  H   H279      1.0  0.28536  0.62551  0.97088  1.0000
  H   H280      1.0  0.22402  0.64034  0.96097  1.0000
  H   H281      1.0  0.24804  0.62099  0.90280  1.0000
  H   H282      1.0  0.30911  0.60566  0.91277  1.0000
  C   C299      1.0  0.48805  0.56750  0.70203  1.0000
  C   C300      1.0  0.14663  0.51837  0.71495  1.0000
  H   H283      1.0  0.46500  0.87480  0.94852  1.0000
  C   C301      1.0  0.27302  0.93246  0.71080  1.0000
  H   H284      1.0  0.34793  0.84366  0.92664  1.0000
  H   H285      1.0  0.43698  0.70661  0.99903  1.0000
  C   C302      1.0  0.45412  0.53079  0.91915  1.0000
  N   N24       1.0  0.05875  0.70880  0.84874  1.0000
  H   H286      1.0  0.29390  0.69246  0.99044  1.0000
  C   C303      1.0  0.15101  0.54127  0.70811  1.0000
  N   N25       1.0  0.45943  0.92766  0.83397  1.0000
  C   C304      1.0  0.47415  0.91019  0.84564  1.0000
  H   H287      1.0  0.27758  0.61953  0.86010  1.0000
  S   S116      1.0  0.40220  0.53164  0.79788  1.0000
  C   C305      1.0  0.49153  0.99518  0.81115  1.0000
  N   N26       1.0  0.32610  0.59563  0.82334  1.0000
  H   H288      1.0  0.42407  0.93384  0.81016  1.0000
  S   S117      1.0  0.40624  0.53296  0.73772  1.0000
  C   C306      1.0  0.21793  0.94525  0.69337  1.0000
  H   H289      1.0  0.47583  0.89186  0.84096  1.0000
  C   C307      1.0  0.30479  0.63553  0.81576  1.0000
  C   C308      1.0  0.50414  0.59220  0.96466  1.0000
  C   C309      1.0  0.43478  0.74497  0.99679  1.0000
  C   C310      1.0  0.48292  0.98339  0.79419  1.0000
  H   H290      1.0  0.04060  0.72506  0.82281  1.0000
  N   N27       1.0  0.30566  0.82137  0.91901  1.0000
  C   C311      1.0  0.30128  0.81335  0.93730  1.0000
  C   C312      1.0  0.28103  0.81680  0.90513  1.0000
  C   C313      1.0  0.27093  0.80113  0.94224  1.0000
  C   C314      1.0  0.25050  0.80445  0.90954  1.0000
  C   C315      1.0  0.24536  0.79673  0.92825  1.0000
  C   C316      1.0  0.33757  0.83417  0.91402  1.0000
  H   H291      1.0  0.32054  0.81720  0.94840  1.0000
  H   H292      1.0  0.28447  0.82322  0.89065  1.0000
  H   H293      1.0  0.26688  0.79579  0.95697  1.0000
  H   H294      1.0  0.23061  0.80119  0.89862  1.0000
  H   H295      1.0  0.22132  0.78765  0.93187  1.0000
  H   H296      1.0  0.35911  0.82158  0.90855  1.0000
  H   H297      1.0  0.33089  0.84793  0.90295  1.0000
  H   H298      1.0  0.24082  0.57176  0.72382  1.0000
  H   H299      1.0  0.23187  0.90923  0.70205  1.0000
  C   C317      1.0  0.20365  0.88619  0.77251  1.0000
  C   C318      1.0  0.47347  0.89147  0.94293  1.0000
  H   H300      1.0  0.02750  0.96737  0.70526  1.0000
  C   C319      1.0  0.44592  0.54309  0.95139  1.0000
  S   S118      1.0  0.36374  0.69446  0.00964  1.0000
  C   C320      1.0  0.36177  0.74289  0.00502  1.0000
  H   H301      1.0  0.06196  0.54779  0.84750  1.0000
  C   C321      1.0  0.49664  0.93465  0.92887  1.0000
  C   C322      1.0  0.16640  0.90730  0.92639  1.0000
  H   H302      1.0  0.50359  0.91369  0.99124  1.0000
  H   H303      1.0  0.03879  0.68279  0.89855  1.0000
  C   C323      1.0  0.42181  0.54295  0.91385  1.0000
  S   S119      1.0  0.43097  0.86198  0.00856  1.0000
  H   H304      1.0  0.51207  0.52611  0.95588  1.0000
  C   C324      1.0  0.29041  0.68907  0.97529  1.0000
  H   H305      1.0  0.06273  0.91058  0.91000  1.0000
  H   H306      1.0  0.11288  0.89584  0.93041  1.0000
  H   H307      1.0  0.33813  0.65556  0.92195  1.0000
  H   H308      1.0  0.37648  0.56518  0.92387  1.0000
  H   H309      1.0  0.03354  0.52192  0.70841  1.0000
  H   H310      1.0  0.45412  0.57492  0.79094  1.0000
  H   H311      1.0  0.29002  0.91838  0.71713  1.0000
  H   H312      1.0  0.15836  0.94528  0.72496  1.0000
  C   C325      1.0  0.23918  0.90942  0.79455  1.0000
  H   H313      1.0  0.13235  0.92880  0.87686  1.0000
  C   C326      1.0  0.08135  0.90927  0.89760  1.0000
  H   H314      1.0  0.46123  0.99050  0.78517  1.0000
  S   S120      1.0  0.09617  0.90210  0.85017  1.0000
  H   H315      1.0  0.45556  0.54391  0.96600  1.0000
  H   H316      1.0  0.41317  0.54320  0.89904  1.0000
  C   C327      1.0  0.08279  0.57335  0.82838  1.0000
  C   C328      1.0  0.12850  0.94588  0.72623  1.0000
  S   S121      1.0  0.35438  0.83719  0.01477  1.0000
  H   H317      1.0  0.22043  0.51294  0.74358  1.0000
  C   C329      1.0  0.07755  0.00156  0.74229  1.0000
  H   H318      1.0  0.22647  0.69033  0.94044  1.0000
  H   H319      1.0  0.33375  0.55784  0.82434  1.0000
  C   C330      1.0  0.13071  0.90465  0.92080  1.0000
  S   S122      1.0  0.32490  0.96337  0.72215  1.0000
  H   H320      1.0  0.24355  0.90718  0.74656  1.0000
  C   C331      1.0  0.23555  0.55662  0.73342  1.0000
  H   H321      1.0  0.30181  0.64994  0.80549  1.0000
  C   C332      1.0  0.25667  0.69273  0.96670  1.0000
  H   H322      1.0  0.35960  0.78123  0.00289  1.0000
  H   H323      1.0  0.27910  0.67559  0.92163  1.0000
  C   C333      1.0  0.25278  0.68826  0.94720  1.0000
  C   C334      1.0  0.48018  0.56789  0.78593  1.0000
  C   C335      1.0  0.28270  0.67978  0.93662  1.0000
  H   H324      1.0  0.04498  0.58937  0.78567  1.0000
  C   C336      1.0  0.48695  0.51652  0.83330  1.0000
  H   H325      1.0  0.43741  0.90346  0.81423  1.0000
  H   H326      1.0  0.23351  0.69872  0.97517  1.0000
  C   C337      1.0  0.24004  0.92732  0.70218  1.0000
  H   H327      1.0  0.04369  0.93495  0.83371  1.0000
  H   H328      1.0  0.18520  0.89253  0.76087  1.0000
  H   H329      1.0  0.05314  0.63551  0.83804  1.0000
  H   H330      1.0  0.10406  0.57795  0.83812  1.0000
  H   H331      1.0  0.45348  0.60776  0.95456  1.0000
  N   N28       1.0  0.11857  0.91283  0.90338  1.0000
  C   C338      1.0  0.27665  0.92803  0.76428  1.0000
  C   C339      1.0  0.34659  0.66685  0.93397  1.0000
  H   H332      1.0  0.22557  0.90160  0.80654  1.0000
  C   C340      1.0  0.07807  0.58520  0.81096  1.0000
  H   H333      1.0  0.21690  0.86880  0.76843  1.0000
  N   N29       1.0  0.31550  0.67570  0.94527  1.0000
  H   H334      1.0  0.07983  0.89155  0.89082  1.0000
  N   N30       1.0  0.20502  0.54343  0.72682  1.0000
  C   C341      1.0  0.34603  0.57352  0.81796  1.0000
  H   H335      1.0  0.50763  0.79104  0.70773  1.0000
  N   N31       1.0  0.46607  0.53130  0.93765  1.0000
  H   H336      1.0  0.19596  0.93313  0.88589  1.0000
  H   H337      1.0  0.29602  0.55426  0.69188  1.0000
  C   C342      1.0  0.26176  0.97371  0.70236  1.0000
  C   C343      1.0  0.31047  0.59759  0.84101  1.0000
  H   H338      1.0  0.12145  0.93558  0.73910  1.0000
  H   H339      1.0  0.14021  0.97983  0.70119  1.0000
  H   H340      1.0  0.39768  0.56508  0.95732  1.0000
  C   C344      1.0  0.44711  0.92172  0.81474  1.0000
  C   C345      1.0  0.48548  0.93926  0.86984  1.0000
  H   H341      1.0  0.27377  0.92896  0.81281  1.0000
  H   H342      1.0  0.26064  0.54494  0.73366  1.0000
  C   C346      1.0  0.41328  0.55522  0.94660  1.0000
  C   C347      1.0  0.40134  0.55528  0.92771  1.0000
  C   C348      1.0  0.26636  0.92495  0.79821  1.0000
  H   H343      1.0  0.08401  0.96589  0.75275  1.0000
  H   H344      1.0  0.46631  0.55554  0.70169  1.0000
  H   H345      1.0  0.11770  0.93702  0.71342  1.0000
  C   C349      1.0  0.31976  0.68067  0.96426  1.0000
  H   H346      1.0  0.34559  0.57080  0.80222  1.0000
  S   S123      1.0  0.49722  0.95054  0.76563  1.0000
  H   H347      1.0  0.46938  0.92310  0.80430  1.0000
  S   S124      1.0  0.34012  0.63066  0.00377  1.0000
  H   H348      1.0  0.36128  0.68193  0.92832  1.0000
  H   H349      1.0  0.34586  0.67791  0.97108  1.0000
  H   H350      1.0  0.07982  0.70454  0.82066  1.0000
  C   C350      1.0  0.18039  0.55368  0.71432  1.0000
  C   C351      1.0  0.44495  0.52106  0.80642  1.0000
  C   C352      1.0  0.50001  0.89174  0.92858  1.0000
  C   C353      1.0  0.04381  0.69033  0.88457  1.0000
  C   C354      1.0  0.18977  0.91804  0.91391  1.0000
  C   C355      1.0  0.06608  0.71846  0.82974  1.0000
  H   H351      1.0  0.36531  0.65534  0.94281  1.0000
  H   H352      1.0  0.46065  0.81985  0.69841  1.0000
  H   H353      1.0  0.01945  0.51936  0.83696  1.0000
  H   H354      1.0  0.08057  0.73760  0.86378  1.0000
  C   C356      1.0  0.05890  0.55620  0.83359  1.0000
  H   H355      1.0  0.21770  0.91986  0.91790  1.0000
  C   C357      1.0  0.51280  0.60371  0.71309  1.0000
  H   H356      1.0  0.46464  0.56824  0.75626  1.0000
  C   C358      1.0  0.29126  0.61852  0.84640  1.0000
  H   H357      1.0  0.18385  0.57131  0.70866  1.0000
  C   C359      1.0  0.17749  0.92566  0.89596  1.0000
  H   H358      1.0  0.33579  0.61270  0.79670  1.0000
  H   H359      1.0  0.49882  0.90189  0.87313  1.0000
  N   N32       1.0  0.03160  0.55061  0.82156  1.0000
  H   H360      1.0  0.44701  0.96473  0.83035  1.0000
  H   H361      1.0  0.07157  0.92285  0.88696  1.0000
  C   C360      1.0  0.45798  0.95083  0.83974  1.0000
  C   C361      1.0  0.47784  0.59753  0.95077  1.0000
  C   C362      1.0  0.06035  0.71184  0.88300  1.0000
  H   H362      1.0  0.29142  0.93508  0.75236  1.0000
  H   H363      1.0  0.27222  0.65354  0.83737  1.0000
  C   C363      1.0  0.27740  0.51953  0.69747  1.0000
  C   C364      1.0  0.04032  0.87515  0.83824  1.0000
  C   C365      1.0  0.02988  0.62490  0.83794  1.0000
  H   H364      1.0  0.46401  0.89573  0.68960  1.0000
  C   C366      1.0  0.47012  0.93439  0.94313  1.0000
  H   H365      1.0  0.09594  0.59893  0.80700  1.0000
  H   H366      1.0  0.30717  0.94568  0.78564  1.0000
  C   C367      1.0  0.04962  0.57980  0.79899  1.0000
  C   C368      1.0  0.04231  0.68779  0.85014  1.0000
  C   C369      1.0  0.50376  0.96334  0.78833  1.0000
  H   H367      1.0  0.23033  0.56369  0.74805  1.0000
  C   C370      1.0  0.48595  0.56393  0.76647  1.0000
  C   C371      1.0  0.50782  0.56195  0.79896  1.0000
  C   C372      1.0  0.06743  0.72096  0.86486  1.0000
  S   S125      1.0  0.49771  0.60161  0.98858  1.0000
  C   C373      1.0  0.03472  0.67818  0.86806  1.0000
  C   C374      1.0  0.45345  0.52474  0.82574  1.0000
  H   H368      1.0  0.27006  0.99177  0.70240  1.0000
  H   H369      1.0  0.03524  0.67826  0.83735  1.0000
  H   H370      1.0  0.43397  0.53396  0.83495  1.0000
  H   H371      1.0  0.13227  0.54917  0.69769  1.0000
  H   H372      1.0  0.05900  0.00728  0.75360  1.0000
  H   H373      1.0  0.49558  0.94372  0.88385  1.0000
  H   H374      1.0  0.50550  0.95135  0.92365  1.0000
  C   C375      1.0  0.51217  0.91333  0.92182  1.0000
  C   C376      1.0  0.27472  0.54233  0.68955  1.0000
  C   C377      1.0  0.10866  0.00940  0.71289  1.0000
  H   H375      1.0  0.50286  0.56467  0.81411  1.0000
  H   H376      1.0  0.51031  0.61980  0.72149  1.0000
  Fe  Fe65      1.0  0.78700  0.33961  0.13917  1.0000
  S   S126      1.0  0.75375  0.33568  0.16552  1.0000
  S   S127      1.0  0.76328  0.32085  0.11406  1.0000
  Fe  Fe66      1.0  0.84480  0.36511  0.16110  1.0000
  S   S128      1.0  0.81556  0.36287  0.18902  1.0000
  S   S129      1.0  0.89823  0.38225  0.15890  1.0000
  Fe  Fe67      1.0  0.80614  0.32562  0.17989  1.0000
  S   S130      1.0  0.81009  0.29509  0.20059  1.0000
  Fe  Fe68      1.0  0.76646  0.37309  0.17169  1.0000
  S   S131      1.0  0.72353  0.40018  0.18086  1.0000
  S   S132      1.0  0.83901  0.32693  0.15318  1.0000
  S   S133      1.0  0.79589  0.37814  0.14416  1.0000
  Fe  Fe69      1.0  0.54976  0.36462  0.04883  1.0000
  S   S134      1.0  0.57820  0.39586  0.03794  1.0000
  H   H377      1.0  0.70366  0.41661  0.33031  1.0000
  C   C378      1.0  0.59400  0.06866  0.10691  1.0000
  H   H378      1.0  0.88980  0.36503  0.19769  1.0000
  Fe  Fe70      1.0  0.62819  0.37175  0.04027  1.0000
  S   S135      1.0  0.67758  0.38610  0.05383  1.0000
  S   S136      1.0  0.60041  0.34152  0.05319  1.0000
  Fe  Fe71      1.0  0.62306  0.39827  0.27473  1.0000
  S   S137      1.0  0.62551  0.43758  0.27057  1.0000
  S   S138      1.0  0.65587  0.36992  0.25916  1.0000
  Fe  Fe72      1.0  0.57235  0.40333  0.30835  1.0000
  S   S139      1.0  0.57124  0.44302  0.30730  1.0000
  H   H379      1.0  0.96586  0.07500  0.24659  1.0000
  Fe  Fe73      1.0  0.56560  0.43839  0.27544  1.0000
  C   C379      1.0  0.56126  0.21997  0.02572  1.0000
  Fe  Fe74      1.0  0.63127  0.43853  0.30263  1.0000
  S   S140      1.0  0.67168  0.46235  0.31634  1.0000
  S   S141      1.0  0.56292  0.39881  0.27699  1.0000
  S   S142      1.0  0.63265  0.39919  0.30637  1.0000
  Fe  Fe75      1.0  0.54711  0.05638  0.29802  1.0000
  C   C380      1.0  0.75978  0.01797  0.33530  1.0000
  Fe  Fe76      1.0  0.59650  0.09363  0.28457  1.0000
  S   S143      1.0  0.60631  0.13223  0.28795  1.0000
  S   S144      1.0  0.54245  0.08335  0.27453  1.0000
  S   S145      1.0  0.59851  0.06923  0.30998  1.0000
  Fe  Fe77      1.0  0.57345  0.10642  0.04889  1.0000
  S   S146      1.0  0.63211  0.09898  0.04200  1.0000
  H   H380      1.0  0.52133  0.03411  0.15115  1.0000
  Fe  Fe78      1.0  0.57328  0.15702  0.03284  1.0000
  H   H381      1.0  0.97625  0.46732  0.20658  1.0000
  Fe  Fe79      1.0  0.63907  0.13571  0.05321  1.0000
  S   S147      1.0  0.68226  0.15049  0.07180  1.0000
  H   H382      1.0  0.52981  0.15709  0.32292  1.0000
  S   S148      1.0  0.58164  0.14176  0.06240  1.0000
  Fe  Fe80      1.0  0.74995  0.12680  0.17474  1.0000
  S   S149      1.0  0.74381  0.16598  0.17939  1.0000
  S   S150      1.0  0.71030  0.10924  0.15551  1.0000
  Fe  Fe81      1.0  0.80958  0.12019  0.20495  1.0000
  S   S151      1.0  0.80782  0.15903  0.21191  1.0000
  S   S152      1.0  0.84315  0.09451  0.22366  1.0000
  Fe  Fe82      1.0  0.74788  0.15727  0.21056  1.0000
  S   S153      1.0  0.71233  0.17915  0.23048  1.0000
  Fe  Fe83      1.0  0.80406  0.16437  0.18019  1.0000
  S   S154      1.0  0.83177  0.19274  0.16415  1.0000
  S   S155      1.0  0.74935  0.11804  0.20617  1.0000
  S   S156      1.0  0.81048  0.12544  0.17298  1.0000
  C   C381      1.0  0.90712  0.10510  0.20645  1.0000
  C   C382      1.0  0.89048  0.09561  0.22242  1.0000
  H   H383      1.0  0.89090  0.11321  0.19509  1.0000
  C   C383      1.0  0.99928  0.33830  0.18483  1.0000
  C   C384      1.0  0.68932  0.13904  0.09513  1.0000
  C   C385      1.0  0.66962  0.12048  0.10210  1.0000
  C   C386      1.0  0.67619  0.11156  0.12067  1.0000
  C   C387      1.0  0.70237  0.12115  0.13240  1.0000
  C   C388      1.0  0.72172  0.13991  0.12551  1.0000
  C   C389      1.0  0.71522  0.14879  0.10693  1.0000
  H   H384      1.0  0.64975  0.11282  0.09307  1.0000
  H   H385      1.0  0.66127  0.09704  0.12594  1.0000
  H   H386      1.0  0.74210  0.14731  0.13439  1.0000
  H   H387      1.0  0.73068  0.16305  0.10160  1.0000
  H   H388      1.0  0.54720  0.03473  0.34808  1.0000
  C   C390      1.0  0.96632  0.09233  0.21916  1.0000
  C   C391      1.0  0.94970  0.08353  0.23545  1.0000
  H   H389      1.0  0.75233  0.05577  0.26992  1.0000
  C   C392      1.0  0.69483  0.23354  0.04964  1.0000
  C   C393      1.0  0.63759  0.14427  0.27240  1.0000
  C   C394      1.0  0.64123  0.16877  0.27262  1.0000
  C   C395      1.0  0.66447  0.17917  0.25975  1.0000
  C   C396      1.0  0.68444  0.16516  0.24665  1.0000
  C   C397      1.0  0.68138  0.14058  0.24657  1.0000
  C   C398      1.0  0.65791  0.13016  0.25944  1.0000
  H   H390      1.0  0.62568  0.17981  0.28260  1.0000
  H   H391      1.0  0.66686  0.19820  0.25990  1.0000
  H   H392      1.0  0.69693  0.12961  0.23659  1.0000
  H   H393      1.0  0.65567  0.11130  0.25923  1.0000
  H   H394      1.0  0.68645  0.34179  0.12738  1.0000
  H   H395      1.0  0.92233  0.43863  0.28116  1.0000
  H   H396      1.0  0.92286  0.32594  0.16134  1.0000
  H   H397      1.0  0.01168  0.46124  0.29391  1.0000
  C   C399      1.0  0.70640  0.02836  0.31584  1.0000
  H   H398      1.0  0.69740  0.27126  0.04511  1.0000
  C   C400      1.0  0.76582  0.46632  0.34580  1.0000
  H   H399      1.0  0.62472  0.07507  0.20958  1.0000
  H   H400      1.0  0.67720  0.06091  0.32362  1.0000
  C   C401      1.0  0.94265  0.32572  0.17277  1.0000
  C   C402      1.0  0.71539  0.44746  0.26866  1.0000
  C   C403      1.0  0.71159  0.45409  0.32939  1.0000
  C   C404      1.0  0.72081  0.43054  0.33452  1.0000
  H   H401      1.0  0.59872  0.16495  0.23630  1.0000
  H   H402      1.0  0.01035  0.32950  0.21432  1.0000
  C   C405      1.0  0.93202  0.44691  0.26829  1.0000
  C   C406      1.0  0.97430  0.47953  0.21904  1.0000
  H   H403      1.0  0.91934  0.48261  0.27811  1.0000
  S   S157      1.0  0.51436  0.36709  0.07520  1.0000
  H   H404      1.0  0.90324  0.29072  0.20444  1.0000
  C   C407      1.0  0.65497  0.12835  0.19624  1.0000
  S   S158      1.0  0.67673  0.02081  0.29726  1.0000
  C   C408      1.0  0.51733  0.09201  0.13758  1.0000
  H   H405      1.0  0.79984  0.12589  0.24816  1.0000
  C   C409      1.0  0.95985  0.31639  0.20475  1.0000
  C   C410      1.0  0.68097  0.25705  0.04978  1.0000
  H   H406      1.0  0.94388  0.50117  0.24923  1.0000
  C   C411      1.0  0.81811  0.26665  0.19068  1.0000
  C   C412      1.0  0.80971  0.24669  0.20135  1.0000
  C   C413      1.0  0.81402  0.22391  0.19336  1.0000
  C   C414      1.0  0.82793  0.22091  0.17489  1.0000
  C   C415      1.0  0.83717  0.24083  0.16440  1.0000
  C   C416      1.0  0.83176  0.26366  0.17215  1.0000
  H   H407      1.0  0.79912  0.24886  0.21570  1.0000
  H   H408      1.0  0.80665  0.20870  0.20155  1.0000
  H   H409      1.0  0.84778  0.23859  0.15007  1.0000
  H   H410      1.0  0.83818  0.27883  0.16373  1.0000
  C   C417      1.0  0.74145  0.33880  0.09650  1.0000
  C   C418      1.0  0.71637  0.32890  0.08432  1.0000
  C   C419      1.0  0.69709  0.34316  0.07089  1.0000
  C   C420      1.0  0.70338  0.36727  0.06932  1.0000
  C   C421      1.0  0.72939  0.37695  0.08105  1.0000
  C   C422      1.0  0.74798  0.36284  0.09482  1.0000
  H   H411      1.0  0.71143  0.31026  0.08547  1.0000
  H   H412      1.0  0.67758  0.33547  0.06167  1.0000
  H   H413      1.0  0.73460  0.39555  0.07978  1.0000
  H   H414      1.0  0.76762  0.37054  0.10397  1.0000
  C   C423      1.0  0.70260  0.39109  0.20186  1.0000
  C   C424      1.0  0.71323  0.36935  0.21033  1.0000
  C   C425      1.0  0.69764  0.36262  0.22759  1.0000
  C   C426      1.0  0.67178  0.37774  0.23659  1.0000
  C   C427      1.0  0.66068  0.39932  0.22799  1.0000
  C   C428      1.0  0.67600  0.40595  0.21057  1.0000
  H   H415      1.0  0.73378  0.35781  0.20372  1.0000
  H   H416      1.0  0.70620  0.34588  0.23419  1.0000
  H   H417      1.0  0.64040  0.41093  0.23474  1.0000
  H   H418      1.0  0.66758  0.42272  0.20399  1.0000
  H   H419      1.0  0.64046  0.35144  0.13330  1.0000
  Fe  Fe84      1.0  0.57299  0.05612  0.25667  1.0000
  C   C429      1.0  0.77491  0.44284  0.35111  1.0000
  C   C430      1.0  0.72344  0.05384  0.34194  1.0000
  H   H420      1.0  0.57166  0.03306  0.12789  1.0000
  H   H421      1.0  0.74373  0.43065  0.22420  1.0000
  C   C431      1.0  0.91416  0.37445  0.19698  1.0000
  C   C432      1.0  0.92390  0.38527  0.17991  1.0000
  H   H422      1.0  0.94201  0.02206  0.26644  1.0000
  H   H423      1.0  0.97912  0.34622  0.15645  1.0000
  N   N33       1.0  0.74357  0.25530  0.16151  1.0000
  C   C433      1.0  0.74425  0.23109  0.16030  1.0000
  C   C434      1.0  0.75513  0.26847  0.14649  1.0000
  C   C435      1.0  0.75778  0.21942  0.14397  1.0000
  C   C436      1.0  0.76907  0.25737  0.13000  1.0000
  C   C437      1.0  0.77063  0.23266  0.12884  1.0000
  C   C438      1.0  0.72901  0.26723  0.17868  1.0000
  H   H424      1.0  0.73558  0.22060  0.17228  1.0000
  H   H425      1.0  0.75443  0.28765  0.14731  1.0000
  H   H426      1.0  0.75986  0.20016  0.14343  1.0000
  H   H427      1.0  0.77913  0.26795  0.11839  1.0000
  H   H428      1.0  0.78240  0.22371  0.11643  1.0000
  H   H429      1.0  0.74214  0.28415  0.18126  1.0000
  H   H430      1.0  0.69957  0.27099  0.17714  1.0000
  H   H431      1.0  0.73441  0.25614  0.19165  1.0000
  H   H432      1.0  0.94966  0.41381  0.25493  1.0000
  N   N34       1.0  0.63804  0.22064  0.06079  1.0000
  C   C439      1.0  0.67284  0.21544  0.05524  1.0000
  C   C440      1.0  0.62430  0.24365  0.06110  1.0000
  C   C441      1.0  0.97454  0.33723  0.16989  1.0000
  C   C442      1.0  0.64557  0.26219  0.05564  1.0000
  S   S159      1.0  0.54149  0.19253  0.02999  1.0000
  C   C443      1.0  0.61547  0.20120  0.06600  1.0000
  H   H433      1.0  0.68362  0.19715  0.05494  1.0000
  H   H434      1.0  0.59643  0.24777  0.06498  1.0000
  C   C444      1.0  0.94735  0.43301  0.25362  1.0000
  C   C445      1.0  0.97455  0.03164  0.21094  1.0000
  C   C446      1.0  0.00478  0.49646  0.28193  1.0000
  H   H435      1.0  0.62761  0.19095  0.07823  1.0000
  H   H436      1.0  0.58761  0.20756  0.06987  1.0000
  H   H437      1.0  0.61333  0.18906  0.05366  1.0000
  S   S160      1.0  0.54370  0.38098  0.32961  1.0000
  C   C447      1.0  0.90145  0.30439  0.19296  1.0000
  N   N35       1.0  0.67056  0.37729  0.11962  1.0000
  C   C448      1.0  0.69216  0.38785  0.13254  1.0000
  C   C449      1.0  0.65605  0.38994  0.10449  1.0000
  C   C450      1.0  0.70082  0.41144  0.13011  1.0000
  C   C451      1.0  0.66447  0.41349  0.10149  1.0000
  C   C452      1.0  0.68709  0.42425  0.11438  1.0000
  C   C453      1.0  0.66211  0.35250  0.12247  1.0000
  H   H438      1.0  0.70308  0.37799  0.14476  1.0000
  H   H439      1.0  0.63900  0.38164  0.09415  1.0000
  H   H440      1.0  0.71822  0.41960  0.14037  1.0000
  H   H441      1.0  0.65421  0.42302  0.08894  1.0000
  H   H442      1.0  0.69409  0.44244  0.11214  1.0000
  H   H443      1.0  0.65334  0.34437  0.10889  1.0000
  H   H444      1.0  0.52387  0.01395  0.23884  1.0000
  C   C454      1.0  0.73045  0.11063  0.28660  1.0000
  H   H445      1.0  0.56006  0.15379  0.22415  1.0000
  H   H446      1.0  0.95752  0.11032  0.19221  1.0000
  C   C455      1.0  0.70016  0.04893  0.32673  1.0000
  S   S161      1.0  0.01334  0.08830  0.21552  1.0000
  C   C456      1.0  0.73430  0.47188  0.33508  1.0000
  H   H447      1.0  0.71300  0.42396  0.29270  1.0000
  N   N36       1.0  0.56471  0.06985  0.12097  1.0000
  C   C457      1.0  0.99196  0.32784  0.20239  1.0000
  C   C458      1.0  0.77392  0.09815  0.26330  1.0000
  C   C459      1.0  0.78027  0.12177  0.25900  1.0000
  H   H448      1.0  0.75897  0.40678  0.34943  1.0000
  H   H449      1.0  0.96382  0.40548  0.16597  1.0000
  S   S162      1.0  0.62721  0.06862  0.26501  1.0000
  C   C460      1.0  0.93009  0.47157  0.26652  1.0000
  Fe  Fe85      1.0  0.62603  0.04329  0.28972  1.0000
  N   N37       1.0  0.73289  0.40584  0.26777  1.0000
  H   H450      1.0  0.71070  0.10646  0.29734  1.0000
  C   C461      1.0  0.95604  0.39718  0.17918  1.0000
  C   C462      1.0  0.94450  0.04089  0.20091  1.0000
  H   H451      1.0  0.72080  0.14851  0.29008  1.0000
  H   H452      1.0  0.88684  0.04736  0.20144  1.0000
  H   H453      1.0  0.63590  0.16190  0.20783  1.0000
  C   C463      1.0  0.55654  0.04971  0.13059  1.0000
  H   H454      1.0  0.57806  0.13962  0.24560  1.0000
  H   H455      1.0  0.75673  0.06282  0.29497  1.0000
  H   H456      1.0  0.97134  0.47024  0.32197  1.0000
  H   H457      1.0  0.78909  0.08417  0.25565  1.0000
  H   H458      1.0  0.71487  0.38047  0.28762  1.0000
  C   C464      1.0  0.60153  0.46223  0.35150  1.0000
  H   H459      1.0  0.88001  0.02844  0.23300  1.0000
  S   S163      1.0  0.99895  0.38322  0.23179  1.0000
  H   H460      1.0  0.64841  0.43834  0.35206  1.0000
  C   C465      1.0  0.91024  0.03928  0.20875  1.0000
  C   C466      1.0  0.72015  0.42539  0.27773  1.0000
  S   S164      1.0  0.52266  0.46232  0.26087  1.0000
  H   H461      1.0  0.70452  0.46278  0.27658  1.0000
  C   C467      1.0  0.97878  0.39767  0.19528  1.0000
  H   H462      1.0  0.88036  0.31821  0.19698  1.0000
  N   N38       1.0  0.93586  0.31526  0.18996  1.0000
  C   C468      1.0  0.96990  0.02093  0.22876  1.0000
  H   H463      1.0  0.66929  0.09238  0.18773  1.0000
  C   C469      1.0  0.60559  0.10919  0.22064  1.0000
  H   H464      1.0  0.51661  0.03978  0.08475  1.0000
  C   C470      1.0  0.65219  0.10383  0.19681  1.0000
  C   C471      1.0  0.97616  0.48388  0.31155  1.0000
  H   H465      1.0  0.54160  0.27974  0.03081  1.0000
  C   C472      1.0  0.91191  0.08516  0.23706  1.0000
  H   H466      1.0  0.76338  0.38182  0.28562  1.0000
  C   C473      1.0  0.73760  0.38292  0.27760  1.0000
  H   H467      1.0  0.71339  0.06556  0.28325  1.0000
  C   C474      1.0  0.62734  0.09413  0.20907  1.0000
  H   H468      1.0  0.97343  0.43311  0.22629  1.0000
  N   N39       1.0  0.60886  0.13320  0.22019  1.0000
  H   H469      1.0  0.92965  0.36573  0.22595  1.0000
  C   C475      1.0  0.76112  0.14000  0.26867  1.0000
  H   H470      1.0  0.58617  0.10150  0.23005  1.0000
  H   H471      1.0  0.89270  0.29534  0.17979  1.0000
  H   H472      1.0  0.73720  0.36793  0.26730  1.0000
  C   C476      1.0  0.90660  0.02865  0.22669  1.0000
  C   C477      1.0  0.52817  0.05018  0.14376  1.0000
  H   H473      1.0  0.67425  0.13602  0.18673  1.0000
  C   C478      1.0  0.63297  0.14288  0.20809  1.0000
  N   N40       1.0  0.93626  0.01954  0.23639  1.0000
  H   H474      1.0  0.72228  0.22929  0.04503  1.0000
  N   N41       1.0  0.95865  0.46821  0.23573  1.0000
  H   H475      1.0  0.71917  0.46625  0.24193  1.0000
  C   C479      1.0  0.74242  0.40779  0.24896  1.0000
  C   C480      1.0  0.73647  0.01304  0.32008  1.0000
  C   C481      1.0  0.96078  0.44403  0.23740  1.0000
  H   H476      1.0  0.95757  0.49553  0.21463  1.0000
  C   C482      1.0  0.54585  0.09091  0.12451  1.0000
  H   H477      1.0  0.75283  0.39236  0.24107  1.0000
  C   C483      1.0  0.74265  0.06807  0.28144  1.0000
  H   H478      1.0  0.94792  0.05018  0.18749  1.0000
  C   C484      1.0  0.58516  0.14869  0.23208  1.0000
  C   C485      1.0  0.94488  0.10339  0.20481  1.0000
  C   C486      1.0  0.72371  0.44940  0.24928  1.0000
  H   H479      1.0  0.89924  0.07788  0.24950  1.0000
  S   S165      1.0  0.55897  0.05583  0.22503  1.0000
  C   C487      1.0  0.73757  0.42950  0.23936  1.0000
  H   H480      1.0  0.00178  0.48494  0.22263  1.0000
  C   C488      1.0  0.51799  0.43636  0.22742  1.0000
  C   C489      1.0  0.93690  0.37480  0.21298  1.0000
  H   H481      1.0  0.62038  0.06559  0.11421  1.0000
  C   C490      1.0  0.94384  0.48198  0.25009  1.0000
  C   C491      1.0  0.96951  0.38603  0.21209  1.0000
  H   H482      1.0  0.59017  0.05409  0.09654  1.0000
  H   H483      1.0  0.54990  0.48160  0.35138  1.0000
  C   C492      1.0  0.75221  0.42500  0.34538  1.0000
  N   N42       1.0  0.74890  0.09286  0.27680  1.0000
  C   C493      1.0  0.52395  0.03919  0.21574  1.0000
  H   H484      1.0  0.76513  0.15839  0.26507  1.0000
  Fe  Fe86      1.0  0.59257  0.32928  0.02306  1.0000
  H   H485      1.0  0.55208  0.10686  0.11680  1.0000
  H   H486      1.0  0.63425  0.28035  0.05526  1.0000
  C   C494      1.0  0.75315  0.03830  0.34644  1.0000
  H   H487      1.0  0.59466  0.08522  0.09829  1.0000
  C   C495      1.0  0.73625  0.13444  0.28269  1.0000
  H   H488      1.0  0.72743  0.49016  0.33124  1.0000
  S   S166      1.0  0.63102  0.15240  0.02418  1.0000
  S   S167      1.0  0.57447  0.02804  0.27954  1.0000
  C   C496      1.0  0.54201  0.24133  0.03045  1.0000
  H   H489      1.0  0.98164  0.02825  0.29948  1.0000
  H   H490      1.0  0.78289  0.48025  0.35012  1.0000
  H   H491      1.0  0.95388  0.30892  0.21861  1.0000
  H   H492      1.0  0.51557  0.24075  0.03683  1.0000
  H   H493      1.0  0.53902  0.42446  0.23328  1.0000
  S   S168      1.0  0.54733  0.07468  0.06149  1.0000
  H   H494      1.0  0.64481  0.39587  0.35204  1.0000
  H   H495      1.0  0.99339  0.01414  0.23666  1.0000
  C   C497      1.0  0.95934  0.50665  0.31372  1.0000
  H   H496      1.0  0.94453  0.01897  0.32821  1.0000
  H   H497      1.0  0.00137  0.03367  0.20527  1.0000
  H   H498      1.0  0.52357  0.08482  0.33918  1.0000
  C   C498      1.0  0.56420  0.46454  0.35367  1.0000
  C   C499      1.0  0.55666  0.26347  0.02701  1.0000
  C   C500      1.0  0.99900  0.47879  0.29565  1.0000
  C   C501      1.0  0.57222  0.02473  0.34471  1.0000
  H   H499      1.0  0.00406  0.40619  0.19441  1.0000
  H   H500      1.0  0.71816  0.06963  0.35048  1.0000
  H   H501      1.0  0.61656  0.47741  0.34746  1.0000
  H   H502      1.0  0.51860  0.12118  0.30398  1.0000
  H   H503      1.0  0.51759  0.06114  0.19061  1.0000
  N   N43       1.0  0.63451  0.01437  0.35158  1.0000
  C   C502      1.0  0.61943  0.43997  0.35393  1.0000
  S   S169      1.0  0.87847  0.46189  0.40385  1.0000
  S   S170      1.0  0.93716  0.49872  0.38713  1.0000
  Fe  Fe87      1.0  0.85701  0.46032  0.37357  1.0000
  Fe  Fe88      1.0  0.91220  0.49367  0.35829  1.0000
  Fe  Fe89      1.0  0.93335  0.45927  0.39017  1.0000
  S   S171      1.0  0.98482  0.43822  0.39817  1.0000
  C   C503      1.0  0.88331  0.38408  0.40329  1.0000
  S   S172      1.0  0.93942  0.07095  0.39944  1.0000
  C   C504      1.0  0.00427  0.08764  0.44359  1.0000
  H   H504      1.0  0.96805  0.32346  0.54723  1.0000
  C   C505      1.0  0.92885  0.07820  0.47229  1.0000
  C   C506      1.0  0.96532  0.34638  0.41725  1.0000
  C   C507      1.0  0.97266  0.04714  0.42965  1.0000
  H   H505      1.0  0.87713  0.03194  0.44456  1.0000
  H   H506      1.0  0.96018  0.03153  0.42458  1.0000
  H   H507      1.0  0.62701  0.39464  0.37611  1.0000
  Fe  Fe90      1.0  0.83313  0.02580  0.37587  1.0000
  C   C508      1.0  0.98800  0.41987  0.41859  1.0000
  C   C509      1.0  0.95760  0.41484  0.42928  1.0000
  C   C510      1.0  0.96058  0.39805  0.44417  1.0000
  H   H508      1.0  0.93167  0.42334  0.42571  1.0000
  C   C511      1.0  0.96757  0.06858  0.41974  1.0000
  H   H509      1.0  0.96494  0.04669  0.35767  1.0000
  C   C512      1.0  0.95474  0.37674  0.39245  1.0000
  C   C513      1.0  0.88909  0.06865  0.44652  1.0000
  S   S173      1.0  0.88575  0.03435  0.36230  1.0000
  C   C514      1.0  0.99173  0.04310  0.36443  1.0000
  H   H510      1.0  0.94868  0.04880  0.48943  1.0000
  S   S174      1.0  0.81381  0.43502  0.36514  1.0000
  H   H511      1.0  0.97896  0.50186  0.53557  1.0000
  C   C515      1.0  0.93237  0.39336  0.38258  1.0000
  S   S175      1.0  0.99594  0.36310  0.46533  1.0000
  C   C516      1.0  0.89146  0.04494  0.45249  1.0000
  N   N44       1.0  0.91249  0.03801  0.46776  1.0000
  H   H512      1.0  0.99353  0.35193  0.41777  1.0000
  Fe  Fe91      1.0  0.88087  0.50133  0.39887  1.0000
  C   C517      1.0  0.98407  0.08871  0.42653  1.0000
  C   C518      1.0  0.99305  0.04601  0.44656  1.0000
  H   H513      1.0  0.95702  0.34411  0.43241  1.0000
  C   C519      1.0  0.90643  0.36756  0.41284  1.0000
  S   S176      1.0  0.85566  0.49977  0.36947  1.0000
  C   C520      1.0  0.99403  0.38662  0.44870  1.0000
  C   C521      1.0  0.60293  0.02675  0.35605  1.0000
  H   H514      1.0  0.67019  0.03512  0.36742  1.0000
  H   H515      1.0  0.90755  0.10357  0.45153  1.0000
  C   C522      1.0  0.90806  0.08532  0.45646  1.0000
  C   C523      1.0  0.93091  0.05430  0.47774  1.0000
  H   H516      1.0  0.98025  0.10536  0.41890  1.0000
  H   H517      1.0  0.94312  0.40375  0.37107  1.0000
  C   C524      1.0  0.00817  0.06634  0.45383  1.0000
  H   H518      1.0  0.94485  0.09081  0.47970  1.0000
  H   H519      1.0  0.98284  0.37442  0.38836  1.0000
  H   H520      1.0  0.87881  0.40997  0.38060  1.0000
  H   H521      1.0  0.85544  0.38701  0.40769  1.0000
  H   H522      1.0  0.87368  0.07387  0.43386  1.0000
  S   S177      1.0  0.77959  0.04440  0.36675  1.0000
  N   N45       1.0  0.94172  0.36422  0.40746  1.0000
  S   S178      1.0  0.91207  0.45424  0.36042  1.0000
  H   H523      1.0  0.89612  0.35766  0.42476  1.0000
  C   C525      1.0  0.89643  0.39702  0.38806  1.0000
  N   N46       1.0  0.60063  0.42050  0.35821  1.0000
  H   H524      1.0  0.93683  0.39366  0.45205  1.0000
  Fe  Fe92      1.0  0.90607  0.03983  0.39218  1.0000
  H   H525      1.0  0.96474  0.32907  0.40981  1.0000
  S   S179      1.0  0.85236  0.03472  0.40539  1.0000
  C   C526      1.0  0.61987  0.39733  0.36081  1.0000
  H   H526      1.0  0.98867  0.03034  0.37637  1.0000
  H   H527      1.0  0.00034  0.05983  0.37092  1.0000
  H   H528      1.0  0.54925  0.40734  0.36447  1.0000
  H   H529      1.0  0.60139  0.03833  0.36841  1.0000
  H   H530      1.0  0.97427  0.36551  0.55684  1.0000
  H   H531      1.0  0.98775  0.47497  0.68271  1.0000
  C   C527      1.0  0.91598  0.01277  0.47282  1.0000
  H   H532      1.0  0.99604  0.02948  0.45440  1.0000
  C   C528      1.0  0.56415  0.42273  0.36087  1.0000
  C   C529      1.0  0.66595  0.01624  0.36406  1.0000
  C   C530      1.0  0.99352  0.32913  0.55264  1.0000
  C   C531      1.0  0.54533  0.44468  0.35843  1.0000
  C   C532      1.0  0.97355  0.49223  0.68411  1.0000
  C   C533      1.0  0.99697  0.35267  0.55805  1.0000
  H   H533      1.0  0.51623  0.44612  0.35992  1.0000
  H   H534      1.0  0.60300  0.38275  0.35610  1.0000
  H   H535      1.0  0.98764  0.50399  0.65589  1.0000
  C   C534      1.0  0.97387  0.50860  0.66916  1.0000
  H   H536      1.0  0.99058  0.04026  0.71258  1.0000
  H   H537      1.0  0.60708  0.10502  0.92315  1.0000
  H   H538      1.0  0.63111  0.34714  0.95246  1.0000
  S   S180      1.0  0.63022  0.49324  0.86980  1.0000
  C   C535      1.0  0.60797  0.35943  0.95644  1.0000
  H   H539      1.0  0.55399  0.29740  0.98569  1.0000
  Fe  Fe93      1.0  0.60570  0.49226  0.89940  1.0000
  S   S181      1.0  0.62758  0.46483  0.92130  1.0000
  C   C536      1.0  0.58481  0.15512  0.97423  1.0000
  Fe  Fe94      1.0  0.57427  0.50498  0.85973  1.0000
  Fe  Fe95      1.0  0.57191  0.38000  0.00869  1.0000
  S   S182      1.0  0.54935  0.40154  0.98308  1.0000
  H   H540      1.0  0.65426  0.43719  0.95329  1.0000
  C   C537      1.0  0.71002  0.47760  0.89727  1.0000
  H   H541      1.0  0.52212  0.43100  0.95219  1.0000
  H   H542      1.0  0.58467  0.17181  0.96580  1.0000
  C   C538      1.0  0.54571  0.12293  0.96576  1.0000
  H   H543      1.0  0.60714  0.31900  0.97621  1.0000
  C   C539      1.0  0.51611  0.32271  0.97247  1.0000
  H   H544      1.0  0.74993  0.50337  0.81869  1.0000
  C   C540      1.0  0.99309  0.02218  0.71780  1.0000
  H   H545      1.0  0.96775  0.03101  0.74472  1.0000
  S   S183      1.0  0.63986  0.10250  0.98505  1.0000
  C   C541      1.0  0.59750  0.04105  0.94962  1.0000
  C   C542      1.0  0.62895  0.05178  0.94425  1.0000
  C   C543      1.0  0.64230  0.07000  0.95561  1.0000
  C   C544      1.0  0.62446  0.07766  0.97245  1.0000
  C   C545      1.0  0.59355  0.06650  0.97807  1.0000
  C   C546      1.0  0.58011  0.04840  0.96667  1.0000
  H   H546      1.0  0.64269  0.04631  0.93122  1.0000
  H   H547      1.0  0.66633  0.07844  0.95118  1.0000
  H   H548      1.0  0.57960  0.07213  0.99099  1.0000
  H   H549      1.0  0.61211  0.15143  0.98043  1.0000
  C   C547      1.0  0.59531  0.22098  0.01738  1.0000
  H   H550      1.0  0.52267  0.49050  0.79331  1.0000
  S   S184      1.0  0.54914  0.50050  0.88876  1.0000
  H   H551      1.0  0.60243  0.37176  0.94423  1.0000
  H   H552      1.0  0.52893  0.12738  0.97805  1.0000
  S   S185      1.0  0.62441  0.35827  0.01016  1.0000
  C   C548      1.0  0.55890  0.09763  0.93856  1.0000
  H   H553      1.0  0.63583  0.24365  0.00693  1.0000
  C   C549      1.0  0.58912  0.11039  0.93477  1.0000
  H   H554      1.0  0.51405  0.09364  0.95750  1.0000
  N   N47       1.0  0.57547  0.13533  0.96195  1.0000
  S   S186      1.0  0.55877  0.12200  0.02006  1.0000
  C   C550      1.0  0.59714  0.12923  0.94672  1.0000
  H   H555      1.0  0.61565  0.37023  0.96890  1.0000
  C   C551      1.0  0.55054  0.31357  0.97731  1.0000
  H   H556      1.0  0.55579  0.04022  0.97098  1.0000
  S   S187      1.0  0.55415  0.49307  0.83078  1.0000
  C   C552      1.0  0.54262  0.35537  0.95650  1.0000
  C   C553      1.0  0.75369  0.49867  0.87949  1.0000
  H   H557      1.0  0.53917  0.37217  0.94895  1.0000
  H   H558      1.0  0.69485  0.46196  0.89956  1.0000
  C   C554      1.0  0.70383  0.49757  0.90888  1.0000
  H   H559      1.0  0.62151  0.13842  0.94419  1.0000
  N   N48       1.0  0.57632  0.34632  0.96135  1.0000
  H   H560      1.0  0.73943  0.46307  0.87305  1.0000
  C   C555      1.0  0.60488  0.44834  0.93888  1.0000
  C   C556      1.0  0.56749  0.44662  0.93880  1.0000
  C   C557      1.0  0.55099  0.43244  0.95256  1.0000
  C   C558      1.0  0.57149  0.42008  0.96672  1.0000
  C   C559      1.0  0.60879  0.42211  0.96697  1.0000
  C   C560      1.0  0.62535  0.43597  0.95304  1.0000
  H   H561      1.0  0.55139  0.45587  0.92795  1.0000
  C   C561      1.0  0.58053  0.32582  0.97179  1.0000
  H   H562      1.0  0.62497  0.41295  0.97785  1.0000
  C   C562      1.0  0.73500  0.47824  0.88243  1.0000
  Fe  Fe96      1.0  0.61781  0.11606  0.01374  1.0000
  H   H563      1.0  0.56572  0.15797  0.98636  1.0000
  H   H564      1.0  0.67917  0.01720  0.79304  1.0000
  H   H565      1.0  0.95622  0.48581  0.71282  1.0000
  S   S188      1.0  0.57726  0.01953  0.93522  1.0000
  H   H566      1.0  0.77250  0.49964  0.86768  1.0000
  H   H567      1.0  0.68380  0.49707  0.92012  1.0000
  C   C563      1.0  0.00462  0.50246  0.75199  1.0000
  H   H568      1.0  0.61038  0.20476  0.01352  1.0000
  C   C564      1.0  0.53697  0.10392  0.95413  1.0000
  S   S189      1.0  0.53934  0.34992  0.01948  1.0000
  C   C565      1.0  0.97986  0.01692  0.73596  1.0000
  H   H569      1.0  0.55326  0.08232  0.92988  1.0000
  C   C566      1.0  0.95572  0.49852  0.70114  1.0000
  C   C567      1.0  0.59049  0.26445  0.01842  1.0000
  S   S190      1.0  0.61030  0.29170  0.01350  1.0000
  H   H570      1.0  0.62617  0.02194  0.81482  1.0000
  C   C568      1.0  0.60962  0.24309  0.01357  1.0000
  H   H571      1.0  0.74159  0.99710  0.31170  1.0000
  C   C569      1.0  0.96554  0.52406  0.30004  1.0000
  C   C570      1.0  0.63639  0.99972  0.33600  1.0000
  H   H572      1.0  0.87792  0.55220  0.34197  1.0000
  C   C571      1.0  0.95606  0.98118  0.32627  1.0000
  H   H573      1.0  0.60831  0.98642  0.31157  1.0000
  H   H574      1.0  0.97192  0.94474  0.32020  1.0000
  H   H575      1.0  0.95280  0.54167  0.30154  1.0000
  S   S191      1.0  0.92973  0.51487  0.33274  1.0000
  C   C572      1.0  0.99385  0.96813  0.29957  1.0000
  C   C573      1.0  0.98800  0.51903  0.28435  1.0000
  H   H576      1.0  0.78252  0.00584  0.33863  1.0000
  H   H577      1.0  0.99224  0.53280  0.27393  1.0000
  C   C574      1.0  0.97374  0.96302  0.31576  1.0000
  C   C575      1.0  0.60630  0.99745  0.32427  1.0000
  H   H578      1.0  0.94932  0.99255  0.25696  1.0000
  H   H579      1.0  0.66149  0.99014  0.33221  1.0000
  H   H580      1.0  0.00717  0.95373  0.29161  1.0000
  C   C576      1.0  0.99737  0.99156  0.29375  1.0000
  C   C577      1.0  0.95841  0.00483  0.32025  1.0000
  S   S192      1.0  0.93322  0.97273  0.34713  1.0000
  H   H581      1.0  0.90434  0.00551  0.25889  1.0000
  H   H582      1.0  0.55043  0.00837  0.31974  1.0000
  H   H583      1.0  0.82001  0.57114  0.35344  1.0000
  C   C578      1.0  0.93259  0.00945  0.25559  1.0000
  C   C579      1.0  0.57399  0.00993  0.32875  1.0000
  C   C580      1.0  0.97944  0.01007  0.30404  1.0000
  Fe  Fe97      1.0  0.63990  0.85209  0.67758  1.0000
  C   C581      1.0  0.80501  0.56614  0.50041  1.0000
  H   H584      1.0  0.74829  0.89364  0.62934  1.0000
  S   S193      1.0  0.58307  0.57399  0.67441  1.0000
  H   H585      1.0  0.78584  0.89338  0.64509  1.0000
  Fe  Fe98      1.0  0.92744  0.62630  0.55127  1.0000
  S   S194      1.0  0.89159  0.59661  0.54507  1.0000
  H   H586      1.0  0.93173  0.83847  0.48113  1.0000
  Fe  Fe99      1.0  0.88833  0.66032  0.52310  1.0000
  S   S195      1.0  0.85084  0.63222  0.51406  1.0000
  S   S196      1.0  0.87630  0.69740  0.51068  1.0000
  Fe  Fe100     1.0  0.84682  0.62500  0.54560  1.0000
  S   S197      1.0  0.79012  0.62274  0.55680  1.0000
  Fe  Fe101     1.0  0.89907  0.60629  0.51410  1.0000
  S   S198      1.0  0.91884  0.57449  0.49580  1.0000
  S   S199      1.0  0.88188  0.65404  0.55456  1.0000
  S   S200      1.0  0.93713  0.63503  0.52035  1.0000
  S   S201      1.0  0.92608  0.00216  0.39680  1.0000
  C   C582      1.0  0.64565  0.70425  0.68144  1.0000
  Fe  Fe102     1.0  0.64512  0.64955  0.66066  1.0000
  S   S202      1.0  0.64532  0.61502  0.64468  1.0000
  S   S203      1.0  0.62618  0.68445  0.64756  1.0000
  C   C583      1.0  0.80495  0.78454  0.55522  1.0000
  C   C584      1.0  0.86159  0.75283  0.56514  1.0000
  Fe  Fe103     1.0  0.70151  0.60870  0.65620  1.0000
  S   S204      1.0  0.75477  0.59679  0.64273  1.0000
  S   S205      1.0  0.70237  0.64438  0.66984  1.0000
  C   C585      1.0  0.80600  0.90668  0.58247  1.0000
  C   C586      1.0  0.93385  0.56372  0.39984  1.0000
  H   H587      1.0  0.98927  0.79123  0.50473  1.0000
  S   S206      1.0  0.66726  0.82177  0.66099  1.0000
  H   H588      1.0  0.86095  0.90878  0.57322  1.0000
  Fe  Fe104     1.0  0.71831  0.84055  0.66629  1.0000
  S   S207      1.0  0.76870  0.84393  0.64853  1.0000
  C   C587      1.0  0.54041  0.62007  0.64899  1.0000
  C   C588      1.0  0.77276  0.90321  0.63289  1.0000
  H   H589      1.0  0.88417  0.74067  0.56882  1.0000
  Fe  Fe105     1.0  0.87108  0.99620  0.40858  1.0000
  N   N49       1.0  0.83144  0.74470  0.55671  1.0000
  S   S208      1.0  0.86393  0.98282  0.43930  1.0000
  H   H590      1.0  0.95984  0.56304  0.39199  1.0000
  C   C589      1.0  0.83304  0.55365  0.50996  1.0000
  H   H591      1.0  0.79504  0.90686  0.56806  1.0000
  S   S209      1.0  0.84760  0.98677  0.37992  1.0000
  H   H592      1.0  0.76452  0.92150  0.63754  1.0000
  Fe  Fe106     1.0  0.90992  0.88270  0.54827  1.0000
  S   S210      1.0  0.85735  0.89209  0.53330  1.0000
  S   S211      1.0  0.93427  0.91413  0.56249  1.0000
  Fe  Fe107     1.0  0.90975  0.83063  0.53555  1.0000
  S   S212      1.0  0.85792  0.83670  0.51961  1.0000
  S   S213      1.0  0.93922  0.79436  0.53820  1.0000
  Fe  Fe108     1.0  0.88070  0.87057  0.50891  1.0000
  S   S214      1.0  0.88064  0.87924  0.47701  1.0000
  Fe  Fe109     1.0  0.84005  0.85767  0.54559  1.0000
  S   S215      1.0  0.78503  0.85291  0.55853  1.0000
  S   S216      1.0  0.93436  0.86289  0.52315  1.0000
  S   S217      1.0  0.89091  0.84985  0.56221  1.0000
  N   N50       1.0  0.77929  0.66702  0.67395  1.0000
  C   C590      1.0  0.95818  0.91292  0.58426  1.0000
  C   C591      1.0  0.96944  0.93417  0.59203  1.0000
  H   H593      1.0  0.57911  0.64593  0.64250  1.0000
  H   H594      1.0  0.82619  0.65219  0.66017  1.0000
  H   H595      1.0  0.94489  0.54750  0.59988  1.0000
  H   H596      1.0  0.77949  0.56855  0.56747  1.0000
  H   H597      1.0  0.96169  0.95087  0.58514  1.0000
  C   C592      1.0  0.84113  0.57933  0.38124  1.0000
  C   C593      1.0  0.51917  0.88624  0.68180  1.0000
  C   C594      1.0  0.77705  0.57522  0.53086  1.0000
  H   H598      1.0  0.88897  0.00605  0.47567  1.0000
  C   C595      1.0  0.86940  0.95380  0.44934  1.0000
  C   C596      1.0  0.86535  0.95105  0.46924  1.0000
  C   C597      1.0  0.86915  0.92846  0.47794  1.0000
  C   C598      1.0  0.87671  0.90823  0.46679  1.0000
  C   C599      1.0  0.88080  0.91096  0.44690  1.0000
  C   C600      1.0  0.87734  0.93360  0.43822  1.0000
  H   H599      1.0  0.85888  0.96645  0.47800  1.0000
  H   H600      1.0  0.86574  0.92669  0.49322  1.0000
  H   H601      1.0  0.88657  0.89548  0.43811  1.0000
  H   H602      1.0  0.88044  0.93538  0.42291  1.0000
  C   C601      1.0  0.77203  0.84430  0.62339  1.0000
  C   C602      1.0  0.80638  0.84522  0.61529  1.0000
  C   C603      1.0  0.81060  0.84746  0.59546  1.0000
  C   C604      1.0  0.78050  0.84876  0.58346  1.0000
  C   C605      1.0  0.74606  0.84751  0.59152  1.0000
  C   C606      1.0  0.74178  0.84533  0.61147  1.0000
  H   H603      1.0  0.82987  0.84456  0.62446  1.0000
  H   H604      1.0  0.83716  0.84864  0.58959  1.0000
  H   H605      1.0  0.72259  0.84854  0.58234  1.0000
  H   H606      1.0  0.71515  0.84476  0.61761  1.0000
  C   C607      1.0  0.63841  0.70809  0.66204  1.0000
  C   C608      1.0  0.64100  0.73086  0.65426  1.0000
  C   C609      1.0  0.65126  0.74967  0.66586  1.0000
  H   H607      1.0  0.85488  0.54304  0.53727  1.0000
  C   C610      1.0  0.96054  0.97393  0.67340  1.0000
  H   H608      1.0  0.94359  0.53502  0.47252  1.0000
  H   H609      1.0  0.63562  0.73383  0.63921  1.0000
  H   H610      1.0  0.65404  0.76705  0.65971  1.0000
  H   H611      1.0  0.77919  0.75371  0.54536  1.0000
  H   H612      1.0  0.81056  0.71158  0.56395  1.0000
  C   C611      1.0  0.89353  0.72402  0.51924  1.0000
  C   C612      1.0  0.92506  0.72411  0.53013  1.0000
  C   C613      1.0  0.93869  0.74579  0.53586  1.0000
  C   C614      1.0  0.92049  0.76754  0.53118  1.0000
  C   C615      1.0  0.88834  0.76740  0.52081  1.0000
  C   C616      1.0  0.87523  0.74577  0.51466  1.0000
  H   H613      1.0  0.93945  0.70749  0.53374  1.0000
  H   H614      1.0  0.96355  0.74569  0.54393  1.0000
  H   H615      1.0  0.87394  0.78396  0.51718  1.0000
  H   H616      1.0  0.85073  0.74586  0.50630  1.0000
  C   C617      1.0  0.78138  0.61760  0.58120  1.0000
  C   C618      1.0  0.80884  0.61004  0.59384  1.0000
  C   C619      1.0  0.80037  0.60387  0.61275  1.0000
  C   C620      1.0  0.76459  0.60577  0.61923  1.0000
  C   C621      1.0  0.73733  0.61407  0.60676  1.0000
  C   C622      1.0  0.74568  0.61970  0.58773  1.0000
  H   H617      1.0  0.83647  0.60844  0.58897  1.0000
  H   H618      1.0  0.82158  0.59747  0.62237  1.0000
  H   H619      1.0  0.70969  0.61556  0.61162  1.0000
  H   H620      1.0  0.72431  0.62553  0.57801  1.0000
  C   C623      1.0  0.90255  0.56354  0.47374  1.0000
  C   C624      1.0  0.92003  0.54322  0.46558  1.0000
  C   C625      1.0  0.90717  0.53322  0.44858  1.0000
  C   C626      1.0  0.87633  0.54330  0.43962  1.0000
  C   C627      1.0  0.85898  0.56373  0.44771  1.0000
  C   C628      1.0  0.87213  0.57391  0.46457  1.0000
  H   H621      1.0  0.55424  0.60597  0.64083  1.0000
  N   N51       1.0  0.00297  0.55858  0.53973  1.0000
  H   H622      1.0  0.83511  0.57169  0.44090  1.0000
  H   H623      1.0  0.85859  0.58965  0.47056  1.0000
  H   H624      1.0  0.76020  0.68756  0.64996  1.0000
  C   C629      1.0  0.96502  0.56052  0.59861  1.0000
  C   C630      1.0  0.95808  0.58066  0.58708  1.0000
  H   H625      1.0  0.72781  0.71826  0.66974  1.0000
  N   N52       1.0  0.80464  0.56286  0.54011  1.0000
  S   S218      1.0  0.85835  0.53128  0.41836  1.0000
  C   C631      1.0  0.82869  0.71924  0.55327  1.0000
  H   H626      1.0  0.93275  0.58311  0.57961  1.0000
  H   H627      1.0  0.75530  0.58732  0.50368  1.0000
  C   C632      1.0  0.55470  0.64232  0.65019  1.0000
  N   N53       1.0  0.94550  0.80172  0.48613  1.0000
  C   C633      1.0  0.93595  0.77889  0.48353  1.0000
  C   C634      1.0  0.92398  0.82034  0.47936  1.0000
  C   C635      1.0  0.90365  0.77427  0.47434  1.0000
  C   C636      1.0  0.89148  0.81637  0.47015  1.0000
  S   S219      1.0  0.00517  0.53117  0.62237  1.0000
  H   H628      1.0  0.80982  0.54273  0.56585  1.0000
  H   H629      1.0  0.89583  0.75614  0.47273  1.0000
  C   C637      1.0  0.97980  0.80629  0.49537  1.0000
  C   C638      1.0  0.99182  0.93393  0.60821  1.0000
  C   C639      1.0  0.90564  0.55792  0.36858  1.0000
  H   H630      1.0  0.95285  0.76409  0.48898  1.0000
  C   C640      1.0  0.99581  0.58194  0.53094  1.0000
  H   H631      1.0  0.87433  0.83126  0.46501  1.0000
  H   H632      1.0  0.79576  0.63070  0.66895  1.0000
  N   N54       1.0  0.79710  0.90391  0.61643  1.0000
  C   C641      1.0  0.83343  0.90458  0.61935  1.0000
  C   C642      1.0  0.85695  0.90627  0.60384  1.0000
  H   H633      1.0  0.78269  0.79693  0.55135  1.0000
  H   H634      1.0  0.84441  0.90362  0.63372  1.0000
  H   H635      1.0  0.88581  0.90666  0.60608  1.0000
  H   H636      1.0  0.85594  0.78992  0.46072  1.0000
  H   H637      1.0  0.75454  0.90413  0.59591  1.0000
  S   S220      1.0  0.68310  0.59057  0.68285  1.0000
  H   H638      1.0  0.92080  0.51750  0.44259  1.0000
  S   S221      1.0  0.58728  0.87210  0.67009  1.0000
  H   H639      1.0  0.52112  0.54713  0.68187  1.0000
  C   C643      1.0  0.74296  0.70350  0.67650  1.0000
  H   H640      1.0  0.69114  0.00895  0.35715  1.0000
  S   S222      1.0  0.68994  0.87239  0.68000  1.0000
  H   H641      1.0  0.97665  0.82205  0.50485  1.0000
  H   H642      1.0  0.54927  0.67709  0.66271  1.0000
  H   H643      1.0  0.83748  0.81181  0.56604  1.0000
  C   C644      1.0  0.79747  0.64848  0.66218  1.0000
  H   H644      1.0  0.93420  0.57848  0.41032  1.0000
  C   C645      1.0  0.88124  0.79318  0.46771  1.0000
  C   C646      1.0  0.98378  0.59767  0.58547  1.0000
  C   C647      1.0  0.87594  0.55964  0.35626  1.0000
  H   H645      1.0  0.00055  0.80935  0.48439  1.0000
  H   H646      1.0  0.81819  0.71613  0.53863  1.0000
  C   C648      1.0  0.77689  0.57713  0.51090  1.0000
  C   C649      1.0  0.84302  0.90742  0.58533  1.0000
  H   H647      1.0  0.99835  0.87449  0.61640  1.0000
  Fe  Fe110     1.0  0.90158  0.99615  0.36794  1.0000
  C   C650      1.0  0.52949  0.81989  0.66768  1.0000
  Fe  Fe111     1.0  0.62675  0.60043  0.67290  1.0000
  H   H648      1.0  0.96766  0.91406  0.67880  1.0000
  H   H649      1.0  0.85530  0.54533  0.50194  1.0000
  C   C651      1.0  0.96804  0.89141  0.59329  1.0000
  C   C652      1.0  0.83257  0.55233  0.52993  1.0000
  H   H650      1.0  0.66218  0.00635  0.37758  1.0000
  H   H651      1.0  0.60985  0.79211  0.67961  1.0000
  N   N55       1.0  0.90320  0.56696  0.38671  1.0000
  H   H652      1.0  0.58245  0.81951  0.65501  1.0000
  H   H653      1.0  0.75537  0.58417  0.53892  1.0000
  C   C653      1.0  0.58147  0.79756  0.68026  1.0000
  C   C654      1.0  0.86432  0.77709  0.56855  1.0000
  C   C655      1.0  0.76137  0.68610  0.66542  1.0000
  H   H654      1.0  0.85541  0.70938  0.55405  1.0000
  H   H655      1.0  0.80529  0.56748  0.48493  1.0000
  C   C656      1.0  0.83576  0.79297  0.56355  1.0000
  H   H656      1.0  0.88876  0.78360  0.57462  1.0000
  C   C657      1.0  0.87148  0.57758  0.39309  1.0000
  C   C658      1.0  0.80523  0.56141  0.56105  1.0000
  H   H657      1.0  0.82698  0.57213  0.56673  1.0000
  C   C659      1.0  0.80320  0.76017  0.55190  1.0000
  C   C660      1.0  0.78325  0.90506  0.59829  1.0000
  H   H658      1.0  0.86908  0.58380  0.40773  1.0000
  H   H659      1.0  0.95948  0.87493  0.58740  1.0000
  H   H660      1.0  0.96937  0.98793  0.66414  1.0000
  H   H661      1.0  0.51796  0.83219  0.65710  1.0000
  H   H662      1.0  0.51870  0.89786  0.66946  1.0000
  C   C661      1.0  0.99013  0.89120  0.60966  1.0000
  S   S223      1.0  0.97673  0.62255  0.57032  1.0000
  C   C662      1.0  0.56604  0.81276  0.66640  1.0000
  H   H663      1.0  0.97085  0.59038  0.53713  1.0000
  H   H664      1.0  0.78433  0.64712  0.64794  1.0000
  C   C663      1.0  0.98657  0.53938  0.53258  1.0000
  H   H665      1.0  0.96933  0.54129  0.52005  1.0000
  H   H666      1.0  0.01073  0.99764  0.35715  1.0000
  H   H667      1.0  0.93181  0.54686  0.40790  1.0000
  H   H668      1.0  0.00105  0.95036  0.61375  1.0000
  C   C664      1.0  0.55021  0.87185  0.68586  1.0000
  C   C665      1.0  0.99170  0.51712  0.54136  1.0000
  H   H669      1.0  0.81577  0.58706  0.38661  1.0000
  H   H670      1.0  0.99230  0.58053  0.51519  1.0000
  C   C666      1.0  0.97058  0.95026  0.66948  1.0000
  C   C667      1.0  0.99781  0.55706  0.60845  1.0000
  C   C668      1.0  0.00272  0.91240  0.61690  1.0000
  H   H671      1.0  0.92811  0.00243  0.46067  1.0000
  H   H672      1.0  0.98680  0.94568  0.65698  1.0000
  C   C669      1.0  0.95989  0.93251  0.68180  1.0000
  H   H673      1.0  0.93313  0.00935  0.48563  1.0000
  C   C670      1.0  0.53771  0.65990  0.66149  1.0000
  H   H674      1.0  0.93047  0.54895  0.36361  1.0000
  H   H675      1.0  0.95676  0.54373  0.65968  1.0000
  C   C671      1.0  0.95651  0.53097  0.67134  1.0000
  C   C672      1.0  0.65796  0.74580  0.68535  1.0000
  C   C673      1.0  0.84346  0.57029  0.36270  1.0000
  C   C674      1.0  0.01315  0.51473  0.55773  1.0000
  H   H676      1.0  0.88117  0.96391  0.71734  1.0000
  S   S224      1.0  0.58294  0.54362  0.86331  1.0000
  S   S225      1.0  0.67043  0.76858  0.70065  1.0000
  S   S226      1.0  0.93540  0.57349  0.76492  1.0000
  Fe  Fe112     1.0  0.86023  0.54690  0.79632  1.0000
  S   S227      1.0  0.85614  0.58455  0.78556  1.0000
  Fe  Fe113     1.0  0.56179  0.53869  0.89306  1.0000
  Fe  Fe114     1.0  0.87745  0.56932  0.75790  1.0000
  S   S228      1.0  0.85702  0.57623  0.72801  1.0000
  Fe  Fe115     1.0  0.91485  0.58530  0.79370  1.0000
  S   S229      1.0  0.94288  0.61721  0.80416  1.0000
  C   C675      1.0  0.63195  0.98596  0.82504  1.0000
  S   S230      1.0  0.91767  0.54879  0.80668  1.0000
  S   S231      1.0  0.70693  0.63368  0.72390  1.0000
  S   S232      1.0  0.62093  0.96148  0.91044  1.0000
  C   C676      1.0  0.71390  0.53883  0.91741  1.0000
  S   S233      1.0  0.64678  0.83453  0.70606  1.0000
  Fe  Fe116     1.0  0.87760  0.93062  0.76083  1.0000
  S   S234      1.0  0.87229  0.96969  0.76606  1.0000
  S   S235      1.0  0.86330  0.91524  0.73237  1.0000
  Fe  Fe117     1.0  0.91572  0.92048  0.79861  1.0000
  S   S236      1.0  0.91336  0.95901  0.80696  1.0000
  S   S237      1.0  0.94136  0.88901  0.81461  1.0000
  Fe  Fe118     1.0  0.85605  0.95988  0.79605  1.0000
  C   C677      1.0  0.99983  0.97574  0.73186  1.0000
  Fe  Fe119     1.0  0.92937  0.96511  0.77628  1.0000
  Fe  Fe120     1.0  0.69847  0.85264  0.70751  1.0000
  S   S238      1.0  0.85734  0.92076  0.78983  1.0000
  S   S239      1.0  0.93574  0.92666  0.76894  1.0000
  H   H677      1.0  0.73852  0.54856  0.92012  1.0000
  H   H678      1.0  0.79879  0.56780  0.83395  1.0000
  S   S240      1.0  0.59284  0.95113  0.86688  1.0000
  C   C678      1.0  0.72502  0.98381  0.84633  1.0000
  S   S241      1.0  0.69457  0.95147  0.87076  1.0000
  H   H679      1.0  0.54876  0.93920  0.79547  1.0000
  H   H680      1.0  0.57246  0.77788  0.70599  1.0000
  C   C679      1.0  0.93950  0.93876  0.69805  1.0000
  C   C680      1.0  0.57729  0.92375  0.95378  1.0000
  C   C681      1.0  0.52018  0.98656  0.82277  1.0000
  C   C682      1.0  0.54007  0.96587  0.81736  1.0000
  H   H681      1.0  0.92095  0.95778  0.73171  1.0000
  H   H682      1.0  0.70333  0.99637  0.85037  1.0000
  H   H683      1.0  0.55942  0.98024  0.96746  1.0000
  C   C683      1.0  0.51901  0.56283  0.69076  1.0000
  C   C684      1.0  0.77853  0.97379  0.82684  1.0000
  C   C685      1.0  0.72753  0.96125  0.85467  1.0000
  C   C686      1.0  0.75630  0.94531  0.84947  1.0000
  C   C687      1.0  0.78159  0.95147  0.83557  1.0000
  H   H684      1.0  0.75869  0.92790  0.85600  1.0000
  H   H685      1.0  0.80319  0.93887  0.83146  1.0000
  Fe  Fe121     1.0  0.64007  0.96799  0.88028  1.0000
  H   H686      1.0  0.63411  0.87059  0.74458  1.0000
  H   H687      1.0  0.89155  0.52642  0.71957  1.0000
  C   C688      1.0  0.65208  0.96432  0.82379  1.0000
  C   C689      1.0  0.53234  0.95460  0.79999  1.0000
  C   C690      1.0  0.75225  0.88506  0.73330  1.0000
  C   C691      1.0  0.76301  0.89937  0.74835  1.0000
  C   C692      1.0  0.79665  0.90938  0.74781  1.0000
  C   C693      1.0  0.81973  0.90490  0.73229  1.0000
  C   C694      1.0  0.80871  0.89095  0.71707  1.0000
  C   C695      1.0  0.77496  0.88104  0.71755  1.0000
  H   H688      1.0  0.74538  0.90266  0.76046  1.0000
  H   H689      1.0  0.80471  0.92048  0.75943  1.0000
  H   H690      1.0  0.82646  0.88747  0.70502  1.0000
  H   H691      1.0  0.76674  0.87005  0.70585  1.0000
  H   H692      1.0  0.56469  0.56014  0.93672  1.0000
  C   C696      1.0  0.81730  0.59446  0.72649  1.0000
  C   C697      1.0  0.80401  0.60726  0.74233  1.0000
  C   C698      1.0  0.77067  0.62011  0.74128  1.0000
  C   C699      1.0  0.75044  0.62004  0.72441  1.0000
  C   C700      1.0  0.76444  0.60808  0.70831  1.0000
  C   C701      1.0  0.79788  0.59539  0.70933  1.0000
  H   H693      1.0  0.81929  0.60725  0.75541  1.0000
  H   H694      1.0  0.76017  0.62961  0.75368  1.0000
  H   H695      1.0  0.52045  0.52042  0.93120  1.0000
  H   H696      1.0  0.59177  0.91836  0.70137  1.0000
  N   N56       1.0  0.54014  0.55202  0.79275  1.0000
  C   C702      1.0  0.72064  0.54572  0.85065  1.0000
  C   C703      1.0  0.58852  0.90959  0.71503  1.0000
  H   H697      1.0  0.87841  0.86218  0.73417  1.0000
  C   C704      1.0  0.92114  0.52723  0.72129  1.0000
  C   C705      1.0  0.97480  0.61315  0.82260  1.0000
  H   H698      1.0  0.74946  0.60836  0.69508  1.0000
  H   H699      1.0  0.52838  0.90463  0.75045  1.0000
  C   C706      1.0  0.64155  0.00506  0.81385  1.0000
  C   C707      1.0  0.97033  0.59658  0.83715  1.0000
  Fe  Fe122     1.0  0.63725  0.53185  0.87506  1.0000
  C   C708      1.0  0.51935  0.85548  0.71309  1.0000
  H   H700      1.0  0.94713  0.58586  0.83705  1.0000
  C   C709      1.0  0.74879  0.56113  0.84837  1.0000
  C   C710      1.0  0.77723  0.55584  0.83543  1.0000
  H   H701      1.0  0.74876  0.57721  0.85677  1.0000
  C   C711      1.0  0.93914  0.53675  0.68862  1.0000
  H   H702      1.0  0.52964  0.94683  0.72588  1.0000
  H   H703      1.0  0.99093  0.58232  0.86390  1.0000
  C   C712      1.0  0.56036  0.78961  0.69515  1.0000
  C   C713      1.0  0.76222  0.68213  0.70496  1.0000
  C   C714      1.0  0.54375  0.59895  0.70198  1.0000
  H   H704      1.0  0.58974  0.55936  0.80595  1.0000
  S   S242      1.0  0.71089  0.87177  0.73465  1.0000
  S   S243      1.0  0.81327  0.52698  0.80840  1.0000
  C   C715      1.0  0.90977  0.96811  0.71931  1.0000
  H   H705      1.0  0.79530  0.65032  0.70025  1.0000
  S   S244      1.0  0.87831  0.53164  0.76788  1.0000
  C   C716      1.0  0.78062  0.66521  0.69346  1.0000
  S   S245      1.0  0.54183  0.98300  0.89628  1.0000
  C   C717      1.0  0.61659  0.89435  0.72188  1.0000
  N   N57       1.0  0.87022  0.85924  0.76439  1.0000
  C   C718      1.0  0.83399  0.85710  0.76217  1.0000
  C   C719      1.0  0.88486  0.86074  0.78227  1.0000
  C   C720      1.0  0.81121  0.85732  0.77809  1.0000
  C   C721      1.0  0.86294  0.86082  0.79852  1.0000
  C   C722      1.0  0.82584  0.85930  0.79637  1.0000
  N   N58       1.0  0.74842  0.56874  0.76868  1.0000
  C   C723      1.0  0.99909  0.91489  0.82475  1.0000
  C   C724      1.0  0.52527  0.91635  0.98120  1.0000
  H   H706      1.0  0.78238  0.85628  0.77615  1.0000
  H   H707      1.0  0.87473  0.86268  0.81263  1.0000
  H   H708      1.0  0.80851  0.85985  0.80885  1.0000
  C   C725      1.0  0.00627  0.53303  0.82745  1.0000
  C   C726      1.0  0.74700  0.55473  0.73059  1.0000
  H   H709      1.0  0.99495  0.85525  0.82991  1.0000
  S   S246      1.0  0.61481  0.00540  0.87906  1.0000
  H   H710      1.0  0.57177  0.54048  0.76873  1.0000
  Fe  Fe123     1.0  0.68084  0.62691  0.69564  1.0000
  C   C727      1.0  0.53363  0.93930  0.97587  1.0000
  H   H711      1.0  0.58177  0.52808  0.80335  1.0000
  H   H712      1.0  0.71393  0.97859  0.79135  1.0000
  N   N59       1.0  0.55967  0.94273  0.96249  1.0000
  C   C728      1.0  0.56688  0.96682  0.95633  1.0000
  C   C729      1.0  0.77795  0.53493  0.82471  1.0000
  H   H713      1.0  0.82231  0.85567  0.74802  1.0000
  N   N60       1.0  0.55722  0.91296  0.72520  1.0000
  C   C730      1.0  0.58053  0.88615  0.74951  1.0000
  C   C731      1.0  0.55310  0.90167  0.74231  1.0000
  H   H714      1.0  0.93116  0.92493  0.70763  1.0000
  H   H715      1.0  0.69410  0.55083  0.90965  1.0000
  C   C732      1.0  0.70123  0.93884  0.81026  1.0000
  H   H716      1.0  0.53032  0.93260  0.70262  1.0000
  C   C733      1.0  0.69053  0.98043  0.80063  1.0000
  H   H717      1.0  0.58278  0.88563  0.95133  1.0000
  Fe  Fe124     1.0  0.59217  0.99768  0.90841  1.0000
  H   H718      1.0  0.68900  0.92786  0.79912  1.0000
  H   H719      1.0  0.77665  0.57463  0.79471  1.0000
  N   N61       1.0  0.72224  0.51754  0.90589  1.0000
  C   C734      1.0  0.61247  0.88252  0.73920  1.0000
  Fe  Fe125     1.0  0.93485  0.53712  0.77710  1.0000
  H   H720      1.0  0.59657  0.92645  0.94245  1.0000
  C   C735      1.0  0.67109  0.00236  0.80159  1.0000
  H   H721      1.0  0.65970  0.72008  0.70819  1.0000
  C   C736      1.0  0.54053  0.57060  0.94056  1.0000
  H   H722      1.0  0.74819  0.00746  0.82601  1.0000
  S   S247      1.0  0.68680  0.55253  0.86807  1.0000
  H   H723      1.0  0.56198  0.95891  0.82624  1.0000
  H   H724      1.0  0.72877  0.71463  0.70512  1.0000
  H   H725      1.0  0.92562  0.55418  0.69029  1.0000
  H   H726      1.0  0.91214  0.87429  0.74875  1.0000
  S   S248      1.0  0.80733  0.98164  0.80792  1.0000
  C   C737      1.0  0.74883  0.57588  0.78882  1.0000
  C   C738      1.0  0.98499  0.89249  0.82381  1.0000
  H   H727      1.0  0.70138  0.92922  0.82417  1.0000
  H   H728      1.0  0.91362  0.86234  0.78405  1.0000
  Fe  Fe126     1.0  0.56651  0.98765  0.86740  1.0000
  C   C739      1.0  0.71982  0.57022  0.73782  1.0000
  H   H729      1.0  0.00810  0.64013  0.81175  1.0000
  H   H730      1.0  0.91100  0.98716  0.72314  1.0000
  S   S249      1.0  0.97297  0.98922  0.76742  1.0000
  C   C740      1.0  0.98321  0.99379  0.74314  1.0000
  H   H731      1.0  0.99586  0.52354  0.81482  1.0000
  H   H732      1.0  0.57378  0.84546  0.70503  1.0000
  H   H733      1.0  0.98338  0.93031  0.81962  1.0000
  C   C741      1.0  0.56960  0.90057  0.95875  1.0000
  C   C742      1.0  0.56906  0.54597  0.80647  1.0000
  H   H734      1.0  0.76204  0.68001  0.72039  1.0000
  C   C743      1.0  0.72100  0.57714  0.75701  1.0000
  H   H735      1.0  0.70037  0.58980  0.76231  1.0000
  N   N62       1.0  0.68107  0.96183  0.81177  1.0000
  H   H736      1.0  0.64493  0.94967  0.83284  1.0000
  C   C744      1.0  0.75049  0.99004  0.83253  1.0000
  C   C745      1.0  0.01084  0.00453  0.70674  1.0000
  C   C746      1.0  0.53562  0.57883  0.95946  1.0000
  H   H737      1.0  0.57703  0.87708  0.76300  1.0000
  C   C747      1.0  0.77459  0.54601  0.74265  1.0000
  Fe  Fe127     1.0  0.57186  0.94765  0.89674  1.0000
  H   H738      1.0  0.52375  0.55116  0.74505  1.0000
  H   H739      1.0  0.79611  0.54610  0.77112  1.0000
  H   H740      1.0  0.69880  0.57766  0.72843  1.0000
  H   H741      1.0  0.60919  0.98804  0.83470  1.0000
  S   S250      1.0  0.53042  0.00251  0.84365  1.0000
  H   H742      1.0  0.55132  0.97147  0.94315  1.0000
  H   H743      1.0  0.70228  0.53431  0.93151  1.0000
  N   N63       1.0  0.93940  0.52070  0.70333  1.0000
  S   S251      1.0  0.54821  0.91310  0.90543  1.0000
  H   H744      1.0  0.56486  0.61124  0.70203  1.0000
  Fe  Fe128     1.0  0.67780  0.80574  0.69010  1.0000
  H   H745      1.0  0.73847  0.59460  0.79057  1.0000
  H   H746      1.0  0.55616  0.57472  0.97011  1.0000
  H   H747      1.0  0.93323  0.99807  0.69290  1.0000
  H   H748      1.0  0.79629  0.53434  0.73712  1.0000
  C   C748      1.0  0.89393  0.85938  0.74767  1.0000
  H   H749      1.0  0.98323  0.54203  0.83513  1.0000
  C   C749      1.0  0.99501  0.59469  0.85237  1.0000
  H   H750      1.0  0.72989  0.94118  0.80653  1.0000
  C   C750      1.0  0.65481  0.72313  0.69310  1.0000
  H   H751      1.0  0.73219  0.56409  0.79743  1.0000
  C   C751      1.0  0.74334  0.70141  0.69639  1.0000
  C   C752      1.0  0.77464  0.55302  0.76183  1.0000
  C   C753      1.0  0.55039  0.85683  0.70181  1.0000
  C   C754      1.0  0.54612  0.54827  0.77365  1.0000
  N   N64       1.0  0.93047  0.96207  0.70199  1.0000
  H   H752      1.0  0.59596  0.96842  0.95324  1.0000
  H   H753      1.0  0.74714  0.54999  0.71555  1.0000
  H   H754      1.0  0.99982  0.53635  0.73760  1.0000
  H   H755      1.0  0.80816  0.58573  0.69695  1.0000
  H   H756      1.0  0.55865  0.54506  0.82135  1.0000
  H   H757      1.0  0.91024  0.84235  0.74674  1.0000
  S   S252      1.0  0.73056  0.82225  0.69439  1.0000
  C   C755      1.0  0.74968  0.51959  0.82692  1.0000
  H   H758      1.0  0.64137  0.89162  0.71380  1.0000
  C   C756      1.0  0.94011  0.97955  0.68974  1.0000
  S   S253      1.0  0.61670  0.53041  0.90544  1.0000
  C   C757      1.0  0.52846  0.92961  0.71829  1.0000
  C   C758      1.0  0.52386  0.79711  0.69601  1.0000
  C   C759      1.0  0.00456  0.62735  0.82304  1.0000
  H   H759      1.0  0.51922  0.84307  0.72490  1.0000
  C   C760      1.0  0.72110  0.52497  0.83973  1.0000
  C   C761      1.0  0.54342  0.89690  0.97257  1.0000
  H   H760      1.0  0.92701  0.54560  0.72552  1.0000
  H   H761      1.0  0.51834  0.95429  0.98208  1.0000
  H   H762      1.0  0.76022  0.53450  0.88846  1.0000
  H   H763      1.0  0.69973  0.51290  0.84137  1.0000
  C   C762      1.0  0.00572  0.87262  0.83057  1.0000
  H   H764      1.0  0.00415  0.55843  0.79528  1.0000
  H   H765      1.0  0.64373  0.68677  0.68756  1.0000
  C   C763      1.0  0.00996  0.51805  0.73664  1.0000
  H   H766      1.0  0.00326  0.95791  0.73752  1.0000
  C   C764      1.0  0.01391  0.98115  0.71369  1.0000
  H   H767      1.0  0.53614  0.87905  0.97603  1.0000
  C   C765      1.0  0.74684  0.51830  0.89139  1.0000
  C   C766      1.0  0.51914  0.55419  0.76021  1.0000
  S   S254      1.0  0.51725  0.56462  0.90321  1.0000
  C   C767      1.0  0.54671  0.57876  0.69045  1.0000
  S   S255      1.0  0.62299  0.63558  0.68799  1.0000
  C   C768      1.0  0.51404  0.57592  0.92673  1.0000
  S   S256      1.0  0.98286  0.51114  0.77363  1.0000
  H   H768      1.0  0.93026  0.51538  0.73329  1.0000
