data_image0
_chemical_formula_structural       FeS2FeSFeSHCHCHSCSFeS2FeS2FeS2FeSFeS3C2FeSC2HS2HSH2CHC6H4C3H2C6H5C2H2C7H4CNSHC6H5NC5H7NC6H8NC6H8CH3CHCSCH2SCSCFeHC2H2CHCFeH2C2HFeH2CNFeS2FeS2FeSCFeSFeS3FeS2FeS2FeS2FeSFeS3CH3C7H4C6H5CH3CHC7H4SC2HCNHCSHCH2NC3HSC2H2C2H2CNC6H8SCHCH2CH4CHCSFeCFeH4SH2C2HNCSH5C2H6FeSC2SFeSFeS3NSH2SFeS2FeSFeS2HCSHC6HCH3CSHC5H3SHC6H4C3H5C3HCNC2H4CH2FeC3SH3NCSHC2HC2HCHNCHC2HCHC3H4CFeHC2HFeH5FeHCHCH2CHCH2CH2FeS2FeSFeHCHCSFeH2FeS2FeS2FeS2FeSFeS3FeSFeHSFeS2FeS2C2HFeC7H4C2HC2SCH3C6H6NHC7H6SC2SHC2NCNC6H8C3H7SH2CHSH2C2NC6H2C2SHSNH2C4HCHCH2C2NC2H2CHC2SCS2CH2NHSHCHC7H4SCH3CNH2C6FeHCFeH3CHCH6CFeSCFeS2FeSFeS3HNSFeS2FeS2FeSFeS2HSHS2C6H2C7H4C7H5C6H4C6H4C2HC4H3CNC2HCH5CH3C4H2CHCH3CHC2NHC2H3CH2CHN2C5H3C2HCH3FeH2C2HNCSH2SCHC3HCH2CH7CHCHCH3CHNCH5C2H3CHC2H2C2NH3C4H2NCNCHC2FeHSCHC2HCSH3S2FeSCFeHFeHS2FeHSHCFeSFeHS2HC2SHCHC4HCNC7H3CSCHNHCHCHC2HCHCS2C6H4SC2SCHC2NC2HCHC2H2SH3C2HCSH5SHFeC2HC5SC2HCHCFeCH8SC2H2SFeH2CH6CHFeS2FeSFeS3CS2HSFeCNCH2FeS2FeS2FeS2HC3HC2HCHC4H2CFeHCHC2HFeH2C6H4C3HC7H4SC2HC2NC6H8CHC3H2FeH3CHCH3CSC2HC2NC2HC4NFeHCHSCNH2C2H2CH4CH2C2SH2C2FeC2FeS3FeS2FeS2FeSFeS3FeCSCHFeS2FeS2FeSFeS3H2S2HC6H4C6H4C6H4C3HC4FeC6H4NC2HC4NH2C2HCHCHCH3CH2C3NC6H9CH3C2HSCNHC2H4CH2C2H4CNH2C6N2C2H2CHNSCHC2HC2HCHNH4C2H5C3H2C2HC2HCH2SCHCHCHCHC4H2CHCHCH2C2H2CHNC2SNHFeS2FeCFeNS2FeS2CH3CHFeCSFeCH5C6H4C2H4C2SCSCH3C2HC5H2SCFeHSHC2FeS2CS2FeS2C2HCFeS2FeS2FeSFeS3HC2H2CHS2H2SHNFeHC6H4C3H2C6H6SCSH2C7H6FeC7H2SC2SHC2NC6H6CH3C2HNHCFeH3C3NCH2FeH4CHC2HCHCHC2NCHCH2C2HCFeH2CHC3H2FeCHCH3CHFeHSH2FeS2FeS2FeSFeS3FeS2FeS2FeS2FeHFeS3H2NCHCH2C6H4SHC7H4SHSCSH2CHCHC6H4NHCHCH2C2HCNH2CHFeCNC6H6C2SCHC3H5CHCSC2H4CNCHCNH2C3H5C3SH2CH3FeS2FeSHFeSFeS3HCSFeH2FeS2FeSFeHS2HCSC6H2C7H4C6H4C4H7CH4C4H3C2HNH3C3H2SCH2C2HNH2NC2H2CH2C2S2CH2FeS2FeS2FeS2FeSFeS3FeS2FeSFeCS2HFeSCFeNFeC2SHNC4HC2H2C6H4C6H4SH2CHC6H4CHCHCH4NHCHSCHCHSCNC3H8C3HC2NC2HC3S2FeH2SNHSNCHCH2CH6SHCHCH10SC4FeCHFeH3
_chemical_formula_sum              "Fe144 S288 H864 C864 N72"
_cell_length_a       53.0507
_cell_length_b       53.1849
_cell_length_c       73.4559
_cell_angle_alpha    90.4301
_cell_angle_beta     91.7938
_cell_angle_gamma    116.34

_space_group_name_H-M_alt    "P 1"
_space_group_IT_number       1

loop_
  _space_group_symop_operation_xyz
  'x, y, z'

loop_
  _atom_site_type_symbol
  _atom_site_label
  _atom_site_symmetry_multiplicity
  _atom_site_fract_x
  _atom_site_fract_y
  _atom_site_fract_z
  _atom_site_occupancy
  Fe  Fe1       1.0  0.19542  0.03835  0.11108  1.0000
  S   S1        1.0  0.23631  0.05521  0.09716  1.0000
  S   S2        1.0  0.19040  0.07069  0.12855  1.0000
  Fe  Fe2       1.0  0.24180  0.02034  0.11094  1.0000
  S   S3        1.0  0.28413  0.03130  0.12606  1.0000
  Fe  Fe3       1.0  0.21249  0.02486  0.07402  1.0000
  S   S4        1.0  0.21488  0.04204  0.04506  1.0000
  H   H1        1.0  0.22613  0.32514  0.00959  1.0000
  C   C1        1.0  0.35754  0.21769  0.23688  1.0000
  H   H2        1.0  0.25151  0.02724  0.15857  1.0000
  C   C2        1.0  0.30877  0.35851  0.15757  1.0000
  H   H3        1.0  0.17647  0.29833  0.99904  1.0000
  S   S5        1.0  0.42636  0.18839  0.22552  1.0000
  C   C3        1.0  0.34641  0.25219  0.21321  1.0000
  S   S6        1.0  0.22189  0.99107  0.08643  1.0000
  Fe  Fe4       1.0  0.36018  0.08710  0.22886  1.0000
  S   S7        1.0  0.31970  0.06338  0.21073  1.0000
  S   S8        1.0  0.40564  0.10968  0.22113  1.0000
  Fe  Fe5       1.0  0.20020  0.21386  0.09353  1.0000
  S   S9        1.0  0.24673  0.23769  0.09025  1.0000
  S   S10       1.0  0.17744  0.16764  0.08607  1.0000
  Fe  Fe6       1.0  0.19187  0.26673  0.09580  1.0000
  S   S11       1.0  0.23833  0.29436  0.09257  1.0000
  S   S12       1.0  0.16316  0.28848  0.09396  1.0000
  Fe  Fe7       1.0  0.23557  0.26354  0.07046  1.0000
  S   S13       1.0  0.25705  0.27532  0.04314  1.0000
  Fe  Fe8       1.0  0.24594  0.26646  0.11293  1.0000
  S   S14       1.0  0.28534  0.28547  0.13273  1.0000
  S   S15       1.0  0.18927  0.23823  0.07246  1.0000
  S   S16       1.0  0.19930  0.24044  0.11748  1.0000
  C   C4        1.0  0.35707  0.23439  0.20648  1.0000
  C   C5        1.0  0.42848  0.26372  0.23802  1.0000
  Fe  Fe9       1.0  0.99874  0.25085  0.09779  1.0000
  S   S17       1.0  0.20150  0.00428  0.12565  1.0000
  C   C6        1.0  0.21009  0.31596  0.01959  1.0000
  C   C7        1.0  0.04099  0.28678  0.02338  1.0000
  H   H4        1.0  0.98581  0.17878  0.11953  1.0000
  S   S18       1.0  0.32468  0.31058  0.21756  1.0000
  S   S19       1.0  0.40878  0.33725  0.22813  1.0000
  H   H5        1.0  0.43467  0.24307  0.21437  1.0000
  S   S20       1.0  0.03106  0.23586  0.10751  1.0000
  H   H6        1.0  0.36130  0.23434  0.19212  1.0000
  H   H7        1.0  0.20273  0.30865  0.06481  1.0000
  C   C8        1.0  0.24688  0.33455  0.04387  1.0000
  H   H8        1.0  0.43222  0.28281  0.23100  1.0000
  C   C9        1.0  0.12617  0.27286  0.09700  1.0000
  C   C10       1.0  0.11095  0.28804  0.09237  1.0000
  C   C11       1.0  0.08176  0.27682  0.09507  1.0000
  C   C12       1.0  0.06748  0.25038  0.10272  1.0000
  C   C13       1.0  0.08266  0.23511  0.10720  1.0000
  C   C14       1.0  0.11175  0.24615  0.10423  1.0000
  H   H9        1.0  0.12188  0.30878  0.08688  1.0000
  H   H10       1.0  0.07046  0.28892  0.09170  1.0000
  H   H11       1.0  0.07191  0.21470  0.11317  1.0000
  H   H12       1.0  0.12313  0.23424  0.10793  1.0000
  C   C15       1.0  0.24081  0.26964  0.02092  1.0000
  C   C16       1.0  0.21161  0.25532  0.01797  1.0000
  C   C17       1.0  0.25774  0.28080  0.00585  1.0000
  H   H13       1.0  0.19826  0.24653  0.02937  1.0000
  H   H14       1.0  0.28037  0.29185  0.00795  1.0000
  C   C18       1.0  0.29545  0.29018  0.15653  1.0000
  C   C19       1.0  0.32433  0.30179  0.16174  1.0000
  C   C20       1.0  0.33368  0.30780  0.18024  1.0000
  C   C21       1.0  0.31426  0.30237  0.19394  1.0000
  C   C22       1.0  0.28540  0.29046  0.18877  1.0000
  C   C23       1.0  0.27604  0.28439  0.17027  1.0000
  H   H15       1.0  0.33962  0.30641  0.15130  1.0000
  H   H16       1.0  0.35593  0.31692  0.18386  1.0000
  H   H17       1.0  0.27007  0.28606  0.19916  1.0000
  H   H18       1.0  0.25380  0.27558  0.16662  1.0000
  H   H19       1.0  0.15296  0.28129  0.05485  1.0000
  C   C24       1.0  0.34157  0.25238  0.23180  1.0000
  C   C25       1.0  0.16128  0.28811  0.02624  1.0000
  H   H20       1.0  0.25165  0.35692  0.04598  1.0000
  H   H21       1.0  0.20771  0.05952  0.00905  1.0000
  C   C26       1.0  0.21241  0.04185  0.00736  1.0000
  C   C27       1.0  0.18763  0.09794  0.11661  1.0000
  C   C28       1.0  0.19739  0.12466  0.12487  1.0000
  C   C29       1.0  0.19486  0.14651  0.11557  1.0000
  C   C30       1.0  0.18172  0.14135  0.09823  1.0000
  C   C31       1.0  0.17189  0.11459  0.09003  1.0000
  C   C32       1.0  0.17529  0.09307  0.09905  1.0000
  H   H22       1.0  0.20684  0.12849  0.13850  1.0000
  H   H23       1.0  0.20238  0.16709  0.12198  1.0000
  H   H24       1.0  0.16172  0.11053  0.07661  1.0000
  H   H25       1.0  0.16759  0.07249  0.09263  1.0000
  C   C33       1.0  0.21654  0.02855  0.02293  1.0000
  N   N1        1.0  0.21737  0.31823  0.03778  1.0000
  S   S21       1.0  0.99959  0.29371  0.09681  1.0000
  H   H26       1.0  0.34209  0.26597  0.20415  1.0000
  C   C34       1.0  0.29357  0.03974  0.14971  1.0000
  C   C35       1.0  0.27352  0.03568  0.16276  1.0000
  C   C36       1.0  0.28192  0.04242  0.18133  1.0000
  C   C37       1.0  0.31053  0.05399  0.18715  1.0000
  C   C38       1.0  0.33057  0.05804  0.17409  1.0000
  C   C39       1.0  0.32209  0.05066  0.15557  1.0000
  H   H27       1.0  0.26618  0.03907  0.19127  1.0000
  H   H28       1.0  0.35261  0.06671  0.17827  1.0000
  H   H29       1.0  0.33783  0.05375  0.14567  1.0000
  H   H30       1.0  0.98934  0.35628  0.22873  1.0000
  H   H31       1.0  0.30546  0.37671  0.15303  1.0000
  N   N2        1.0  0.33212  0.36768  0.17120  1.0000
  C   C40       1.0  0.32695  0.36851  0.18928  1.0000
  C   C41       1.0  0.35910  0.37653  0.16571  1.0000
  C   C42       1.0  0.34906  0.37795  0.20241  1.0000
  C   C43       1.0  0.38172  0.38605  0.17851  1.0000
  C   C44       1.0  0.37661  0.38673  0.19698  1.0000
  H   H32       1.0  0.30556  0.36113  0.19371  1.0000
  H   H33       1.0  0.36320  0.37590  0.15138  1.0000
  H   H34       1.0  0.34469  0.37776  0.21675  1.0000
  H   H35       1.0  0.40308  0.39275  0.17419  1.0000
  H   H36       1.0  0.39398  0.39392  0.20706  1.0000
  H   H37       1.0  0.31292  0.34827  0.14552  1.0000
  H   H38       1.0  0.28892  0.34255  0.16318  1.0000
  N   N3        1.0  0.22409  0.16069  0.05324  1.0000
  C   C45       1.0  0.21450  0.13768  0.04175  1.0000
  C   C46       1.0  0.23435  0.15964  0.07040  1.0000
  C   C47       1.0  0.21585  0.11309  0.04714  1.0000
  C   C48       1.0  0.23594  0.13537  0.07625  1.0000
  C   C49       1.0  0.22668  0.11201  0.06449  1.0000
  C   C50       1.0  0.22180  0.18601  0.04752  1.0000
  H   H39       1.0  0.20555  0.13815  0.02837  1.0000
  H   H40       1.0  0.24048  0.17730  0.07988  1.0000
  H   H41       1.0  0.20827  0.09476  0.03807  1.0000
  H   H42       1.0  0.24330  0.13433  0.09004  1.0000
  H   H43       1.0  0.22731  0.09284  0.06888  1.0000
  H   H44       1.0  0.23832  0.20518  0.05443  1.0000
  H   H45       1.0  0.22443  0.18909  0.03264  1.0000
  H   H46       1.0  0.20089  0.18437  0.05100  1.0000
  N   N4        1.0  0.26185  0.09412  0.16219  1.0000
  C   C51       1.0  0.26625  0.09269  0.14404  1.0000
  C   C52       1.0  0.28406  0.10387  0.17463  1.0000
  C   C53       1.0  0.29339  0.10066  0.13794  1.0000
  C   C54       1.0  0.31151  0.11215  0.16899  1.0000
  C   C55       1.0  0.31613  0.11041  0.15053  1.0000
  C   C56       1.0  0.23302  0.08498  0.16811  1.0000
  H   H47       1.0  0.24862  0.08475  0.13423  1.0000
  H   H48       1.0  0.28064  0.10441  0.18908  1.0000
  H   H49       1.0  0.29660  0.09824  0.12363  1.0000
  H   H50       1.0  0.32890  0.11866  0.17898  1.0000
  H   H51       1.0  0.33715  0.11567  0.14605  1.0000
  H   H52       1.0  0.22441  0.09921  0.16272  1.0000
  H   H53       1.0  0.21925  0.06341  0.16270  1.0000
  H   H54       1.0  0.23183  0.08466  0.18318  1.0000
  C   C57       1.0  0.19712  0.30641  0.05035  1.0000
  H   H55       1.0  0.25150  0.32637  0.05679  1.0000
  H   H56       1.0  0.04643  0.29351  0.03757  1.0000
  H   H57       1.0  0.00908  0.32773  0.00729  1.0000
  C   C58       1.0  0.01024  0.25330  0.00067  1.0000
  H   H58       1.0  0.22609  0.99535  0.03216  1.0000
  C   C59       1.0  0.36256  0.21690  0.21835  1.0000
  S   S22       1.0  0.45241  0.42350  0.23065  1.0000
  C   C60       1.0  0.42997  0.24127  0.22866  1.0000
  H   H59       1.0  0.37143  0.20334  0.21339  1.0000
  H   H60       1.0  0.26125  0.33279  0.03377  1.0000
  S   S23       1.0  0.17061  0.01061  0.08723  1.0000
  C   C61       1.0  0.01826  0.26095  0.01898  1.0000
  S   S24       1.0  0.99282  0.30410  0.04263  1.0000
  C   C62       1.0  0.16883  0.29099  0.04478  1.0000
  Fe  Fe10      1.0  0.36570  0.33168  0.23545  1.0000
  H   H61       1.0  0.13946  0.27589  0.02175  1.0000
  C   C63       1.0  0.19952  0.25320  0.00028  1.0000
  C   C64       1.0  0.18197  0.30084  0.01354  1.0000
  H   H62       1.0  0.47453  0.10615  0.22257  1.0000
  H   H63       1.0  0.00608  0.24764  0.02974  1.0000
  C   C65       1.0  0.05575  0.30440  0.00948  1.0000
  H   H64       1.0  0.17685  0.24277  0.99827  1.0000
  C   C66       1.0  0.42515  0.21644  0.23769  1.0000
  Fe  Fe11      1.0  0.42520  0.38019  0.24207  1.0000
  H   H65       1.0  0.33341  0.26644  0.23688  1.0000
  H   H66       1.0  0.98893  0.19053  0.08689  1.0000
  C   C67       1.0  0.22266  0.00575  0.02041  1.0000
  C   C68       1.0  0.99069  0.30779  0.00517  1.0000
  H   H67       1.0  0.48201  0.19076  0.21477  1.0000
  Fe  Fe12      1.0  0.40668  0.14561  0.23810  1.0000
  H   H68       1.0  0.07310  0.32474  0.01281  1.0000
  H   H69       1.0  0.99192  0.23365  0.99738  1.0000
  C   C69       1.0  0.22521  0.99687  0.00265  1.0000
  N   N5        1.0  0.34708  0.23521  0.24337  1.0000
  Fe  Fe13      1.0  0.37568  0.10831  0.26955  1.0000
  S   S25       1.0  0.35703  0.10628  0.29758  1.0000
  S   S26       1.0  0.42137  0.13342  0.26407  1.0000
  Fe  Fe14      1.0  0.38488  0.13486  0.43349  1.0000
  S   S27       1.0  0.35785  0.09163  0.42120  1.0000
  S   S28       1.0  0.36426  0.16442  0.43531  1.0000
  Fe  Fe15      1.0  0.43455  0.12174  0.43951  1.0000
  S   S29       1.0  0.41128  0.07820  0.42763  1.0000
  C   C70       1.0  0.43313  0.33264  0.33723  1.0000
  Fe  Fe16      1.0  0.39618  0.09837  0.40554  1.0000
  S   S30       1.0  0.40109  0.08840  0.37565  1.0000
  Fe  Fe17      1.0  0.37533  0.07544  0.44449  1.0000
  S   S31       1.0  0.34780  0.03504  0.45977  1.0000
  S   S32       1.0  0.42208  0.14232  0.41664  1.0000
  S   S33       1.0  0.39961  0.11819  0.45760  1.0000
  Fe  Fe18      1.0  0.38706  0.35734  0.27490  1.0000
  S   S34       1.0  0.38091  0.37386  0.30245  1.0000
  S   S35       1.0  0.43122  0.36509  0.26953  1.0000
  Fe  Fe19      1.0  0.41411  0.32873  0.43857  1.0000
  S   S36       1.0  0.36873  0.32032  0.43554  1.0000
  S   S37       1.0  0.43053  0.29736  0.44684  1.0000
  Fe  Fe20      1.0  0.43517  0.38786  0.42294  1.0000
  S   S38       1.0  0.39111  0.38256  0.41863  1.0000
  S   S39       1.0  0.46645  0.42800  0.41058  1.0000
  Fe  Fe21      1.0  0.38383  0.36484  0.44704  1.0000
  S   S40       1.0  0.36847  0.38875  0.46697  1.0000
  Fe  Fe22      1.0  0.38093  0.33945  0.40773  1.0000
  S   S41       1.0  0.36171  0.31663  0.38054  1.0000
  S   S42       1.0  0.42884  0.37201  0.45149  1.0000
  S   S43       1.0  0.42544  0.34588  0.41063  1.0000
  C   C71       1.0  0.44514  0.43561  0.47369  1.0000
  H   H70       1.0  0.45664  0.48675  0.26623  1.0000
  H   H71       1.0  0.46349  0.39120  0.37901  1.0000
  H   H72       1.0  0.42604  0.38052  0.37835  1.0000
  C   C72       1.0  0.38633  0.03966  0.33217  1.0000
  C   C73       1.0  0.37508  0.35722  0.32394  1.0000
  C   C74       1.0  0.36789  0.32866  0.32564  1.0000
  C   C75       1.0  0.36363  0.31651  0.34301  1.0000
  C   C76       1.0  0.36707  0.33284  0.35892  1.0000
  C   C77       1.0  0.37433  0.36139  0.35721  1.0000
  C   C78       1.0  0.37807  0.37341  0.33984  1.0000
  H   H73       1.0  0.36531  0.31587  0.31355  1.0000
  H   H74       1.0  0.35772  0.29435  0.34411  1.0000
  H   H75       1.0  0.37648  0.37414  0.36925  1.0000
  H   H76       1.0  0.38332  0.39544  0.33870  1.0000
  C   C79       1.0  0.38284  0.20114  0.43968  1.0000
  C   C80       1.0  0.41194  0.21444  0.44328  1.0000
  C   C81       1.0  0.42608  0.24383  0.44590  1.0000
  C   C82       1.0  0.41141  0.26028  0.44466  1.0000
  C   C83       1.0  0.38225  0.24693  0.44125  1.0000
  C   C84       1.0  0.36804  0.21750  0.43892  1.0000
  H   H77       1.0  0.42360  0.20214  0.44396  1.0000
  H   H78       1.0  0.44861  0.25394  0.44863  1.0000
  H   H79       1.0  0.37067  0.25929  0.44046  1.0000
  H   H80       1.0  0.34550  0.20739  0.43628  1.0000
  H   H81       1.0  0.32469  0.22506  0.39535  1.0000
  C   C85       1.0  0.45990  0.46553  0.44775  1.0000
  H   H82       1.0  0.43231  0.33683  0.36632  1.0000
  H   H83       1.0  0.32464  0.10959  0.44728  1.0000
  H   H84       1.0  0.29615  0.05913  0.45315  1.0000
  C   C86       1.0  0.98763  0.39711  0.49070  1.0000
  H   H85       1.0  0.41476  0.23551  0.28007  1.0000
  C   C87       1.0  0.41870  0.23706  0.26565  1.0000
  C   C88       1.0  0.37230  0.10707  0.31970  1.0000
  C   C89       1.0  0.35620  0.10452  0.33509  1.0000
  C   C90       1.0  0.36576  0.10114  0.35265  1.0000
  C   C91       1.0  0.39160  0.10019  0.35505  1.0000
  C   C92       1.0  0.40839  0.10435  0.33982  1.0000
  C   C93       1.0  0.39889  0.10787  0.32227  1.0000
  H   H86       1.0  0.33566  0.10403  0.33331  1.0000
  H   H87       1.0  0.35246  0.09775  0.36415  1.0000
  H   H88       1.0  0.42846  0.10378  0.34150  1.0000
  H   H89       1.0  0.41168  0.11008  0.31065  1.0000
  S   S44       1.0  0.42273  0.28983  0.26918  1.0000
  C   C94       1.0  0.41927  0.21429  0.25618  1.0000
  C   C95       1.0  0.32415  0.10172  0.46092  1.0000
  H   H90       1.0  0.34014  0.04240  0.34077  1.0000
  C   C96       1.0  0.44348  0.37481  0.32062  1.0000
  N   N6        1.0  0.44253  0.37564  0.35330  1.0000
  H   H91       1.0  0.43397  0.33475  0.30790  1.0000
  C   C97       1.0  0.43599  0.34770  0.35351  1.0000
  S   S45       1.0  0.44887  0.07975  0.25649  1.0000
  H   H92       1.0  0.32734  0.24425  0.26578  1.0000
  C   C98       1.0  0.35557  0.38673  0.48950  1.0000
  H   H93       1.0  0.32398  0.01250  0.32513  1.0000
  H   H94       1.0  0.45531  0.47155  0.43443  1.0000
  N   N7        1.0  0.36642  0.04012  0.32004  1.0000
  C   C99       1.0  0.37193  0.04434  0.30195  1.0000
  C   C100      1.0  0.34334  0.23669  0.26297  1.0000
  C   C101      1.0  0.39822  0.04892  0.29565  1.0000
  H   H95       1.0  0.36365  0.25139  0.26979  1.0000
  S   S46       1.0  0.37117  0.06961  0.25433  1.0000
  C   C102      1.0  0.33869  0.03517  0.32635  1.0000
  C   C103      1.0  0.33951  0.10961  0.49258  1.0000
  H   H96       1.0  0.32994  0.04728  0.31822  1.0000
  H   H97       1.0  0.43902  0.28468  0.40418  1.0000
  C   C104      1.0  0.43688  0.34633  0.32068  1.0000
  C   C105      1.0  0.41886  0.04914  0.30794  1.0000
  H   H98       1.0  0.43947  0.05325  0.30316  1.0000
  H   H99       1.0  0.42896  0.04509  0.33613  1.0000
  C   C106      1.0  0.43874  0.44406  0.45696  1.0000
  N   N8        1.0  0.36972  0.24325  0.39523  1.0000
  C   C107      1.0  0.37001  0.21767  0.39396  1.0000
  C   C108      1.0  0.39425  0.26717  0.39822  1.0000
  C   C109      1.0  0.39528  0.21556  0.39626  1.0000
  C   C110      1.0  0.41988  0.26582  0.40069  1.0000
  C   C111      1.0  0.42031  0.23980  0.39976  1.0000
  C   C112      1.0  0.34318  0.24539  0.39300  1.0000
  H   H100      1.0  0.35059  0.19860  0.39179  1.0000
  H   H101      1.0  0.41748  0.43364  0.45102  1.0000
  H   H102      1.0  0.39526  0.19512  0.39611  1.0000
  H   H103      1.0  0.00432  0.38053  0.24770  1.0000
  H   H104      1.0  0.43985  0.23831  0.40238  1.0000
  H   H105      1.0  0.34258  0.26097  0.40297  1.0000
  H   H106      1.0  0.34123  0.25255  0.37907  1.0000
  H   H107      1.0  0.28963  0.02010  0.47373  1.0000
  S   S47       1.0  0.36695  0.31358  0.26307  1.0000
  C   C113      1.0  0.44626  0.38924  0.33714  1.0000
  H   H108      1.0  0.38218  0.03687  0.34659  1.0000
  C   C114      1.0  0.32890  0.99589  0.48702  1.0000
  H   H109      1.0  0.44537  0.38544  0.30784  1.0000
  H   H110      1.0  0.39388  0.28733  0.39933  1.0000
  C   C115      1.0  0.41293  0.04442  0.32634  1.0000
  H   H111      1.0  0.26680  0.03065  0.48620  1.0000
  H   H112      1.0  0.35305  0.14200  0.47248  1.0000
  H   H113      1.0  0.47175  0.11065  0.41557  1.0000
  H   H114      1.0  0.00193  0.40849  0.48022  1.0000
  C   C116      1.0  0.42315  0.26175  0.25660  1.0000
  H   H115      1.0  0.33626  0.21573  0.26913  1.0000
  C   C117      1.0  0.30795  0.07328  0.46436  1.0000
  S   S48       1.0  0.38178  0.37515  0.24806  1.0000
  Fe  Fe23      1.0  0.41094  0.32189  0.25652  1.0000
  C   C118      1.0  0.44554  0.39081  0.37059  1.0000
  Fe  Fe24      1.0  0.41683  0.09556  0.24782  1.0000
  H   H116      1.0  0.40278  0.05269  0.28135  1.0000
  H   H117      1.0  0.45063  0.41117  0.33687  1.0000
  H   H118      1.0  0.35623  0.04497  0.29238  1.0000
  H   H119      1.0  0.36259  0.20457  0.24609  1.0000
  S   S49       1.0  0.36115  0.12404  0.24477  1.0000
  H   H120      1.0  0.44937  0.41291  0.36864  1.0000
  H   H121      1.0  0.41563  0.19527  0.26326  1.0000
  C   C119      1.0  0.34599  0.02423  0.48299  1.0000
  C   C120      1.0  0.48312  0.09112  0.24800  1.0000
  H   H122      1.0  0.42735  0.31036  0.33738  1.0000
  N   N9        1.0  0.30732  0.06334  0.48155  1.0000
  C   C121      1.0  0.34006  0.11995  0.47512  1.0000
  S   S50       1.0  0.47893  0.13726  0.45125  1.0000
  H   H123      1.0  0.36438  0.43040  0.49028  1.0000
  H   H124      1.0  0.48059  0.14001  0.26783  1.0000
  H   H125      1.0  0.47176  0.17307  0.24588  1.0000
  H   H126      1.0  0.47568  0.04938  0.43038  1.0000
  H   H127      1.0  0.29486  0.40279  0.49214  1.0000
  C   C122      1.0  0.47286  0.44853  0.48084  1.0000
  C   C123      1.0  0.28879  0.03379  0.48500  1.0000
  H   H128      1.0  0.42873  0.41870  0.48083  1.0000
  H   H129      1.0  0.47696  0.07803  0.45729  1.0000
  H   H130      1.0  0.47103  0.44886  0.27146  1.0000
  H   H131      1.0  0.34377  0.34292  0.49330  1.0000
  H   H132      1.0  0.47780  0.44139  0.49365  1.0000
  H   H133      1.0  0.35210  0.12359  0.50365  1.0000
  Fe  Fe25      1.0  0.28338  0.45278  0.57121  1.0000
  S   S51       1.0  0.27352  0.40891  0.57922  1.0000
  C   C124      1.0  0.25166  0.40913  0.53168  1.0000
  C   C125      1.0  0.11698  0.44080  0.62976  1.0000
  S   S52       1.0  0.33930  0.43133  0.59122  1.0000
  Fe  Fe26      1.0  0.31340  0.41586  0.56493  1.0000
  S   S53       1.0  0.31621  0.38254  0.54585  1.0000
  Fe  Fe27      1.0  0.30086  0.42926  0.60453  1.0000
  S   S54       1.0  0.28461  0.41782  0.63340  1.0000
  S   S55       1.0  0.32174  0.45878  0.55551  1.0000
  S   S56       1.0  0.30875  0.47285  0.59693  1.0000
  N   N10       1.0  0.11731  0.45244  0.64798  1.0000
  S   S57       1.0  0.33328  0.42498  0.71453  1.0000
  H   H134      1.0  0.36391  0.04930  0.52685  1.0000
  H   H135      1.0  0.27485  0.37279  0.71845  1.0000
  S   S58       1.0  0.03019  0.45747  0.57780  1.0000
  Fe  Fe28      1.0  0.09081  0.43562  0.57836  1.0000
  S   S59       1.0  0.04737  0.40806  0.58835  1.0000
  S   S60       1.0  0.12258  0.41797  0.58340  1.0000
  Fe  Fe29      1.0  0.03073  0.42063  0.56290  1.0000
  S   S61       1.0  0.30389  0.46826  0.74364  1.0000
  Fe  Fe30      1.0  0.05062  0.44733  0.60220  1.0000
  S   S62       1.0  0.04020  0.45723  0.63062  1.0000
  S   S63       1.0  0.07391  0.44523  0.55207  1.0000
  H   H136      1.0  0.27129  0.36323  0.51268  1.0000
  C   C126      1.0  0.34424  0.36182  0.49923  1.0000
  S   S64       1.0  0.05600  0.41393  0.70945  1.0000
  H   H137      1.0  0.24003  0.41130  0.54299  1.0000
  C   C127      1.0  0.04316  0.44388  0.65240  1.0000
  C   C128      1.0  0.04776  0.42007  0.65437  1.0000
  C   C129      1.0  0.05077  0.41080  0.67192  1.0000
  C   C130      1.0  0.04959  0.42533  0.68775  1.0000
  C   C131      1.0  0.04468  0.44896  0.68578  1.0000
  C   C132      1.0  0.04131  0.45802  0.66822  1.0000
  H   H138      1.0  0.15680  0.46379  0.55945  1.0000
  C   C133      1.0  0.11221  0.48690  0.66686  1.0000
  H   H139      1.0  0.04358  0.46030  0.69778  1.0000
  H   H140      1.0  0.25079  0.41127  0.71727  1.0000
  H   H141      1.0  0.09513  0.43086  0.62381  1.0000
  C   C134      1.0  0.02157  0.34198  0.55792  1.0000
  S   S65       1.0  0.25010  0.46475  0.55909  1.0000
  H   H142      1.0  0.22970  0.37669  0.72567  1.0000
  C   C135      1.0  0.21501  0.45220  0.56655  1.0000
  C   C136      1.0  0.20368  0.43021  0.57876  1.0000
  C   C137      1.0  0.17545  0.42016  0.58381  1.0000
  C   C138      1.0  0.15829  0.43216  0.57695  1.0000
  C   C139      1.0  0.16966  0.45430  0.56486  1.0000
  H   H143      1.0  0.00090  0.34234  0.55555  1.0000
  H   H144      1.0  0.21660  0.42082  0.58424  1.0000
  H   H145      1.0  0.16691  0.40300  0.59314  1.0000
  S   S66       1.0  0.09461  0.47415  0.59345  1.0000
  H   H146      1.0  0.99857  0.48226  0.60078  1.0000
  C   C140      1.0  0.30285  0.42649  0.65507  1.0000
  C   C141      1.0  0.29117  0.43481  0.66952  1.0000
  C   C142      1.0  0.30136  0.43617  0.68768  1.0000
  C   C143      1.0  0.32307  0.42868  0.69169  1.0000
  C   C144      1.0  0.33565  0.42167  0.67715  1.0000
  C   C145      1.0  0.32571  0.42067  0.65896  1.0000
  H   H147      1.0  0.27338  0.43919  0.66673  1.0000
  H   H148      1.0  0.29170  0.44197  0.69865  1.0000
  H   H149      1.0  0.35246  0.41584  0.68005  1.0000
  H   H150      1.0  0.33462  0.41371  0.64810  1.0000
  C   C146      1.0  0.34484  0.41039  0.51502  1.0000
  C   C147      1.0  0.33293  0.38531  0.52457  1.0000
  C   C148      1.0  0.33282  0.36110  0.51651  1.0000
  H   H151      1.0  0.34516  0.42923  0.52092  1.0000
  H   H152      1.0  0.32373  0.34154  0.52367  1.0000
  H   H153      1.0  0.13053  0.45758  0.62058  1.0000
  H   H154      1.0  0.04880  0.40867  0.64240  1.0000
  H   H155      1.0  0.01881  0.32025  0.55562  1.0000
  C   C149      1.0  0.35418  0.03419  0.51577  1.0000
  C   C150      1.0  0.33678  0.00593  0.51980  1.0000
  C   C151      1.0  0.28058  0.42976  0.50604  1.0000
  H   H156      1.0  0.12046  0.43820  0.69267  1.0000
  C   C152      1.0  0.32271  0.08110  0.49561  1.0000
  N   N11       1.0  0.04259  0.36112  0.54573  1.0000
  C   C153      1.0  0.26693  0.37023  0.70442  1.0000
  C   C154      1.0  0.03440  0.36537  0.52864  1.0000
  H   H157      1.0  0.28081  0.35237  0.66270  1.0000
  H   H158      1.0  0.32237  0.07319  0.50922  1.0000
  H   H159      1.0  0.03755  0.47634  0.66692  1.0000
  H   H160      1.0  0.29663  0.35578  0.69530  1.0000
  C   C155      1.0  0.12022  0.43906  0.66318  1.0000
  H   H161      1.0  0.11286  0.40174  0.54414  1.0000
  H   H162      1.0  0.16633  0.41674  0.73891  1.0000
  Fe  Fe31      1.0  0.34581  0.47412  0.58232  1.0000
  C   C156      1.0  0.26877  0.38224  0.51461  1.0000
  C   C157      1.0  0.23494  0.38964  0.71328  1.0000
  C   C158      1.0  0.19780  0.46411  0.55962  1.0000
  S   S67       1.0  0.99108  0.38971  0.54640  1.0000
  H   H163      1.0  0.22929  0.34097  0.53295  1.0000
  H   H164      1.0  0.25664  0.35959  0.55005  1.0000
  H   H165      1.0  0.37219  0.06508  0.49482  1.0000
  N   N12       1.0  0.25353  0.38460  0.52864  1.0000
  C   C159      1.0  0.24026  0.36101  0.54088  1.0000
  S   S68       1.0  0.33027  0.99630  0.54318  1.0000
  H   H166      1.0  0.29151  0.44752  0.49741  1.0000
  C   C160      1.0  0.27052  0.35868  0.67309  1.0000
  C   C161      1.0  0.42452  0.00537  0.56422  1.0000
  H   H167      1.0  0.22459  0.36350  0.54946  1.0000
  C   C162      1.0  0.44608  0.99721  0.56318  1.0000
  C   C163      1.0  0.26511  0.43204  0.52043  1.0000
  H   H168      1.0  0.21544  0.39074  0.70838  1.0000
  C   C164      1.0  0.05420  0.38324  0.51673  1.0000
  H   H169      1.0  0.01864  0.41697  0.51276  1.0000
  N   N13       1.0  0.24624  0.37782  0.69945  1.0000
  C   C165      1.0  0.23743  0.37606  0.68156  1.0000
  H   H170      1.0  0.24325  0.36617  0.65386  1.0000
  C   C166      1.0  0.35899  0.04324  0.49756  1.0000
  C   C167      1.0  0.27934  0.36051  0.69135  1.0000
  H   H171      1.0  0.36235  0.47425  0.62336  1.0000
  C   C168      1.0  0.24934  0.36635  0.66814  1.0000
  H   H172      1.0  0.46536  0.00783  0.57149  1.0000
  C   C169      1.0  0.09086  0.39140  0.53956  1.0000
  C   C170      1.0  0.11310  0.47593  0.64964  1.0000
  C   C171      1.0  0.07046  0.37353  0.55116  1.0000
  H   H173      1.0  0.42699  0.02273  0.57314  1.0000
  H   H174      1.0  0.07707  0.37003  0.56465  1.0000
  H   H175      1.0  0.05432  0.39237  0.67327  1.0000
  H   H176      1.0  0.22184  0.38308  0.67746  1.0000
  C   C172      1.0  0.11532  0.47349  0.68242  1.0000
  Fe  Fe32      1.0  0.05779  0.43155  0.73846  1.0000
  H   H177      1.0  0.26388  0.45158  0.52311  1.0000
  C   C173      1.0  0.08260  0.39640  0.52228  1.0000
  C   C174      1.0  0.11934  0.44942  0.68061  1.0000
  H   H178      1.0  0.12247  0.41985  0.66194  1.0000
  Fe  Fe33      1.0  0.07397  0.48146  0.56829  1.0000
  H   H179      1.0  0.20632  0.48114  0.55018  1.0000
  H   H180      1.0  0.38293  0.99733  0.55464  1.0000
  H   H181      1.0  0.33655  0.47971  0.63600  1.0000
  H   H182      1.0  0.36701  0.48067  0.64774  1.0000
  H   H183      1.0  0.04741  0.38710  0.50338  1.0000
  Fe  Fe34      1.0  0.31665  0.43356  0.74117  1.0000
  H   H184      1.0  0.12508  0.42478  0.62997  1.0000
  C   C175      1.0  0.99723  0.40193  0.50920  1.0000
  H   H185      1.0  0.02793  0.34834  0.57243  1.0000
  C   C176      1.0  0.35575  0.41097  0.49759  1.0000
  H   H186      1.0  0.09816  0.41067  0.51330  1.0000
  H   H187      1.0  0.01231  0.35540  0.52428  1.0000
  C   C177      1.0  0.35948  0.48634  0.63484  1.0000
  H   H188      1.0  0.10944  0.48577  0.63760  1.0000
  C   C178      1.0  0.28235  0.40467  0.50303  1.0000
  H   H189      1.0  0.29543  0.02673  0.49771  1.0000
  H   H190      1.0  0.11343  0.48099  0.69586  1.0000
  C   C179      1.0  0.39952  0.99073  0.55384  1.0000
  H   H191      1.0  0.16170  0.37664  0.77407  1.0000
  H   H192      1.0  0.02612  0.25011  0.96272  1.0000
  Fe  Fe35      1.0  0.19732  0.03613  0.90651  1.0000
  S   S69       1.0  0.24041  0.04215  0.91625  1.0000
  S   S70       1.0  0.18272  0.06977  0.90038  1.0000
  Fe  Fe36      1.0  0.21632  0.00696  0.93548  1.0000
  S   S71       1.0  0.22580  0.99858  0.96504  1.0000
  Fe  Fe37      1.0  0.23434  0.00850  0.89487  1.0000
  H   H193      1.0  0.26937  0.19533  0.94188  1.0000
  C   C180      1.0  0.99573  0.36447  0.84817  1.0000
  H   H194      1.0  0.25894  0.28805  0.97681  1.0000
  C   C181      1.0  0.39911  0.48389  0.80655  1.0000
  S   S72       1.0  0.34183  0.44415  0.76801  1.0000
  Fe  Fe38      1.0  0.26681  0.43715  0.75838  1.0000
  H   H195      1.0  0.10712  0.41666  0.82639  1.0000
  H   H196      1.0  0.28808  0.06650  0.86784  1.0000
  Fe  Fe39      1.0  0.30157  0.41525  0.78164  1.0000
  S   S73       1.0  0.29819  0.38068  0.80181  1.0000
  S   S74       1.0  0.28801  0.44926  0.78628  1.0000
  Fe  Fe40      1.0  0.23264  0.29168  0.89577  1.0000
  S   S75       1.0  0.21103  0.24965  0.88122  1.0000
  S   S76       1.0  0.25078  0.33405  0.88082  1.0000
  Fe  Fe41      1.0  0.21084  0.26478  0.93385  1.0000
  S   S77       1.0  0.18759  0.22174  0.92084  1.0000
  S   S78       1.0  0.19966  0.26508  0.96388  1.0000
  Fe  Fe42      1.0  0.22633  0.23272  0.90504  1.0000
  S   S79       1.0  0.24747  0.20350  0.90471  1.0000
  Fe  Fe43      1.0  0.17441  0.24254  0.89868  1.0000
  S   S80       1.0  0.12994  0.22562  0.88680  1.0000
  S   S81       1.0  0.25072  0.27541  0.91887  1.0000
  S   S82       1.0  0.19497  0.28490  0.91232  1.0000
  Fe  Fe44      1.0  0.10157  0.46090  0.76928  1.0000
  S   S83       1.0  0.07811  0.41603  0.76022  1.0000
  Fe  Fe45      1.0  0.04949  0.47046  0.76569  1.0000
  H   H197      1.0  0.30747  0.99754  0.85493  1.0000
  S   S84       1.0  0.02197  0.42515  0.75672  1.0000
  Fe  Fe46      1.0  0.04460  0.41337  0.77941  1.0000
  S   S85       1.0  0.03124  0.37440  0.79780  1.0000
  S   S86       1.0  0.06941  0.45815  0.78941  1.0000
  Fe  Fe47      1.0  0.00924  0.26343  0.91541  1.0000
  S   S87       1.0  0.14719  0.47979  0.77918  1.0000
  S   S88       1.0  0.05203  0.26962  0.92628  1.0000
  C   C182      1.0  0.01767  0.36184  0.81984  1.0000
  C   C183      1.0  0.01733  0.33661  0.82602  1.0000
  H   H198      1.0  0.19500  0.03400  0.84665  1.0000
  Fe  Fe48      1.0  0.32688  0.47739  0.77106  1.0000
  C   C184      1.0  0.26130  0.20717  0.95057  1.0000
  C   C185      1.0  0.10732  0.23596  0.89840  1.0000
  C   C186      1.0  0.11603  0.25102  0.91493  1.0000
  C   C187      1.0  0.09867  0.26092  0.92336  1.0000
  C   C188      1.0  0.07240  0.25576  0.91538  1.0000
  C   C189      1.0  0.06337  0.24027  0.89899  1.0000
  C   C190      1.0  0.08077  0.23025  0.89058  1.0000
  H   H199      1.0  0.13613  0.25501  0.92130  1.0000
  H   H200      1.0  0.10568  0.27271  0.93610  1.0000
  H   H201      1.0  0.04305  0.23603  0.89282  1.0000
  H   H202      1.0  0.07378  0.21833  0.87788  1.0000
  C   C191      1.0  0.20260  0.44221  0.75614  1.0000
  C   C192      1.0  0.21365  0.46380  0.76937  1.0000
  H   H203      1.0  0.19332  0.06602  0.84092  1.0000
  C   C193      1.0  0.16883  0.46643  0.76936  1.0000
  C   C194      1.0  0.15814  0.44543  0.75576  1.0000
  S   S89       1.0  0.17351  0.00234  0.92654  1.0000
  C   C195      1.0  0.21639  0.26519  0.98531  1.0000
  H   H204      1.0  0.00680  0.39508  0.82675  1.0000
  H   H205      1.0  0.10923  0.35597  0.77203  1.0000
  H   H206      1.0  0.02121  0.28120  0.95933  1.0000
  C   C196      1.0  0.28304  0.36735  0.82334  1.0000
  C   C197      1.0  0.27396  0.38224  0.83516  1.0000
  C   C198      1.0  0.26408  0.37165  0.85253  1.0000
  C   C199      1.0  0.26241  0.34571  0.85831  1.0000
  C   C200      1.0  0.27069  0.33045  0.84628  1.0000
  C   C201      1.0  0.28120  0.34135  0.82909  1.0000
  H   H207      1.0  0.27499  0.40215  0.83108  1.0000
  H   H208      1.0  0.25779  0.38375  0.86163  1.0000
  H   H209      1.0  0.26981  0.31061  0.85042  1.0000
  H   H210      1.0  0.28819  0.32957  0.82021  1.0000
  H   H211      1.0  0.18862  0.41825  0.79421  1.0000
  H   H212      1.0  0.26975  0.13684  0.87581  1.0000
  N   N14       1.0  0.02451  0.27094  0.98713  1.0000
  H   H213      1.0  0.99248  0.25008  0.96658  1.0000
  C   C202      1.0  0.18739  0.19187  0.96090  1.0000
  C   C203      1.0  0.20103  0.10686  0.90271  1.0000
  C   C204      1.0  0.22993  0.12087  0.90697  1.0000
  C   C205      1.0  0.24393  0.15047  0.90722  1.0000
  C   C206      1.0  0.22904  0.16634  0.90380  1.0000
  C   C207      1.0  0.20001  0.15233  0.90010  1.0000
  C   C208      1.0  0.18618  0.12276  0.89938  1.0000
  H   H214      1.0  0.24157  0.10888  0.90969  1.0000
  H   H215      1.0  0.26638  0.16114  0.91021  1.0000
  H   H216      1.0  0.18828  0.16426  0.89749  1.0000
  H   H217      1.0  0.16380  0.11214  0.89607  1.0000
  H   H218      1.0  0.31344  0.46885  0.82606  1.0000
  H   H219      1.0  0.22778  0.22781  0.96303  1.0000
  S   S90       1.0  0.26797  0.00796  0.87597  1.0000
  C   C209      1.0  0.39154  0.45518  0.80638  1.0000
  C   C210      1.0  0.01570  0.26260  0.96804  1.0000
  S   S91       1.0  0.22170  0.42434  0.74879  1.0000
  H   H220      1.0  0.40571  0.44737  0.80117  1.0000
  C   C211      1.0  0.36550  0.43652  0.81279  1.0000
  C   C212      1.0  0.19675  0.47586  0.77597  1.0000
  N   N15       1.0  0.23076  0.19190  0.95237  1.0000
  C   C213      1.0  0.21659  0.20572  0.95924  1.0000
  N   N16       1.0  0.14834  0.29751  0.87339  1.0000
  C   C214      1.0  0.17622  0.30544  0.87069  1.0000
  C   C215      1.0  0.12808  0.27783  0.86209  1.0000
  C   C216      1.0  0.18440  0.29279  0.85681  1.0000
  C   C217      1.0  0.13551  0.26457  0.84818  1.0000
  C   C218      1.0  0.16388  0.27200  0.84565  1.0000
  C   C219      1.0  0.14043  0.31048  0.88846  1.0000
  H   H221      1.0  0.19233  0.32127  0.87951  1.0000
  H   H222      1.0  0.10597  0.27142  0.86424  1.0000
  H   H223      1.0  0.20652  0.29865  0.85500  1.0000
  H   H224      1.0  0.11934  0.24795  0.83988  1.0000
  H   H225      1.0  0.16998  0.26143  0.83523  1.0000
  H   H226      1.0  0.14674  0.33295  0.88576  1.0000
  H   H227      1.0  0.11738  0.29982  0.89058  1.0000
  H   H228      1.0  0.15095  0.30877  0.90140  1.0000
  C   C220      1.0  0.21666  0.16404  0.94753  1.0000
  C   C221      1.0  0.18739  0.14967  0.94862  1.0000
  C   C222      1.0  0.17269  0.16377  0.95529  1.0000
  H   H229      1.0  0.22787  0.15289  0.94235  1.0000
  H   H230      1.0  0.17623  0.12790  0.94400  1.0000
  H   H231      1.0  0.14994  0.15306  0.95592  1.0000
  H   H232      1.0  0.26670  0.22741  0.94369  1.0000
  H   H233      1.0  0.27221  0.21133  0.96419  1.0000
  H   H234      1.0  0.98998  0.31106  0.97577  1.0000
  H   H235      1.0  0.02548  0.32549  0.81746  1.0000
  S   S92       1.0  0.99979  0.29948  0.92255  1.0000
  H   H236      1.0  0.08478  0.37737  0.78993  1.0000
  H   H237      1.0  0.17621  0.20324  0.96588  1.0000
  C   C223      1.0  0.15144  0.42115  0.80297  1.0000
  H   H238      1.0  0.13682  0.43825  0.75041  1.0000
  S   S93       1.0  0.19299  0.00501  0.88406  1.0000
  H   H239      1.0  0.18366  0.05148  0.86323  1.0000
  H   H240      1.0  0.08645  0.41637  0.80646  1.0000
  C   C224      1.0  0.15062  0.38549  0.78212  1.0000
  C   C225      1.0  0.16579  0.40893  0.79342  1.0000
  N   N17       1.0  0.22750  0.07157  0.85903  1.0000
  C   C226      1.0  0.24601  0.06005  0.86008  1.0000
  C   C227      1.0  0.23577  0.09875  0.86469  1.0000
  C   C228      1.0  0.27362  0.07590  0.86685  1.0000
  C   C229      1.0  0.26335  0.11531  0.87131  1.0000
  C   C230      1.0  0.28231  0.10370  0.87249  1.0000
  C   C231      1.0  0.19848  0.05490  0.85208  1.0000
  H   H241      1.0  0.23953  0.03840  0.85586  1.0000
  H   H242      1.0  0.22086  0.10763  0.86435  1.0000
  C   C232      1.0  0.00650  0.32550  0.84312  1.0000
  C   C233      1.0  0.10759  0.38643  0.79093  1.0000
  S   S94       1.0  0.27833  0.40168  0.75442  1.0000
  H   H243      1.0  0.23499  0.47085  0.77473  1.0000
  S   S95       1.0  0.98792  0.25523  0.88747  1.0000
  N   N18       1.0  0.12273  0.41001  0.80151  1.0000
  H   H244      1.0  0.11938  0.44618  0.81116  1.0000
  H   H245      1.0  0.35915  0.41408  0.81258  1.0000
  C   C234      1.0  0.12130  0.37406  0.78088  1.0000
  C   C235      1.0  0.00693  0.37579  0.83118  1.0000
  C   C236      1.0  0.10825  0.42292  0.81195  1.0000
  C   C237      1.0  0.33541  0.48566  0.82577  1.0000
  H   H246      1.0  0.30362  0.11612  0.87789  1.0000
  C   C238      1.0  0.04733  0.29598  0.99129  1.0000
  H   H247      1.0  0.21154  0.04334  0.97783  1.0000
  C   C239      1.0  0.22131  0.01030  0.98709  1.0000
  H   H248      1.0  0.16346  0.44011  0.81109  1.0000
  H   H249      1.0  0.00654  0.30617  0.84753  1.0000
  C   C240      1.0  0.21454  0.03269  0.98958  1.0000
  C   C241      1.0  0.99538  0.33925  0.85434  1.0000
  N   N19       1.0  0.35458  0.47499  0.81891  1.0000
  C   C242      1.0  0.28851  0.99120  0.84643  1.0000
  C   C243      1.0  0.24565  0.27853  0.98814  1.0000
  H   H250      1.0  0.98718  0.37538  0.85659  1.0000
  H   H251      1.0  0.05868  0.30986  0.98052  1.0000
  C   C244      1.0  0.34723  0.44687  0.81914  1.0000
  H   H252      1.0  0.32701  0.43212  0.82403  1.0000
  C   C245      1.0  0.17496  0.43336  0.74919  1.0000
  C   C246      1.0  0.26520  0.99361  0.85342  1.0000
  S   S96       1.0  0.08394  0.47704  0.74644  1.0000
  C   C247      1.0  0.99041  0.76911  0.02813  1.0000
  S   S97       1.0  0.00763  0.77925  0.10413  1.0000
  S   S98       1.0  0.02204  0.85858  0.11635  1.0000
  C   C248      1.0  0.03883  0.83586  0.05994  1.0000
  H   H253      1.0  0.16229  0.91495  0.15702  1.0000
  H   H254      1.0  0.01782  0.82893  0.05298  1.0000
  N   N20       1.0  0.05273  0.86640  0.06273  1.0000
  H   H255      1.0  0.05104  0.82830  0.05133  1.0000
  S   S99       1.0  0.15195  0.93045  0.09938  1.0000
  H   H256      1.0  0.16105  0.93862  0.13982  1.0000
  C   C249      1.0  0.03802  0.87940  0.06999  1.0000
  H   H257      1.0  0.25392  0.95868  0.11414  1.0000
  C   C250      1.0  0.05099  0.90841  0.07337  1.0000
  C   C251      1.0  0.05873  0.87786  0.11284  1.0000
  C   C252      1.0  0.07467  0.86517  0.10592  1.0000
  C   C253      1.0  0.10330  0.88155  0.10231  1.0000
  C   C254      1.0  0.11632  0.91081  0.10541  1.0000
  C   C255      1.0  0.10060  0.92345  0.11272  1.0000
  C   C256      1.0  0.07200  0.90702  0.11647  1.0000
  H   H258      1.0  0.06491  0.84275  0.10331  1.0000
  H   H259      1.0  0.11531  0.87149  0.09681  1.0000
  H   H260      1.0  0.11031  0.94590  0.11527  1.0000
  H   H261      1.0  0.05991  0.91703  0.12193  1.0000
  S   S100      1.0  0.00191  0.76623  0.05074  1.0000
  C   C257      1.0  0.21406  0.94121  0.12738  1.0000
  H   H262      1.0  0.16136  0.90603  0.13340  1.0000
  H   H263      1.0  0.02557  0.76614  0.01611  1.0000
  H   H264      1.0  0.11654  0.92241  0.05997  1.0000
  C   C258      1.0  0.24340  0.95581  0.12694  1.0000
  N   N21       1.0  0.20072  0.93834  0.14344  1.0000
  H   H265      1.0  0.20205  0.93244  0.11475  1.0000
  H   H266      1.0  0.03599  0.82541  0.07328  1.0000
  C   C259      1.0  0.25907  0.96741  0.14305  1.0000
  C   C260      1.0  0.07927  0.92405  0.06948  1.0000
  C   C261      1.0  0.16989  0.92381  0.14351  1.0000
  C   C262      1.0  0.24531  0.96482  0.15930  1.0000
  C   C263      1.0  0.09421  0.91058  0.06229  1.0000
  C   C264      1.0  0.21591  0.95032  0.15923  1.0000
  Fe  Fe49      1.0  0.99328  0.81276  0.10821  1.0000
  H   H267      1.0  0.25739  0.97455  0.17177  1.0000
  C   C265      1.0  0.08055  0.88154  0.05901  1.0000
  Fe  Fe50      1.0  0.18057  0.97781  0.10041  1.0000
  H   H268      1.0  0.01638  0.86720  0.07381  1.0000
  H   H269      1.0  0.08990  0.94640  0.07267  1.0000
  H   H270      1.0  0.09255  0.87112  0.05394  1.0000
  C   C266      1.0  0.99566  0.76552  0.99526  1.0000
  H   H271      1.0  0.20534  0.94884  0.17185  1.0000
  C   C267      1.0  0.00595  0.76730  0.01342  1.0000
  H   H272      1.0  0.03946  0.91843  0.07970  1.0000
  H   H273      1.0  0.23056  0.97961  0.00097  1.0000
  H   H274      1.0  0.28182  0.97924  0.14281  1.0000
  H   H275      1.0  0.99227  0.61124  0.24113  1.0000
  H   H276      1.0  0.31857  0.98091  0.47595  1.0000
  H   H277      1.0  0.99634  0.64428  0.26653  1.0000
  C   C268      1.0  0.47840  0.49202  0.26995  1.0000
  Fe  Fe51      1.0  0.03769  0.66876  0.56798  1.0000
  S   S101      1.0  0.07906  0.66647  0.56660  1.0000
  C   C269      1.0  0.44658  0.56904  0.54195  1.0000
  Fe  Fe52      1.0  0.05421  0.69486  0.60743  1.0000
  S   S102      1.0  0.09589  0.69380  0.60784  1.0000
  S   S103      1.0  0.04455  0.71253  0.63336  1.0000
  Fe  Fe53      1.0  0.09953  0.71009  0.57944  1.0000
  S   S104      1.0  0.14250  0.74027  0.56887  1.0000
  Fe  Fe54      1.0  0.07190  0.65089  0.59510  1.0000
  S   S105      1.0  0.07574  0.61417  0.60792  1.0000
  S   S106      1.0  0.05866  0.71367  0.57924  1.0000
  S   S107      1.0  0.02973  0.65081  0.59628  1.0000
  H   H278      1.0  0.00906  0.58706  0.59494  1.0000
  N   N22       1.0  0.09220  0.76779  0.69850  1.0000
  S   S108      1.0  0.01673  0.67143  0.71466  1.0000
  Fe  Fe55      1.0  0.26511  0.90058  0.57545  1.0000
  S   S109      1.0  0.27982  0.94663  0.58250  1.0000
  S   S110      1.0  0.21754  0.87331  0.57726  1.0000
  Fe  Fe56      1.0  0.32534  0.90904  0.57325  1.0000
  S   S111      1.0  0.34355  0.95464  0.58101  1.0000
  S   S112      1.0  0.35394  0.88976  0.56518  1.0000
  Fe  Fe57      1.0  0.31045  0.94130  0.60211  1.0000
  S   S113      1.0  0.31942  0.96250  0.63044  1.0000
  Fe  Fe58      1.0  0.31175  0.95630  0.56060  1.0000
  S   S114      1.0  0.29472  0.89527  0.59596  1.0000
  S   S115      1.0  0.29456  0.91070  0.55198  1.0000
  H   H279      1.0  0.99872  0.68832  0.52433  1.0000
  S   S116      1.0  0.27868  0.90941  0.70815  1.0000
  H   H280      1.0  0.05889  0.64753  0.71286  1.0000
  S   S117      1.0  0.39129  0.50509  0.58814  1.0000
  S   S118      1.0  0.08473  0.52341  0.55579  1.0000
  C   C270      1.0  0.31018  0.94737  0.65224  1.0000
  C   C271      1.0  0.47043  0.56503  0.54614  1.0000
  C   C272      1.0  0.06432  0.67103  0.51808  1.0000
  C   C273      1.0  0.29360  0.92494  0.68731  1.0000
  C   C274      1.0  0.29093  0.90734  0.67220  1.0000
  C   C275      1.0  0.29921  0.91844  0.65478  1.0000
  H   H281      1.0  0.28180  0.88488  0.67391  1.0000
  H   H282      1.0  0.29664  0.90459  0.64327  1.0000
  C   C276      1.0  0.45874  0.59303  0.73182  1.0000
  C   C277      1.0  0.38921  0.90795  0.57308  1.0000
  C   C278      1.0  0.40996  0.90221  0.56522  1.0000
  C   C279      1.0  0.43823  0.91645  0.57154  1.0000
  C   C280      1.0  0.44577  0.93675  0.58554  1.0000
  C   C281      1.0  0.42501  0.94239  0.59335  1.0000
  C   C282      1.0  0.39680  0.92790  0.58724  1.0000
  H   H283      1.0  0.40416  0.88674  0.55426  1.0000
  H   H284      1.0  0.45422  0.91215  0.56538  1.0000
  H   H285      1.0  0.43078  0.95811  0.60417  1.0000
  H   H286      1.0  0.38094  0.93205  0.59365  1.0000
  C   C283      1.0  0.43387  0.59957  0.57858  1.0000
  C   C284      1.0  0.44896  0.58595  0.58592  1.0000
  C   C285      1.0  0.43557  0.55690  0.58842  1.0000
  C   C286      1.0  0.40684  0.54123  0.58393  1.0000
  C   C287      1.0  0.39150  0.55473  0.57673  1.0000
  C   C288      1.0  0.40505  0.58390  0.57406  1.0000
  C   C289      1.0  0.44577  0.63542  0.71999  1.0000
  H   H287      1.0  0.44751  0.54655  0.59406  1.0000
  H   H288      1.0  0.36930  0.54277  0.57326  1.0000
  H   H289      1.0  0.39323  0.59432  0.56836  1.0000
  H   H290      1.0  0.33869  0.52103  0.62273  1.0000
  H   H291      1.0  0.05190  0.70318  0.52466  1.0000
  C   C290      1.0  0.08097  0.59048  0.59343  1.0000
  C   C291      1.0  0.08146  0.56643  0.60078  1.0000
  C   C292      1.0  0.08338  0.54607  0.58937  1.0000
  C   C293      1.0  0.08494  0.54975  0.57054  1.0000
  C   C294      1.0  0.08533  0.57420  0.56324  1.0000
  C   C295      1.0  0.08321  0.59447  0.57464  1.0000
  H   H292      1.0  0.07995  0.56332  0.61532  1.0000
  H   H293      1.0  0.08351  0.52747  0.59511  1.0000
  H   H294      1.0  0.08670  0.57719  0.54868  1.0000
  H   H295      1.0  0.08298  0.61297  0.56886  1.0000
  C   C296      1.0  0.16332  0.77711  0.57243  1.0000
  C   C297      1.0  0.19175  0.78924  0.56769  1.0000
  C   C298      1.0  0.20880  0.81849  0.56943  1.0000
  C   C299      1.0  0.19746  0.83611  0.57558  1.0000
  C   C300      1.0  0.16902  0.82399  0.58033  1.0000
  C   C301      1.0  0.15210  0.79467  0.57892  1.0000
  H   H296      1.0  0.20067  0.77592  0.56261  1.0000
  H   H297      1.0  0.23057  0.82742  0.56566  1.0000
  H   H298      1.0  0.15994  0.83739  0.58501  1.0000
  H   H299      1.0  0.13026  0.78577  0.58251  1.0000
  C   C302      1.0  0.03785  0.69602  0.65483  1.0000
  C   C303      1.0  0.01016  0.68356  0.66062  1.0000
  H   H300      1.0  0.01223  0.73892  0.68811  1.0000
  C   C304      1.0  0.02618  0.68117  0.69183  1.0000
  C   C305      1.0  0.05407  0.69327  0.68615  1.0000
  C   C306      1.0  0.05984  0.70053  0.66767  1.0000
  C   C307      1.0  0.07317  0.63568  0.65847  1.0000
  H   H301      1.0  0.36534  0.57132  0.61587  1.0000
  H   H302      1.0  0.07112  0.69744  0.69600  1.0000
  H   H303      1.0  0.08141  0.71089  0.66352  1.0000
  C   C308      1.0  0.30501  0.95391  0.68481  1.0000
  N   N23       1.0  0.22786  0.88595  0.63359  1.0000
  C   C309      1.0  0.23762  0.91000  0.62380  1.0000
  C   C310      1.0  0.22542  0.88702  0.65205  1.0000
  H   H304      1.0  0.19892  0.85293  0.61637  1.0000
  C   C311      1.0  0.23337  0.91275  0.66122  1.0000
  H   H305      1.0  0.04771  0.63456  0.63478  1.0000
  H   H306      1.0  0.41898  0.80415  0.56079  1.0000
  H   H307      1.0  0.23931  0.90911  0.60917  1.0000
  H   H308      1.0  0.21793  0.86806  0.65990  1.0000
  H   H309      1.0  0.36368  0.96004  0.67631  1.0000
  C   C312      1.0  0.36756  0.94881  0.68748  1.0000
  H   H310      1.0  0.09344  0.63670  0.68443  1.0000
  H   H311      1.0  0.45089  0.83580  0.55721  1.0000
  H   H312      1.0  0.42566  0.55223  0.54377  1.0000
  C   C313      1.0  0.38202  0.91445  0.69861  1.0000
  C   C314      1.0  0.10123  0.74614  0.53402  1.0000
  C   C315      1.0  0.01496  0.52251  0.57539  1.0000
  C   C316      1.0  0.02558  0.62327  0.67826  1.0000
  H   H313      1.0  0.31092  0.96499  0.50796  1.0000
  H   H314      1.0  0.47965  0.63787  0.53116  1.0000
  C   C317      1.0  0.47297  0.63771  0.71869  1.0000
  H   H315      1.0  0.47030  0.85730  0.59338  1.0000
  C   C318      1.0  0.37624  0.55982  0.62142  1.0000
  H   H316      1.0  0.12607  0.76023  0.70858  1.0000
  H   H317      1.0  0.04297  0.65540  0.51472  1.0000
  H   H318      1.0  0.03499  0.50501  0.60668  1.0000
  C   C319      1.0  0.21928  0.85895  0.62400  1.0000
  H   H319      1.0  0.41531  0.57137  0.73931  1.0000
  C   C320      1.0  0.07390  0.75852  0.71238  1.0000
  C   C321      1.0  0.01207  0.56603  0.57055  1.0000
  N   N24       1.0  0.01261  0.52507  0.59374  1.0000
  H   H320      1.0  0.41407  0.94229  0.53333  1.0000
  C   C322      1.0  0.37720  0.92879  0.68404  1.0000
  C   C323      1.0  0.41932  0.55787  0.63071  1.0000
  H   H321      1.0  0.44210  0.56785  0.63234  1.0000
  H   H322      1.0  0.23252  0.91365  0.67596  1.0000
  H   H323      1.0  0.09188  0.64064  0.65075  1.0000
  C   C324      1.0  0.03472  0.74771  0.69108  1.0000
  H   H324      1.0  0.03040  0.73987  0.71986  1.0000
  H   H325      1.0  0.46757  0.54481  0.55108  1.0000
  C   C325      1.0  0.47688  0.61711  0.53488  1.0000
  H   H326      1.0  0.37177  0.95895  0.51825  1.0000
  N   N25       1.0  0.42933  0.83746  0.58065  1.0000
  N   N26       1.0  0.09640  0.71798  0.52792  1.0000
  C   C326      1.0  0.11843  0.71121  0.52731  1.0000
  C   C327      1.0  0.06954  0.69819  0.52362  1.0000
  C   C328      1.0  0.11390  0.68412  0.52212  1.0000
  C   C329      1.0  0.41703  0.96028  0.54177  1.0000
  C   C330      1.0  0.08665  0.66396  0.51742  1.0000
  H   H327      1.0  0.25493  0.95520  0.62480  1.0000
  H   H328      1.0  0.13965  0.72663  0.53121  1.0000
  H   H329      1.0  0.00712  0.61941  0.68597  1.0000
  C   C331      1.0  0.36928  0.95238  0.53265  1.0000
  C   C332      1.0  0.43130  0.58999  0.73328  1.0000
  H   H330      1.0  0.08878  0.75397  0.52539  1.0000
  C   C333      1.0  0.00438  0.67584  0.67883  1.0000
  H   H331      1.0  0.12381  0.76150  0.53344  1.0000
  H   H332      1.0  0.23521  0.86051  0.61399  1.0000
  H   H333      1.0  0.12997  0.79508  0.71294  1.0000
  Fe  Fe59      1.0  0.29088  0.91987  0.73863  1.0000
  H   H334      1.0  0.45003  0.81217  0.57481  1.0000
  H   H335      1.0  0.37408  0.85010  0.59084  1.0000
  C   C334      1.0  0.41507  0.86961  0.60444  1.0000
  C   C335      1.0  0.04825  0.63207  0.64942  1.0000
  H   H336      1.0  0.01794  0.50511  0.56985  1.0000
  N   N27       1.0  0.37693  0.91960  0.71606  1.0000
  C   C336      1.0  0.40377  0.52931  0.63418  1.0000
  S   S119      1.0  0.45073  0.63576  0.57417  1.0000
  H   H337      1.0  0.36393  0.94378  0.73334  1.0000
  H   H338      1.0  0.21706  0.84195  0.63344  1.0000
  S   S120      1.0  0.00514  0.64347  0.54481  1.0000
  C   C337      1.0  0.01052  0.54796  0.60077  1.0000
  H   H339      1.0  0.37778  0.88296  0.72718  1.0000
  C   C338      1.0  0.43749  0.82153  0.56769  1.0000
  C   C339      1.0  0.07382  0.63324  0.67743  1.0000
  C   C340      1.0  0.04491  0.74819  0.70889  1.0000
  H   H340      1.0  0.30656  0.96769  0.69615  1.0000
  C   C341      1.0  0.31336  0.96503  0.66741  1.0000
  H   H341      1.0  0.00502  0.62379  0.65249  1.0000
  H   H342      1.0  0.47098  0.59770  0.58960  1.0000
  C   C342      1.0  0.05355  0.75755  0.67703  1.0000
  H   H343      1.0  0.46373  0.57652  0.73675  1.0000
  H   H344      1.0  0.41735  0.59504  0.62078  1.0000
  H   H345      1.0  0.40979  0.88287  0.61330  1.0000
  H   H346      1.0  0.01740  0.54111  0.54908  1.0000
  H   H347      1.0  0.01249  0.58238  0.56160  1.0000
  H   H348      1.0  0.00997  0.55076  0.61535  1.0000
  H   H349      1.0  0.35194  0.95609  0.53817  1.0000
  C   C343      1.0  0.44906  0.85541  0.59299  1.0000
  H   H350      1.0  0.41478  0.51727  0.63850  1.0000
  C   C344      1.0  0.24388  0.93742  0.65136  1.0000
  H   H351      1.0  0.06628  0.61745  0.71179  1.0000
  C   C345      1.0  0.08240  0.76743  0.68098  1.0000
  H   H352      1.0  0.13516  0.78497  0.69043  1.0000
  H   H353      1.0  0.25121  0.95760  0.65838  1.0000
  H   H354      1.0  0.36255  0.92939  0.53332  1.0000
  C   C346      1.0  0.42490  0.61148  0.72750  1.0000
  H   H355      1.0  0.13138  0.67875  0.52205  1.0000
  N   N28       1.0  0.05012  0.62688  0.68705  1.0000
  C   C347      1.0  0.02426  0.62579  0.65934  1.0000
  H   H356      1.0  0.32173  0.98743  0.66559  1.0000
  H   H357      1.0  0.99307  0.68076  0.65110  1.0000
  H   H358      1.0  0.09524  0.74562  0.54841  1.0000
  H   H359      1.0  0.17654  0.81945  0.73832  1.0000
  H   H360      1.0  0.10794  0.50497  0.66811  1.0000
  C   C348      1.0  0.12234  0.77755  0.70266  1.0000
  C   C349      1.0  0.00999  0.56862  0.58928  1.0000
  H   H361      1.0  0.38717  0.82183  0.56971  1.0000
  H   H362      1.0  0.09672  0.77413  0.66985  1.0000
  H   H363      1.0  0.03068  0.61260  0.71252  1.0000
  C   C350      1.0  0.32448  0.98675  0.50523  1.0000
  H   H364      1.0  0.38985  0.89916  0.69589  1.0000
  C   C351      1.0  0.44990  0.59532  0.53639  1.0000
  C   C352      1.0  0.44228  0.87182  0.60503  1.0000
  H   H365      1.0  0.43162  0.59916  0.53398  1.0000
  H   H366      1.0  0.45917  0.96828  0.55089  1.0000
  C   C353      1.0  0.01466  0.54287  0.56353  1.0000
  C   C354      1.0  0.24600  0.93609  0.63253  1.0000
  N   N29       1.0  0.37510  0.51649  0.63164  1.0000
  H   H367      1.0  0.38093  0.92450  0.67018  1.0000
  H   H368      1.0  0.04576  0.75635  0.66303  1.0000
  H   H369      1.0  0.45821  0.88664  0.61446  1.0000
  C   C355      1.0  0.39503  0.85119  0.59184  1.0000
  C   C356      1.0  0.36285  0.95422  0.70534  1.0000
  C   C357      1.0  0.36770  0.93938  0.71954  1.0000
  C   C358      1.0  0.40542  0.57316  0.62423  1.0000
  H   H370      1.0  0.08175  0.75875  0.72621  1.0000
  H   H371      1.0  0.08274  0.64278  0.51356  1.0000
  N   N30       1.0  0.47931  0.61699  0.72506  1.0000
  C   C359      1.0  0.40265  0.83540  0.57983  1.0000
  N   N31       1.0  0.39577  0.96803  0.54318  1.0000
  C   C360      1.0  0.05162  0.62603  0.70700  1.0000
  H   H372      1.0  0.40384  0.60960  0.72897  1.0000
  C   C361      1.0  0.36131  0.53131  0.62522  1.0000
  C   C362      1.0  0.38299  0.90497  0.73114  1.0000
  Fe  Fe60      1.0  0.04272  0.68452  0.74152  1.0000
  H   H373      1.0  0.00764  0.50601  0.61996  1.0000
  S   S121      1.0  0.48097  0.95693  0.59286  1.0000
  C   C363      1.0  0.01346  0.50364  0.60588  1.0000
  H   H374      1.0  0.40562  0.91620  0.73547  1.0000
  C   C364      1.0  0.98647  0.66852  0.51721  1.0000
  C   C365      1.0  0.44256  0.97488  0.55164  1.0000
  H   H375      1.0  0.35522  0.96964  0.70822  1.0000
  C   C366      1.0  0.98566  0.64382  0.52435  1.0000
  S   S122      1.0  0.08669  0.68938  0.74340  1.0000
  H   H376      1.0  0.44108  0.65229  0.71545  1.0000
  H   H377      1.0  0.37031  0.90400  0.74311  1.0000
  H   H378      1.0  0.22513  0.84665  0.75090  1.0000
  S   S123      1.0  0.01664  0.86704  0.92093  1.0000
  S   S124      1.0  0.00778  0.78886  0.92855  1.0000
  Fe  Fe61      1.0  0.04396  0.70131  0.78280  1.0000
  S   S125      1.0  0.08874  0.70726  0.78690  1.0000
  C   C367      1.0  0.08958  0.57046  0.81409  1.0000
  Fe  Fe62      1.0  0.09690  0.72866  0.75985  1.0000
  H   H379      1.0  0.01586  0.56804  0.81080  1.0000
  Fe  Fe63      1.0  0.07433  0.66697  0.76990  1.0000
  H   H380      1.0  0.25311  0.88100  0.80841  1.0000
  S   S126      1.0  0.05318  0.72498  0.75653  1.0000
  S   S127      1.0  0.02916  0.65968  0.76728  1.0000
  Fe  Fe64      1.0  0.33743  0.93273  0.76809  1.0000
  H   H381      1.0  0.16691  0.88301  0.94052  1.0000
  S   S128      1.0  0.35405  0.52275  0.78088  1.0000
  H   H382      1.0  0.41236  0.88040  0.79069  1.0000
  C   C368      1.0  0.26365  0.97317  0.81709  1.0000
  Fe  Fe65      1.0  0.28614  0.94231  0.77775  1.0000
  S   S129      1.0  0.30754  0.91880  0.79126  1.0000
  Fe  Fe66      1.0  0.17358  0.97214  0.90501  1.0000
  H   H383      1.0  0.14512  0.88200  0.92068  1.0000
  S   S130      1.0  0.14287  0.92778  0.89660  1.0000
  S   S131      1.0  0.31786  0.95899  0.75538  1.0000
  H   H384      1.0  0.47940  0.98831  0.80160  1.0000
  C   C369      1.0  0.01898  0.72480  0.82542  1.0000
  C   C370      1.0  0.08709  0.59554  0.81503  1.0000
  S   S132      1.0  0.01727  0.71389  0.80202  1.0000
  H   H385      1.0  0.41925  0.49866  0.80153  1.0000
  C   C371      1.0  0.00630  0.74221  0.83014  1.0000
  H   H386      1.0  0.03876  0.70025  0.83630  1.0000
  C   C372      1.0  0.44766  0.91541  0.77969  1.0000
  C   C373      1.0  0.41929  0.90046  0.78420  1.0000
  C   C374      1.0  0.39985  0.91143  0.78066  1.0000
  C   C375      1.0  0.40876  0.93778  0.77288  1.0000
  H   H387      1.0  0.10527  0.87717  0.93758  1.0000
  C   C376      1.0  0.45637  0.94139  0.77140  1.0000
  N   N32       1.0  0.21487  0.88371  0.81276  1.0000
  C   C377      1.0  0.20027  0.86562  0.79690  1.0000
  C   C378      1.0  0.44946  0.57846  0.77596  1.0000
  C   C379      1.0  0.43168  0.58999  0.78135  1.0000
  C   C380      1.0  0.40251  0.57271  0.78257  1.0000
  C   C381      1.0  0.39066  0.54387  0.77804  1.0000
  C   C382      1.0  0.40835  0.53247  0.77222  1.0000
  C   C383      1.0  0.43759  0.54960  0.77141  1.0000
  H   H388      1.0  0.44044  0.61212  0.78488  1.0000
  H   H389      1.0  0.38906  0.58176  0.78715  1.0000
  H   H390      1.0  0.39957  0.51036  0.76862  1.0000
  C   C384      1.0  0.16446  0.78815  0.75902  1.0000
  S   S133      1.0  0.13001  0.76967  0.74937  1.0000
  C   C385      1.0  0.21081  0.82815  0.75774  1.0000
  H   H391      1.0  0.19309  0.84323  0.80034  1.0000
  N   N33       1.0  0.06614  0.54524  0.81206  1.0000
  H   H392      1.0  0.03298  0.71000  0.86869  1.0000
  C   C386      1.0  0.28767  0.98078  0.82851  1.0000
  H   H393      1.0  0.18621  0.94457  0.94985  1.0000
  C   C387      1.0  0.07345  0.59769  0.76979  1.0000
  H   H394      1.0  0.99826  0.75081  0.81941  1.0000
  C   C388      1.0  0.07675  0.55316  0.76788  1.0000
  C   C389      1.0  0.04739  0.53818  0.76688  1.0000
  H   H395      1.0  0.45112  0.54045  0.76716  1.0000
  C   C390      1.0  0.04415  0.58281  0.76768  1.0000
  H   H396      1.0  0.37815  0.89977  0.78434  1.0000
  C   C391      1.0  0.18325  0.81256  0.75055  1.0000
  S   S134      1.0  0.00515  0.73898  0.88615  1.0000
  S   S135      1.0  0.25387  0.83986  0.78347  1.0000
  C   C392      1.0  0.05143  0.88399  0.91363  1.0000
  C   C393      1.0  0.06361  0.86898  0.90482  1.0000
  C   C394      1.0  0.09149  0.88291  0.89928  1.0000
  C   C395      1.0  0.10747  0.91181  0.90274  1.0000
  C   C396      1.0  0.09533  0.92687  0.91157  1.0000
  C   C397      1.0  0.06727  0.91298  0.91691  1.0000
  H   H397      1.0  0.05152  0.84665  0.90218  1.0000
  H   H398      1.0  0.10078  0.87118  0.89239  1.0000
  H   H399      1.0  0.10752  0.94916  0.91428  1.0000
  H   H400      1.0  0.05787  0.92469  0.92368  1.0000
  S   S136      1.0  0.25734  0.90582  0.75953  1.0000
  C   C398      1.0  0.03987  0.54417  0.81121  1.0000
  C   C399      1.0  0.24038  0.97571  0.82406  1.0000
  S   S137      1.0  0.21481  0.97438  0.91503  1.0000
  C   C400      1.0  0.03661  0.56886  0.81222  1.0000
  H   H401      1.0  0.00716  0.76257  0.98420  1.0000
  C   C401      1.0  0.17344  0.77936  0.77478  1.0000
  C   C402      1.0  0.24239  0.91660  0.84342  1.0000
  N   N34       1.0  0.14696  0.90973  0.94240  1.0000
  C   C403      1.0  0.11845  0.89715  0.94437  1.0000
  C   C404      1.0  0.10569  0.91037  0.95453  1.0000
  H   H402      1.0  0.02132  0.52427  0.80897  1.0000
  C   C405      1.0  0.00319  0.74801  0.84856  1.0000
  H   H403      1.0  0.20345  0.91884  0.84772  1.0000
  C   C406      1.0  0.16000  0.89570  0.93160  1.0000
  C   C407      1.0  0.20107  0.79510  0.78204  1.0000
  H   H404      1.0  0.08951  0.54196  0.76808  1.0000
  H   H405      1.0  0.10570  0.61563  0.81563  1.0000
  S   S138      1.0  0.31159  0.89451  0.75056  1.0000
  H   H406      1.0  0.11275  0.94710  0.97067  1.0000
  H   H407      1.0  0.03139  0.59399  0.76796  1.0000
  H   H408      1.0  0.20789  0.78831  0.79429  1.0000
  C   C408      1.0  0.16353  0.93485  0.95105  1.0000
  C   C409      1.0  0.06951  0.51939  0.81070  1.0000
  H   H409      1.0  0.44415  0.97296  0.76209  1.0000
  C   C410      1.0  0.15150  0.94861  0.96140  1.0000
  S   S139      1.0  0.47192  0.90228  0.78643  1.0000
  H   H410      1.0  0.38619  0.51582  0.81290  1.0000
  H   H411      1.0  0.16477  0.96878  0.96796  1.0000
  H   H412      1.0  0.17840  0.91137  0.92447  1.0000
  H   H413      1.0  0.08294  0.90074  0.95543  1.0000
  H   H414      1.0  0.25335  0.93008  0.85512  1.0000
  S   S140      1.0  0.38563  0.95329  0.76889  1.0000
  H   H415      1.0  0.22167  0.96993  0.81541  1.0000
  Fe  Fe67      1.0  0.27968  0.88304  0.77226  1.0000
  C   C411      1.0  0.12236  0.93637  0.96298  1.0000
  C   C412      1.0  0.06042  0.59468  0.81404  1.0000
  H   H416      1.0  0.99302  0.76107  0.85180  1.0000
  C   C413      1.0  0.02917  0.71384  0.83955  1.0000
  C   C414      1.0  0.21438  0.91036  0.83922  1.0000
  C   C415      1.0  0.03122  0.55321  0.76640  1.0000
  C   C416      1.0  0.24218  0.88934  0.81697  1.0000
  C   C417      1.0  0.21980  0.81963  0.77359  1.0000
  S   S141      1.0  0.09046  0.63422  0.77532  1.0000
  C   C418      1.0  0.08965  0.58272  0.76951  1.0000
  C   C419      1.0  0.38030  0.49349  0.81298  1.0000
  H   H417      1.0  0.21462  0.87038  0.78536  1.0000
  C   C420      1.0  0.02572  0.71934  0.85798  1.0000
  H   H418      1.0  0.27837  0.91119  0.83517  1.0000
  C   C421      1.0  0.20084  0.89377  0.82374  1.0000
  Fe  Fe68      1.0  0.98647  0.76349  0.90266  1.0000
  C   C422      1.0  0.25645  0.90609  0.83223  1.0000
  H   H419      1.0  0.17913  0.88917  0.82050  1.0000
  H   H420      1.0  0.22272  0.98687  0.84722  1.0000
  H   H421      1.0  0.20520  0.49225  0.78642  1.0000
  H   H422      1.0  0.30584  0.97920  0.82341  1.0000
  H   H423      1.0  0.11041  0.57134  0.81431  1.0000
  H   H424      1.0  0.15913  0.76054  0.78140  1.0000
  H   H425      1.0  0.05837  0.61411  0.81388  1.0000
  H   H426      1.0  0.18190  0.86880  0.79200  1.0000
  S   S142      1.0  0.26156  0.96093  0.79404  1.0000
  C   C423      1.0  0.01233  0.73609  0.86268  1.0000
  C   C424      1.0  0.43708  0.95262  0.76822  1.0000
  H   H427      1.0  0.47811  0.95312  0.76785  1.0000
  H   H428      1.0  0.11234  0.59402  0.77107  1.0000
  S   S143      1.0  0.02999  0.50100  0.76845  1.0000
  Fe  Fe69      1.0  0.99315  0.81978  0.91761  1.0000
  H   H429      1.0  0.08431  0.52118  0.79984  1.0000
  H   H430      1.0  0.33500  0.50221  0.81674  1.0000
  C   C425      1.0  0.24094  0.98541  0.84214  1.0000
  H   H431      1.0  0.44621  0.94527  0.81306  1.0000
  H   H432      1.0  0.07764  0.51531  0.82389  1.0000
  H   H433      1.0  0.00850  0.54183  0.76559  1.0000
  H   H434      1.0  0.34243  0.49469  0.83973  1.0000
  H   H435      1.0  0.04928  0.50089  0.80688  1.0000
  H   H436      1.0  0.45730  0.91996  0.82084  1.0000
  C   C426      1.0  0.46214  0.94254  0.82195  1.0000
  H   H437      1.0  0.45976  0.94782  0.83623  1.0000
  Fe  Fe70      1.0  0.78095  0.05935  0.11337  1.0000
  S   S144      1.0  0.74635  0.06991  0.10400  1.0000
  S   S145      1.0  0.82180  0.09343  0.12536  1.0000
  Fe  Fe71      1.0  0.71815  0.03267  0.12001  1.0000
  S   S146      1.0  0.68393  0.03779  0.13631  1.0000
  Fe  Fe72      1.0  0.73943  0.04007  0.08022  1.0000
  S   S147      1.0  0.73541  0.05684  0.05203  1.0000
  S   S148      1.0  0.75343  0.02334  0.13058  1.0000
  S   S149      1.0  0.77642  0.03253  0.08870  1.0000
  C   C427      1.0  0.49689  0.18547  0.22233  1.0000
  S   S150      1.0  0.65260  0.13577  0.22959  1.0000
  S   S151      1.0  0.67878  0.07810  0.21880  1.0000
  H   H438      1.0  0.95635  0.31008  0.23426  1.0000
  S   S152      1.0  0.79422  0.27760  0.21970  1.0000
  Fe  Fe73      1.0  0.97845  0.27913  0.06871  1.0000
  C   C428      1.0  0.49111  0.17531  0.23998  1.0000
  N   N35       1.0  0.73997  0.15964  0.21440  1.0000
  C   C429      1.0  0.53414  0.17167  0.24218  1.0000
  H   H439      1.0  0.81909  0.40326  0.19701  1.0000
  H   H440      1.0  0.97248  0.37720  0.23571  1.0000
  Fe  Fe74      1.0  0.95566  0.27284  0.10810  1.0000
  S   S153      1.0  0.95636  0.23095  0.11079  1.0000
  S   S154      1.0  0.92953  0.28441  0.12838  1.0000
  Fe  Fe75      1.0  0.93827  0.22185  0.08223  1.0000
  S   S155      1.0  0.90253  0.18195  0.07094  1.0000
  S   S156      1.0  0.93515  0.26225  0.07970  1.0000
  Fe  Fe76      1.0  0.89763  0.33651  0.22696  1.0000
  S   S157      1.0  0.86266  0.34647  0.21675  1.0000
  S   S158      1.0  0.93181  0.33432  0.20919  1.0000
  H   H441      1.0  0.76898  0.19089  0.19745  1.0000
  C   C430      1.0  0.66935  0.06421  0.09717  1.0000
  C   C431      1.0  0.77609  0.33161  0.23419  1.0000
  C   C432      1.0  0.95487  0.30776  0.16265  1.0000
  H   H442      1.0  0.84589  0.39704  0.20906  1.0000
  C   C433      1.0  0.64612  0.01275  0.09408  1.0000
  C   C434      1.0  0.87389  0.44463  0.24121  1.0000
  H   H443      1.0  0.72627  0.12507  0.19580  1.0000
  C   C435      1.0  0.93077  0.29797  0.15107  1.0000
  H   H444      1.0  0.79784  0.33180  0.21003  1.0000
  C   C436      1.0  0.95471  0.31864  0.18030  1.0000
  C   C437      1.0  0.93045  0.31970  0.18682  1.0000
  C   C438      1.0  0.90624  0.30956  0.17533  1.0000
  C   C439      1.0  0.90649  0.29897  0.15762  1.0000
  H   H445      1.0  0.88743  0.31031  0.17997  1.0000
  H   H446      1.0  0.88775  0.29178  0.14884  1.0000
  C   C440      1.0  0.72332  0.21353  0.23725  1.0000
  Fe  Fe77      1.0  0.65375  0.09502  0.23636  1.0000
  H   H447      1.0  0.68446  0.05984  0.06353  1.0000
  C   C441      1.0  0.89643  0.45692  0.22966  1.0000
  H   H448      1.0  0.73940  0.23259  0.21164  1.0000
  C   C442      1.0  0.67119  0.03969  0.06929  1.0000
  C   C443      1.0  0.78187  0.19936  0.22569  1.0000
  H   H449      1.0  0.90680  0.44482  0.22473  1.0000
  Fe  Fe78      1.0  0.74577  0.99663  0.10496  1.0000
  H   H450      1.0  0.67300  0.01658  0.04548  1.0000
  H   H451      1.0  0.94366  0.25355  0.02890  1.0000
  C   C444      1.0  0.84386  0.11802  0.11015  1.0000
  C   C445      1.0  0.83806  0.11447  0.09136  1.0000
  C   C446      1.0  0.85633  0.13420  0.07945  1.0000
  C   C447      1.0  0.88020  0.15772  0.08627  1.0000
  C   C448      1.0  0.88600  0.16128  0.10507  1.0000
  C   C449      1.0  0.86792  0.14138  0.11698  1.0000
  H   H452      1.0  0.81956  0.09646  0.08599  1.0000
  H   H453      1.0  0.85178  0.13132  0.06490  1.0000
  H   H454      1.0  0.90441  0.17926  0.11042  1.0000
  H   H455      1.0  0.87249  0.14411  0.13152  1.0000
  C   C450      1.0  0.73174  0.04204  0.02958  1.0000
  C   C451      1.0  0.73677  0.05962  0.01448  1.0000
  C   C452      1.0  0.72239  0.01326  0.02635  1.0000
  H   H456      1.0  0.74379  0.08187  0.01675  1.0000
  C   C453      1.0  0.86991  0.48878  0.24234  1.0000
  C   C454      1.0  0.68352  0.05000  0.15918  1.0000
  C   C455      1.0  0.66090  0.05540  0.16425  1.0000
  C   C456      1.0  0.65919  0.06432  0.18223  1.0000
  C   C457      1.0  0.67990  0.06757  0.19560  1.0000
  C   C458      1.0  0.70260  0.06235  0.19050  1.0000
  C   C459      1.0  0.70454  0.05386  0.17246  1.0000
  H   H457      1.0  0.64438  0.05245  0.15424  1.0000
  H   H458      1.0  0.64153  0.06812  0.18579  1.0000
  H   H459      1.0  0.71878  0.06465  0.20062  1.0000
  H   H460      1.0  0.72203  0.04972  0.16896  1.0000
  S   S159      1.0  0.70819  0.00308  0.09529  1.0000
  C   C460      1.0  0.50805  0.43430  0.23914  1.0000
  C   C461      1.0  0.79327  0.34464  0.21968  1.0000
  H   H461      1.0  0.82251  0.37172  0.19239  1.0000
  C   C462      1.0  0.66476  0.01522  0.05899  1.0000
  C   C463      1.0  0.97777  0.29176  0.02036  1.0000
  N   N36       1.0  0.85971  0.20674  0.11950  1.0000
  C   C464      1.0  0.87001  0.22149  0.10408  1.0000
  C   C465      1.0  0.83632  0.18133  0.11848  1.0000
  C   C466      1.0  0.85732  0.21057  0.08699  1.0000
  C   C467      1.0  0.82293  0.16989  0.10162  1.0000
  C   C468      1.0  0.83367  0.18456  0.08578  1.0000
  C   C469      1.0  0.87428  0.21842  0.13708  1.0000
  H   H462      1.0  0.88846  0.24166  0.10495  1.0000
  H   H463      1.0  0.82837  0.16925  0.13061  1.0000
  H   H464      1.0  0.86630  0.22184  0.07473  1.0000
  H   H465      1.0  0.80505  0.14924  0.10079  1.0000
  H   H466      1.0  0.82419  0.17543  0.07256  1.0000
  H   H467      1.0  0.87352  0.23856  0.14018  1.0000
  H   H468      1.0  0.86495  0.20393  0.14844  1.0000
  H   H469      1.0  0.89681  0.22285  0.13652  1.0000
  C   C470      1.0  0.76868  0.25417  0.23396  1.0000
  H   H470      1.0  0.66787  0.08063  0.08859  1.0000
  C   C471      1.0  0.76389  0.18357  0.21121  1.0000
  C   C472      1.0  0.94556  0.14200  0.11569  1.0000
  C   C473      1.0  0.50043  0.47362  0.22912  1.0000
  H   H471      1.0  0.69905  0.13418  0.20268  1.0000
  H   H472      1.0  0.52621  0.19586  0.20073  1.0000
  Fe  Fe79      1.0  0.87012  0.37193  0.24283  1.0000
  H   H473      1.0  0.63953  0.01154  0.10803  1.0000
  H   H474      1.0  0.52287  0.12137  0.21152  1.0000
  H   H475      1.0  0.90910  0.11967  0.07578  1.0000
  C   C474      1.0  0.51765  0.11207  0.22477  1.0000
  H   H476      1.0  0.70403  0.19737  0.23119  1.0000
  C   C475      1.0  0.73364  0.15052  0.23179  1.0000
  H   H477      1.0  0.65540  0.06078  0.10884  1.0000
  H   H478      1.0  0.69122  0.07196  0.10285  1.0000
  H   H479      1.0  0.92395  0.23739  0.99748  1.0000
  C   C476      1.0  0.90585  0.48516  0.22466  1.0000
  S   S160      1.0  0.98016  0.23786  0.06942  1.0000
  C   C477      1.0  0.52168  0.18845  0.21452  1.0000
  C   C478      1.0  0.90046  0.10052  0.10973  1.0000
  H   H480      1.0  0.89395  0.10434  0.12332  1.0000
  C   C479      1.0  0.92607  0.13217  0.08544  1.0000
  C   C480      1.0  0.96906  0.16557  0.10990  1.0000
  N   N37       1.0  0.80454  0.37313  0.21791  1.0000
  C   C481      1.0  0.48944  0.44494  0.23319  1.0000
  C   C482      1.0  0.73255  0.04867  0.99642  1.0000
  H   H481      1.0  0.88167  0.09421  0.10034  1.0000
  C   C483      1.0  0.94921  0.15561  0.07921  1.0000
  C   C484      1.0  0.82389  0.38688  0.20332  1.0000
  C   C485      1.0  0.74334  0.23349  0.22622  1.0000
  C   C486      1.0  0.94282  0.25693  0.99952  1.0000
  N   N38       1.0  0.66161  0.03824  0.08651  1.0000
  Fe  Fe80      1.0  0.83502  0.30946  0.23314  1.0000
  H   H482      1.0  0.94432  0.13689  0.13000  1.0000
  C   C487      1.0  0.49024  0.10354  0.23102  1.0000
  H   H483      1.0  0.80023  0.21893  0.22319  1.0000
  S   S161      1.0  0.57341  0.12296  0.22793  1.0000
  C   C488      1.0  0.95388  0.26611  0.01739  1.0000
  N   N39       1.0  0.92439  0.12573  0.10350  1.0000
  H   H484      1.0  0.76747  0.30905  0.23566  1.0000
  H   H485      1.0  0.90614  0.08282  0.11058  1.0000
  C   C489      1.0  0.72156  0.14294  0.19912  1.0000
  C   C490      1.0  0.53846  0.10909  0.23561  1.0000
  H   H486      1.0  0.97378  0.30731  0.15792  1.0000
  H   H487      1.0  0.72404  0.15565  0.18679  1.0000
  C   C491      1.0  0.71756  0.00223  0.00830  1.0000
  H   H488      1.0  0.48629  0.48211  0.22447  1.0000
  H   H489      1.0  0.94996  0.16125  0.06500  1.0000
  H   H490      1.0  0.80897  0.41191  0.22931  1.0000
  H   H491      1.0  0.71832  0.99938  0.03774  1.0000
  C   C492      1.0  0.53730  0.45201  0.24053  1.0000
  H   H492      1.0  0.71487  0.13142  0.23430  1.0000
  H   H493      1.0  0.97367  0.32647  0.18891  1.0000
  C   C493      1.0  0.79914  0.38923  0.23034  1.0000
  C   C494      1.0  0.54828  0.48071  0.23650  1.0000
  S   S162      1.0  0.86944  0.29839  0.24228  1.0000
  H   H494      1.0  0.50002  0.41229  0.24222  1.0000
  H   H495      1.0  0.55963  0.18324  0.21851  1.0000
  C   C495      1.0  0.54052  0.18162  0.22451  1.0000
  C   C496      1.0  0.97086  0.17228  0.09153  1.0000
  Fe  Fe81      1.0  0.60944  0.11675  0.24179  1.0000
  C   C497      1.0  0.98421  0.36560  0.24083  1.0000
  C   C498      1.0  0.77525  0.19048  0.24349  1.0000
  Fe  Fe82      1.0  0.62932  0.09462  0.27484  1.0000
  S   S163      1.0  0.62646  0.13478  0.26970  1.0000
  S   S164      1.0  0.61306  0.07677  0.30279  1.0000
  S   S165      1.0  0.67306  0.11038  0.26474  1.0000
  Fe  Fe83      1.0  0.64652  0.09482  0.40884  1.0000
  S   S166      1.0  0.64175  0.13437  0.40703  1.0000
  S   S167      1.0  0.66202  0.08167  0.38346  1.0000
  Fe  Fe84      1.0  0.62332  0.08243  0.44843  1.0000
  S   S168      1.0  0.61748  0.12196  0.44835  1.0000
  S   S169      1.0  0.59917  0.05026  0.47046  1.0000
  Fe  Fe85      1.0  0.60021  0.10971  0.41969  1.0000
  S   S170      1.0  0.55958  0.10445  0.40582  1.0000
  Fe  Fe86      1.0  0.66014  0.14296  0.43566  1.0000
  S   S171      1.0  0.69113  0.18767  0.44464  1.0000
  S   S172      1.0  0.60391  0.06947  0.41999  1.0000
  S   S173      1.0  0.66736  0.10425  0.43725  1.0000
  Fe  Fe87      1.0  0.87587  0.32742  0.26655  1.0000
  C   C499      1.0  0.53131  0.09665  0.25259  1.0000
  S   S174      1.0  0.87874  0.31150  0.29518  1.0000
  C   C500      1.0  0.48729  0.47833  0.45543  1.0000
  H   H496      1.0  0.55156  0.44337  0.24463  1.0000
  Fe  Fe88      1.0  0.85891  0.36590  0.43566  1.0000
  S   S175      1.0  0.90294  0.38320  0.42640  1.0000
  S   S176      1.0  0.84069  0.39523  0.44445  1.0000
  Fe  Fe89      1.0  0.84994  0.30564  0.43050  1.0000
  S   S177      1.0  0.89453  0.31995  0.42104  1.0000
  S   S178      1.0  0.82124  0.25826  0.43062  1.0000
  Fe  Fe90      1.0  0.90769  0.35170  0.44461  1.0000
  S   S179      1.0  0.94951  0.37154  0.46187  1.0000
  Fe  Fe91      1.0  0.88566  0.35038  0.40381  1.0000
  S   S180      1.0  0.89702  0.36824  0.37510  1.0000
  S   S181      1.0  0.86379  0.33544  0.45495  1.0000
  S   S182      1.0  0.84092  0.33473  0.41232  1.0000
  H   H497      1.0  0.84465  0.37052  0.37994  1.0000
  H   H498      1.0  0.84325  0.45142  0.25642  1.0000
  S   S183      1.0  0.90753  0.36505  0.25223  1.0000
  S   S184      1.0  0.83906  0.33526  0.25820  1.0000
  H   H499      1.0  0.91777  0.28822  0.28597  1.0000
  C   C501      1.0  0.88229  0.32750  0.31723  1.0000
  C   C502      1.0  0.89049  0.35625  0.31970  1.0000
  C   C503      1.0  0.89466  0.36821  0.33747  1.0000
  C   C504      1.0  0.89028  0.35162  0.35303  1.0000
  C   C505      1.0  0.88159  0.32280  0.35054  1.0000
  C   C506      1.0  0.87790  0.31093  0.33278  1.0000
  H   H500      1.0  0.89407  0.36936  0.30794  1.0000
  H   H501      1.0  0.90151  0.39053  0.33915  1.0000
  H   H502      1.0  0.87826  0.30972  0.36230  1.0000
  H   H503      1.0  0.87166  0.28870  0.33111  1.0000
  C   C507      1.0  0.72576  0.20816  0.43709  1.0000
  C   C508      1.0  0.73945  0.23699  0.44171  1.0000
  C   C509      1.0  0.76822  0.25327  0.43839  1.0000
  C   C510      1.0  0.78383  0.24069  0.43084  1.0000
  C   C511      1.0  0.76985  0.21214  0.42550  1.0000
  C   C512      1.0  0.74093  0.19600  0.42843  1.0000
  H   H504      1.0  0.72789  0.24664  0.44834  1.0000
  H   H505      1.0  0.77862  0.27519  0.44256  1.0000
  H   H506      1.0  0.78173  0.20220  0.41964  1.0000
  H   H507      1.0  0.73076  0.17385  0.42486  1.0000
  C   C513      1.0  0.53850  0.11644  0.41764  1.0000
  C   C514      1.0  0.54810  0.13183  0.43403  1.0000
  C   C515      1.0  0.53012  0.13951  0.44379  1.0000
  C   C516      1.0  0.50234  0.13140  0.43737  1.0000
  C   C517      1.0  0.51101  0.43742  0.43457  1.0000
  C   C518      1.0  0.51113  0.10939  0.41084  1.0000
  H   H508      1.0  0.56930  0.13768  0.43923  1.0000
  H   H509      1.0  0.53754  0.15124  0.45652  1.0000
  H   H510      1.0  0.50368  0.09771  0.39809  1.0000
  H   H511      1.0  0.90538  0.46686  0.37611  1.0000
  C   C519      1.0  0.90389  0.44990  0.47301  1.0000
  C   C520      1.0  0.56189  0.04020  0.34010  1.0000
  C   C521      1.0  0.79128  0.24498  0.47932  1.0000
  H   H512      1.0  0.97226  0.37395  0.27452  1.0000
  C   C522      1.0  0.49340  0.05646  0.44012  1.0000
  C   C523      1.0  0.95984  0.37764  0.48561  1.0000
  C   C524      1.0  0.58258  0.01299  0.32457  1.0000
  C   C525      1.0  0.78030  0.17517  0.46030  1.0000
  Fe  Fe92      1.0  0.66923  0.14963  0.25826  1.0000
  C   C526      1.0  0.63195  0.08487  0.32417  1.0000
  C   C527      1.0  0.62254  0.09570  0.33858  1.0000
  C   C528      1.0  0.63238  0.09596  0.35671  1.0000
  C   C529      1.0  0.65136  0.08484  0.36070  1.0000
  C   C530      1.0  0.66159  0.07505  0.34621  1.0000
  C   C531      1.0  0.65206  0.07515  0.32808  1.0000
  H   H513      1.0  0.60663  0.10282  0.33582  1.0000
  H   H514      1.0  0.62441  0.10375  0.36767  1.0000
  H   H515      1.0  0.67634  0.06649  0.34909  1.0000
  H   H516      1.0  0.65904  0.06613  0.31724  1.0000
  N   N40       1.0  0.51738  0.08328  0.46710  1.0000
  C   C532      1.0  0.86390  0.41555  0.37757  1.0000
  C   C533      1.0  0.55404  0.48157  0.43634  1.0000
  H   H517      1.0  0.53031  0.46648  0.48098  1.0000
  C   C534      1.0  0.55745  0.05257  0.35580  1.0000
  C   C535      1.0  0.88132  0.44000  0.42713  1.0000
  C   C536      1.0  0.85765  0.43053  0.43778  1.0000
  C   C537      1.0  0.84739  0.44953  0.44325  1.0000
  N   N41       1.0  0.91506  0.43142  0.47052  1.0000
  H   H518      1.0  0.88901  0.42566  0.42236  1.0000
  H   H519      1.0  0.82894  0.44235  0.45140  1.0000
  C   C538      1.0  0.93610  0.29585  0.25954  1.0000
  C   C539      1.0  0.51475  0.47772  0.27715  1.0000
  H   H520      1.0  0.88434  0.44350  0.47999  1.0000
  C   C540      1.0  0.93942  0.43926  0.46139  1.0000
  H   H521      1.0  0.91363  0.47533  0.41429  1.0000
  C   C541      1.0  0.75341  0.23570  0.26386  1.0000
  H   H522      1.0  0.84066  0.45903  0.39608  1.0000
  C   C542      1.0  0.91695  0.47694  0.46606  1.0000
  H   H523      1.0  0.80487  0.41411  0.40752  1.0000
  H   H524      1.0  0.52100  0.46102  0.27892  1.0000
  H   H525      1.0  0.56698  0.06057  0.38462  1.0000
  C   C543      1.0  0.59031  0.02405  0.35724  1.0000
  H   H526      1.0  0.50895  0.48255  0.40267  1.0000
  H   H527      1.0  0.60383  0.01362  0.35789  1.0000
  C   C544      1.0  0.94532  0.33198  0.28240  1.0000
  C   C545      1.0  0.53785  0.45430  0.44247  1.0000
  C   C546      1.0  0.49431  0.07278  0.45536  1.0000
  N   N42       1.0  0.68215  0.15698  0.33142  1.0000
  C   C547      1.0  0.67010  0.16818  0.34317  1.0000
  C   C548      1.0  0.69934  0.14580  0.33795  1.0000
  C   C549      1.0  0.67541  0.16867  0.36200  1.0000
  C   C550      1.0  0.70516  0.14601  0.35669  1.0000
  C   C551      1.0  0.69307  0.15750  0.36876  1.0000
  C   C552      1.0  0.67546  0.15600  0.31182  1.0000
  H   H528      1.0  0.65602  0.17651  0.33800  1.0000
  H   H529      1.0  0.70819  0.13610  0.32872  1.0000
  H   H530      1.0  0.66559  0.17725  0.37134  1.0000
  H   H531      1.0  0.71815  0.13645  0.36190  1.0000
  H   H532      1.0  0.69691  0.15716  0.38335  1.0000
  H   H533      1.0  0.68933  0.15009  0.30359  1.0000
  H   H534      1.0  0.65333  0.14038  0.30877  1.0000
  H   H535      1.0  0.67836  0.17692  0.30714  1.0000
  H   H536      1.0  0.80697  0.36958  0.39969  1.0000
  C   C553      1.0  0.49303  0.11672  0.42072  1.0000
  H   H537      1.0  0.57483  0.01930  0.31199  1.0000
  H   H538      1.0  0.79308  0.27123  0.25890  1.0000
  H   H539      1.0  0.88073  0.41568  0.36945  1.0000
  C   C554      1.0  0.50371  0.08749  0.25866  1.0000
  C   C555      1.0  0.82225  0.38929  0.39440  1.0000
  H   H540      1.0  0.54862  0.16575  0.24961  1.0000
  S   S185      1.0  0.60958  0.07508  0.24720  1.0000
  C   C556      1.0  0.74974  0.19919  0.47689  1.0000
  N   N43       1.0  0.49351  0.46960  0.47171  1.0000
  H   H541      1.0  0.49838  0.07771  0.27175  1.0000
  C   C557      1.0  0.89505  0.46821  0.42232  1.0000
  C   C558      1.0  0.58625  0.03610  0.37319  1.0000
  H   H542      1.0  0.94844  0.42470  0.45953  1.0000
  H   H543      1.0  0.92521  0.27408  0.25497  1.0000
  H   H544      1.0  0.88644  0.48476  0.38463  1.0000
  H   H545      1.0  0.80853  0.25743  0.47012  1.0000
  C   C559      1.0  0.90135  0.40352  0.47840  1.0000
  H   H546      1.0  0.55664  0.05572  0.44742  1.0000
  H   H547      1.0  0.75743  0.23658  0.27844  1.0000
  C   C560      1.0  0.86095  0.47785  0.43820  1.0000
  C   C561      1.0  0.88438  0.46679  0.37577  1.0000
  H   H548      1.0  0.94140  0.33832  0.29570  1.0000
  H   H549      1.0  0.75814  0.33807  0.25861  1.0000
  H   H550      1.0  0.59672  0.03512  0.38591  1.0000
  H   H551      1.0  0.90803  0.38870  0.47185  1.0000
  C   C562      1.0  0.77360  0.25537  0.25282  1.0000
  N   N44       1.0  0.57820  0.02621  0.34098  1.0000
  H   H552      1.0  0.49848  0.41659  0.43955  1.0000
  H   H553      1.0  0.51608  0.03863  0.42506  1.0000
  C   C563      1.0  0.86067  0.46070  0.24746  1.0000
  C   C564      1.0  0.96265  0.35197  0.27036  1.0000
  C   C565      1.0  0.73642  0.17076  0.47171  1.0000
  C   C566      1.0  0.52242  0.48257  0.47948  1.0000
  C   C567      1.0  0.53898  0.06036  0.44954  1.0000
  C   C568      1.0  0.75101  0.16589  0.24659  1.0000
  N   N45       1.0  0.50941  0.16811  0.24954  1.0000
  N   N46       1.0  0.77758  0.21527  0.47363  1.0000
  C   C569      1.0  0.72842  0.21453  0.25610  1.0000
  C   C570      1.0  0.75181  0.15873  0.46332  1.0000
  H   H554      1.0  0.87882  0.47026  0.36162  1.0000
  H   H555      1.0  0.78843  0.20309  0.25489  1.0000
  C   C571      1.0  0.84356  0.38984  0.38352  1.0000
  H   H556      1.0  0.50506  0.11207  0.47997  1.0000
  N   N47       1.0  0.86288  0.44005  0.38220  1.0000
  S   S186      1.0  0.70469  0.18914  0.27034  1.0000
  C   C572      1.0  0.51604  0.05048  0.43713  1.0000
  H   H557      1.0  0.74148  0.13689  0.45879  1.0000
  C   C573      1.0  0.84143  0.43962  0.39230  1.0000
  C   C574      1.0  0.93197  0.30377  0.27691  1.0000
  H   H558      1.0  0.51628  0.14737  0.27273  1.0000
  C   C575      1.0  0.53928  0.07675  0.46459  1.0000
  C   C576      1.0  0.95283  0.46602  0.45405  1.0000
  H   H559      1.0  0.97177  0.47190  0.44646  1.0000
  C   C577      1.0  0.94146  0.48493  0.45640  1.0000
  H   H560      1.0  0.90695  0.40484  0.49318  1.0000
  N   N48       1.0  0.96680  0.34402  0.25339  1.0000
  H   H561      1.0  0.73730  0.20852  0.48283  1.0000
  H   H562      1.0  0.54601  0.44630  0.45350  1.0000
  H   H563      1.0  0.54512  0.06428  0.35506  1.0000
  H   H564      1.0  0.55742  0.08455  0.47404  1.0000
  C   C578      1.0  0.51698  0.47461  0.41380  1.0000
  C   C579      1.0  0.82100  0.41428  0.39873  1.0000
  H   H565      1.0  0.60543  0.01973  0.32296  1.0000
  H   H566      1.0  0.54707  0.09412  0.26105  1.0000
  H   H567      1.0  0.81488  0.21647  0.46269  1.0000
  H   H568      1.0  0.55293  0.04258  0.32712  1.0000
  H   H569      1.0  0.79235  0.16624  0.45342  1.0000
  C   C580      1.0  0.56972  0.05047  0.37244  1.0000
  C   C581      1.0  0.79296  0.20357  0.46564  1.0000
  C   C582      1.0  0.77080  0.34791  0.24705  1.0000
  H   H570      1.0  0.74524  0.15917  0.26040  1.0000
  H   H571      1.0  0.80011  0.24728  0.49346  1.0000
  C   C583      1.0  0.88497  0.48722  0.42782  1.0000
  C   C584      1.0  0.50252  0.15697  0.26787  1.0000
  H   H572      1.0  0.87809  0.39446  0.47629  1.0000
  C   C585      1.0  0.50051  0.44763  0.42024  1.0000
  C   C586      1.0  0.60019  0.03430  0.49188  1.0000
  H   H573      1.0  0.71401  0.15847  0.47354  1.0000
  C   C587      1.0  0.95374  0.31636  0.24789  1.0000
  H   H574      1.0  0.77901  0.38994  0.25528  1.0000
  H   H575      1.0  0.50467  0.17393  0.27760  1.0000
  S   S187      1.0  0.86108  0.40944  0.24839  1.0000
  C   C588      1.0  0.48644  0.47070  0.27302  1.0000
  H   H576      1.0  0.77614  0.25421  0.47854  1.0000
  C   C589      1.0  0.78235  0.37693  0.24513  1.0000
  H   H577      1.0  0.54010  0.11757  0.48561  1.0000
  C   C590      1.0  0.51830  0.10098  0.48275  1.0000
  H   H578      1.0  0.55521  0.00897  0.49137  1.0000
  C   C591      1.0  0.62525  0.04077  0.50198  1.0000
  H   H579      1.0  0.61063  0.03771  0.63101  1.0000
  C   C592      1.0  0.61721  0.04061  0.60209  1.0000
  C   C593      1.0  0.61809  0.03046  0.61945  1.0000
  C   C594      1.0  0.59948  0.00739  0.52574  1.0000
  C   C595      1.0  0.62486  0.02741  0.51869  1.0000
  H   H580      1.0  0.64448  0.03255  0.52617  1.0000
  H   H581      1.0  0.92036  0.34797  0.49584  1.0000
  C   C596      1.0  0.57439  0.00107  0.51570  1.0000
  H   H582      1.0  0.62802  0.00206  0.63526  1.0000
  C   C597      1.0  0.95149  0.36754  0.51787  1.0000
  H   H583      1.0  0.93739  0.35562  0.52831  1.0000
  C   C598      1.0  0.62595  0.03029  0.58730  1.0000
  H   H584      1.0  0.60909  0.05588  0.60002  1.0000
  H   H585      1.0  0.62454  0.03732  0.57362  1.0000
  C   C599      1.0  0.94170  0.36317  0.49941  1.0000
  C   C600      1.0  0.63540  0.00983  0.59007  1.0000
  H   H586      1.0  0.64117  0.00119  0.57836  1.0000
  H   H587      1.0  0.51064  0.08795  0.49495  1.0000
  C   C601      1.0  0.62797  0.01024  0.62176  1.0000
  H   H588      1.0  0.64501  0.05592  0.49686  1.0000
  N   N49       1.0  0.63665  0.00034  0.60718  1.0000
  C   C602      1.0  0.97933  0.38686  0.52295  1.0000
  C   C603      1.0  0.57479  0.01435  0.49895  1.0000
  S   S188      1.0  0.60061  0.99115  0.54702  1.0000
  N   N50       1.0  0.84644  0.13964  0.95315  1.0000
  H   H589      1.0  0.88722  0.19456  0.86286  1.0000
  Fe  Fe93      1.0  0.76244  0.06396  0.91394  1.0000
  S   S189      1.0  0.71700  0.04767  0.92228  1.0000
  S   S190      1.0  0.78969  0.11165  0.91303  1.0000
  Fe  Fe94      1.0  0.72745  0.02077  0.94195  1.0000
  C   C604      1.0  0.72257  0.01979  0.99319  1.0000
  Fe  Fe95      1.0  0.70727  0.01398  0.90033  1.0000
  N   N51       1.0  0.91952  0.23489  0.85656  1.0000
  S   S191      1.0  0.77283  0.03875  0.93472  1.0000
  S   S192      1.0  0.75199  0.03182  0.89101  1.0000
  Fe  Fe96      1.0  0.94830  0.22657  0.90173  1.0000
  S   S193      1.0  0.93547  0.26053  0.90775  1.0000
  S   S194      1.0  0.91814  0.18212  0.89189  1.0000
  C   C605      1.0  0.89816  0.18590  0.94940  1.0000
  H   H590      1.0  0.83411  0.16770  0.96683  1.0000
  H   H591      1.0  0.86399  0.11631  0.93896  1.0000
  H   H592      1.0  0.87278  0.26505  0.87803  1.0000
  C   C606      1.0  0.95581  0.27288  0.98433  1.0000
  H   H593      1.0  0.80162  0.12080  0.95299  1.0000
  Fe  Fe97      1.0  0.96036  0.26682  0.93441  1.0000
  C   C607      1.0  0.52398  0.00141  0.80165  1.0000
  S   S195      1.0  0.94012  0.26081  0.96217  1.0000
  Fe  Fe98      1.0  0.75857  0.00532  0.91267  1.0000
  C   C608      1.0  0.87689  0.22759  0.87107  1.0000
  H   H594      1.0  0.70820  0.99656  0.82851  1.0000
  H   H595      1.0  0.92915  0.21568  0.83422  1.0000
  H   H596      1.0  0.91865  0.29709  0.86515  1.0000
  H   H597      1.0  0.52827  0.01964  0.79343  1.0000
  H   H598      1.0  0.81826  0.10716  0.96952  1.0000
  C   C609      1.0  0.82537  0.13071  0.90694  1.0000
  C   C610      1.0  0.84054  0.11758  0.89947  1.0000
  C   C611      1.0  0.86884  0.13362  0.89488  1.0000
  C   C612      1.0  0.88250  0.16286  0.89803  1.0000
  C   C613      1.0  0.86742  0.17598  0.90567  1.0000
  C   C614      1.0  0.83898  0.16000  0.90995  1.0000
  H   H599      1.0  0.83037  0.09509  0.89701  1.0000
  H   H600      1.0  0.88023  0.12324  0.88891  1.0000
  H   H601      1.0  0.87761  0.19841  0.90825  1.0000
  H   H602      1.0  0.82747  0.17037  0.91576  1.0000
  C   C615      1.0  0.54596  0.99548  0.80759  1.0000
  C   C616      1.0  0.86754  0.13654  0.94466  1.0000
  H   H603      1.0  0.66154  0.03215  0.82327  1.0000
  H   H604      1.0  0.91812  0.20408  0.94767  1.0000
  H   H605      1.0  0.91003  0.15738  0.93524  1.0000
  H   H606      1.0  0.68326  0.03212  0.85381  1.0000
  C   C617      1.0  0.88568  0.25653  0.87176  1.0000
  C   C618      1.0  0.87671  0.18883  0.95823  1.0000
  S   S196      1.0  0.71428  0.00426  0.97076  1.0000
  C   C619      1.0  0.92802  0.26324  0.85684  1.0000
  S   S197      1.0  0.97121  0.23147  0.92859  1.0000
  C   C620      1.0  0.89410  0.21707  0.86325  1.0000
  H   H607      1.0  0.73621  0.06246  0.98503  1.0000
  H   H608      1.0  0.93679  0.20560  0.85643  1.0000
  H   H609      1.0  0.94801  0.27746  0.85136  1.0000
  C   C621      1.0  0.93708  0.22333  0.84833  1.0000
  C   C622      1.0  0.66419  0.01415  0.84914  1.0000
  H   H610      1.0  0.81581  0.09806  0.94555  1.0000
  C   C623      1.0  0.91133  0.27449  0.86452  1.0000
  C   C624      1.0  0.81930  0.11522  0.95553  1.0000
  C   C625      1.0  0.89367  0.15964  0.94260  1.0000
  C   C626      1.0  0.65177  0.01406  0.83178  1.0000
  C   C627      1.0  0.85080  0.16530  0.96004  1.0000
  H   H611      1.0  0.88020  0.20933  0.96350  1.0000
  H   H612      1.0  0.85706  0.21335  0.87673  1.0000
  S   S198      1.0  0.61298  0.99156  0.80292  1.0000
  C   C628      1.0  0.98000  0.29830  0.98726  1.0000
  Fe  Fe99      1.0  0.97652  0.28994  0.89503  1.0000
  H   H613      1.0  0.56748  0.00906  0.80407  1.0000
  S   S199      1.0  0.97979  0.32549  0.87572  1.0000
  H   H614      1.0  0.95944  0.23929  0.84801  1.0000
  C   C629      1.0  0.65187  0.99102  0.86041  1.0000
  C   C630      1.0  0.62711  0.99078  0.82526  1.0000
  Fe  Fe100     1.0  0.93281  0.77355  0.09550  1.0000
  S   S200      1.0  0.94408  0.73829  0.08998  1.0000
  S   S201      1.0  0.88685  0.75920  0.08759  1.0000
  C   C631      1.0  0.71579  0.69260  0.20001  1.0000
  S   S202      1.0  0.95892  0.71183  0.13542  1.0000
  S   S203      1.0  0.95432  0.78423  0.12329  1.0000
  Fe  Fe101     1.0  0.89356  0.62667  0.23004  1.0000
  S   S204      1.0  0.86618  0.58478  0.21651  1.0000
  S   S205      1.0  0.91057  0.66854  0.21462  1.0000
  C   C632      1.0  0.79516  0.90858  0.12535  1.0000
  C   C633      1.0  0.77565  0.91237  0.13601  1.0000
  H   H615      1.0  0.81004  0.92632  0.11804  1.0000
  C   C634      1.0  0.72637  0.67849  0.18872  1.0000
  Fe  Fe102     1.0  0.76070  0.78618  0.11025  1.0000
  S   S206      1.0  0.73661  0.74157  0.10043  1.0000
  S   S207      1.0  0.80716  0.80913  0.11808  1.0000
  Fe  Fe103     1.0  0.70878  0.79597  0.10935  1.0000
  S   S208      1.0  0.68043  0.75144  0.09954  1.0000
  S   S209      1.0  0.69181  0.82718  0.11665  1.0000
  Fe  Fe104     1.0  0.70395  0.73804  0.12061  1.0000
  S   S210      1.0  0.68732  0.69717  0.13722  1.0000
  Fe  Fe105     1.0  0.71518  0.75829  0.08019  1.0000
  S   S211      1.0  0.71031  0.74035  0.05096  1.0000
  S   S212      1.0  0.72969  0.78203  0.13159  1.0000
  S   S213      1.0  0.74180  0.80341  0.08885  1.0000
  H   H616      1.0  0.90444  0.71194  0.05064  1.0000
  C   C635      1.0  0.70137  0.77360  0.99417  1.0000
  C   C636      1.0  0.77092  0.81051  0.01555  1.0000
  H   H617      1.0  0.69798  0.80704  0.00903  1.0000
  H   H618      1.0  0.84710  0.64223  0.15689  1.0000
  C   C637      1.0  0.74102  0.55943  0.23719  1.0000
  H   H619      1.0  0.73291  0.68598  0.17514  1.0000
  S   S214      1.0  0.62992  0.64671  0.21324  1.0000
  S   S215      1.0  0.64601  0.58139  0.22580  1.0000
  H   H620      1.0  0.65159  0.70166  0.05110  1.0000
  H   H621      1.0  0.66406  0.67036  0.10254  1.0000
  S   S216      1.0  0.75433  0.95822  0.10135  1.0000
  H   H622      1.0  0.80336  0.86127  0.10210  1.0000
  N   N52       1.0  0.62888  0.67972  0.10029  1.0000
  Fe  Fe106     1.0  0.62784  0.61132  0.23228  1.0000
  H   H623      1.0  0.59674  0.69273  0.09487  1.0000
  C   C638      1.0  0.70749  0.86311  0.11067  1.0000
  C   C639      1.0  0.69718  0.88117  0.11793  1.0000
  C   C640      1.0  0.71044  0.91023  0.11461  1.0000
  C   C641      1.0  0.73413  0.92150  0.10391  1.0000
  C   C642      1.0  0.74389  0.90328  0.09620  1.0000
  C   C643      1.0  0.73072  0.87429  0.09957  1.0000
  H   H624      1.0  0.67918  0.87272  0.12649  1.0000
  H   H625      1.0  0.70278  0.92398  0.12070  1.0000
  H   H626      1.0  0.76214  0.91178  0.08787  1.0000
  H   H627      1.0  0.73880  0.86069  0.09380  1.0000
  C   C644      1.0  0.70285  0.77804  0.02761  1.0000
  C   C645      1.0  0.70601  0.75341  0.02934  1.0000
  C   C646      1.0  0.70641  0.73874  0.01337  1.0000
  H   H628      1.0  0.70236  0.78955  0.03970  1.0000
  H   H629      1.0  0.70868  0.71958  0.01449  1.0000
  C   C647      1.0  0.67119  0.68368  0.15843  1.0000
  C   C648      1.0  0.66756  0.65687  0.16373  1.0000
  C   C649      1.0  0.65519  0.64526  0.18038  1.0000
  C   C650      1.0  0.64563  0.66004  0.19190  1.0000
  C   C651      1.0  0.64880  0.68664  0.18642  1.0000
  C   C652      1.0  0.66169  0.69849  0.16996  1.0000
  H   H630      1.0  0.67460  0.64500  0.15496  1.0000
  H   H631      1.0  0.65286  0.62476  0.18422  1.0000
  H   H632      1.0  0.64130  0.69827  0.19506  1.0000
  H   H633      1.0  0.66401  0.71900  0.16614  1.0000
  H   H634      1.0  0.95290  0.77212  0.03553  1.0000
  H   H635      1.0  0.88349  0.64888  0.15542  1.0000
  S   S217      1.0  0.79072  0.55569  0.23582  1.0000
  C   C653      1.0  0.96511  0.77065  0.02440  1.0000
  S   S218      1.0  0.96991  0.80512  0.08100  1.0000
  H   H636      1.0  0.94391  0.73845  0.16606  1.0000
  H   H637      1.0  0.62735  0.96769  0.09032  1.0000
  C   C654      1.0  0.77044  0.57385  0.23946  1.0000
  C   C655      1.0  0.86543  0.77370  0.09637  1.0000
  C   C656      1.0  0.83692  0.76180  0.09069  1.0000
  C   C657      1.0  0.81896  0.77249  0.09731  1.0000
  C   C658      1.0  0.82935  0.79520  0.10970  1.0000
  C   C659      1.0  0.85791  0.80716  0.11542  1.0000
  C   C660      1.0  0.87593  0.79642  0.10879  1.0000
  H   H638      1.0  0.82867  0.74424  0.08108  1.0000
  H   H639      1.0  0.79712  0.76323  0.09271  1.0000
  H   H640      1.0  0.86612  0.82480  0.12497  1.0000
  H   H641      1.0  0.89791  0.80583  0.11319  1.0000
  H   H642      1.0  0.92555  0.72089  0.19657  1.0000
  H   H643      1.0  0.93413  0.76774  0.00362  1.0000
  Fe  Fe107     1.0  0.96708  0.74997  0.11738  1.0000
  C   C661      1.0  0.94670  0.70090  0.15787  1.0000
  C   C662      1.0  0.94055  0.71768  0.17001  1.0000
  C   C663      1.0  0.93011  0.70761  0.18736  1.0000
  C   C664      1.0  0.92537  0.68055  0.19288  1.0000
  C   C665      1.0  0.93164  0.66383  0.18076  1.0000
  C   C666      1.0  0.94233  0.67400  0.16348  1.0000
  C   C667      1.0  0.61427  0.69007  0.08954  1.0000
  H   H644      1.0  0.64408  0.97005  0.05876  1.0000
  H   H645      1.0  0.92825  0.64303  0.18469  1.0000
  S   S219      1.0  0.58542  0.50179  0.23798  1.0000
  C   C668      1.0  0.77675  0.76671  0.99863  1.0000
  C   C669      1.0  0.91891  0.70135  0.00721  1.0000
  S   S220      1.0  0.90641  0.53724  0.22537  1.0000
  H   H646      1.0  0.92351  0.49462  0.21588  1.0000
  C   C670      1.0  0.70799  0.65921  0.22309  1.0000
  C   C671      1.0  0.91495  0.70764  0.03942  1.0000
  N   N53       1.0  0.87563  0.68468  0.15257  1.0000
  C   C672      1.0  0.88356  0.68942  0.13489  1.0000
  C   C673      1.0  0.87205  0.70465  0.16252  1.0000
  C   C674      1.0  0.88776  0.71454  0.12666  1.0000
  C   C675      1.0  0.87641  0.73017  0.15475  1.0000
  C   C676      1.0  0.88411  0.73498  0.13665  1.0000
  C   C677      1.0  0.86918  0.65735  0.16048  1.0000
  H   H647      1.0  0.88702  0.67390  0.12710  1.0000
  H   H648      1.0  0.86612  0.70103  0.17661  1.0000
  H   H649      1.0  0.89388  0.71821  0.11261  1.0000
  H   H650      1.0  0.87386  0.74611  0.16267  1.0000
  H   H651      1.0  0.88738  0.75455  0.13034  1.0000
  H   H652      1.0  0.87212  0.65903  0.17559  1.0000
  C   C678      1.0  0.95457  0.76834  0.00625  1.0000
  H   H653      1.0  0.67931  0.68303  0.23761  1.0000
  H   H654      1.0  0.63040  0.69208  0.12794  1.0000
  H   H655      1.0  0.94709  0.66079  0.15433  1.0000
  C   C679      1.0  0.69549  0.69773  0.22855  1.0000
  C   C680      1.0  0.62200  0.69782  0.07164  1.0000
  H   H656      1.0  0.71439  0.71109  0.19499  1.0000
  N   N54       1.0  0.94333  0.69908  0.01062  1.0000
  H   H657      1.0  0.76746  0.82706  0.02200  1.0000
  C   C681      1.0  0.95821  0.69424  0.99552  1.0000
  Fe  Fe108     1.0  0.88874  0.56700  0.23497  1.0000
  H   H658      1.0  0.94841  0.70686  0.05652  1.0000
  H   H659      1.0  0.73525  0.64279  0.18617  1.0000
  H   H660      1.0  0.88565  0.70859  0.01874  1.0000
  C   C682      1.0  0.77780  0.76874  0.01768  1.0000
  C   C683      1.0  0.64501  0.69523  0.06485  1.0000
  C   C684      1.0  0.71841  0.64456  0.21218  1.0000
  N   N55       1.0  0.70632  0.68260  0.21683  1.0000
  C   C685      1.0  0.75532  0.86324  0.14313  1.0000
  H   H661      1.0  0.77506  0.83984  0.13115  1.0000
  H   H662      1.0  0.73910  0.84509  0.14940  1.0000
  Fe  Fe109     1.0  0.83805  0.57837  0.24007  1.0000
  H   H663      1.0  0.71927  0.62578  0.21720  1.0000
  H   H664      1.0  0.70133  0.56076  0.24090  1.0000
  H   H665      1.0  0.62862  0.65780  0.12467  1.0000
  H   H666      1.0  0.61062  0.70632  0.06318  1.0000
  C   C686      1.0  0.66014  0.68520  0.07601  1.0000
  H   H667      1.0  0.59770  0.66269  0.12033  1.0000
  C   C687      1.0  0.72750  0.65421  0.19485  1.0000
  C   C688      1.0  0.90444  0.70580  0.02154  1.0000
  H   H668      1.0  0.67871  0.68415  0.07101  1.0000
  C   C689      1.0  0.62092  0.67270  0.11920  1.0000
  H   H669      1.0  0.77525  0.93262  0.13664  1.0000
  C   C690      1.0  0.77534  0.86028  0.13254  1.0000
  H   H670      1.0  0.82879  0.87250  0.12088  1.0000
  C   C691      1.0  0.93954  0.70472  0.04276  1.0000
  C   C692      1.0  0.65178  0.67754  0.09383  1.0000
  N   N56       1.0  0.79470  0.88271  0.12366  1.0000
  C   C693      1.0  0.81481  0.87854  0.11228  1.0000
  H   H671      1.0  0.82808  0.89766  0.10476  1.0000
  C   C694      1.0  0.75548  0.88946  0.14482  1.0000
  H   H672      1.0  0.73936  0.89180  0.15237  1.0000
  H   H673      1.0  0.77451  0.79193  0.04092  1.0000
  C   C695      1.0  0.70038  0.78793  0.01015  1.0000
  C   C696      1.0  0.77485  0.79079  0.02616  1.0000
  H   H674      1.0  0.77997  0.75286  0.02586  1.0000
  C   C697      1.0  0.70429  0.74882  0.99591  1.0000
  Fe  Fe110     1.0  0.61022  0.54947  0.24185  1.0000
  H   H675      1.0  0.73130  0.53797  0.23201  1.0000
  H   H676      1.0  0.53768  0.51344  0.22774  1.0000
  C   C698      1.0  0.95350  0.70036  0.02813  1.0000
  H   H677      1.0  0.97312  0.69910  0.03086  1.0000
  C   C699      1.0  0.63921  0.98784  0.08414  1.0000
  C   C700      1.0  0.89270  0.50127  0.23101  1.0000
  C   C701      1.0  0.76986  0.80779  0.99654  1.0000
  H   H678      1.0  0.95183  0.67146  0.99373  1.0000
  H   H679      1.0  0.70106  0.65164  0.23655  1.0000
  Fe  Fe111     1.0  0.98265  0.77062  0.07735  1.0000
  C   C702      1.0  0.72404  0.57227  0.24219  1.0000
  H   H680      1.0  0.68473  0.70782  0.22030  1.0000
  C   C703      1.0  0.52959  0.49150  0.23103  1.0000
  H   H681      1.0  0.71294  0.71385  0.23702  1.0000
  H   H682      1.0  0.70974  0.97986  0.00603  1.0000
  H   H683      1.0  0.98138  0.70559  0.99811  1.0000
  C   C704      1.0  0.64863  0.98915  0.06648  1.0000
  H   H684      1.0  0.96058  0.56068  0.24359  1.0000
  Fe  Fe112     1.0  0.88635  0.60026  0.26889  1.0000
  H   H685      1.0  0.77568  0.63580  0.25635  1.0000
  S   S221      1.0  0.89943  0.59927  0.29904  1.0000
  H   H686      1.0  0.91152  0.58119  0.33360  1.0000
  H   H687      1.0  0.54227  0.54809  0.27681  1.0000
  Fe  Fe113     1.0  0.88110  0.60219  0.40847  1.0000
  S   S222      1.0  0.85205  0.55688  0.41283  1.0000
  S   S223      1.0  0.87433  0.62057  0.38146  1.0000
  Fe  Fe114     1.0  0.90560  0.61031  0.44901  1.0000
  S   S224      1.0  0.87730  0.56531  0.45530  1.0000
  S   S225      1.0  0.93512  0.64256  0.47086  1.0000
  Fe  Fe115     1.0  0.88874  0.55531  0.42787  1.0000
  S   S226      1.0  0.90347  0.52236  0.42147  1.0000
  Fe  Fe116     1.0  0.84322  0.57150  0.43958  1.0000
  S   S227      1.0  0.79792  0.55278  0.44849  1.0000
  S   S228      1.0  0.91893  0.60007  0.42204  1.0000
  S   S229      1.0  0.87038  0.61701  0.43487  1.0000
  Fe  Fe117     1.0  0.61656  0.59037  0.27275  1.0000
  S   S230      1.0  0.59321  0.58461  0.29937  1.0000
  S   S231      1.0  0.63598  0.56121  0.26827  1.0000
  Fe  Fe118     1.0  0.61929  0.60625  0.45028  1.0000
  S   S232      1.0  0.63626  0.57826  0.46288  1.0000
  S   S233      1.0  0.60004  0.63166  0.46528  1.0000
  Fe  Fe119     1.0  0.63206  0.59279  0.41061  1.0000
  S   S234      1.0  0.64829  0.56290  0.42119  1.0000
  S   S235      1.0  0.64384  0.60894  0.38161  1.0000
  Fe  Fe120     1.0  0.61169  0.54820  0.43981  1.0000
  H   H688      1.0  0.71571  0.59757  0.38743  1.0000
  Fe  Fe121     1.0  0.67135  0.59543  0.44304  1.0000
  S   S236      1.0  0.71920  0.61494  0.44727  1.0000
  S   S237      1.0  0.59334  0.57556  0.42769  1.0000
  S   S238      1.0  0.65629  0.62598  0.43210  1.0000
  H   H689      1.0  0.81986  0.63082  0.38865  1.0000
  H   H690      1.0  0.95119  0.50554  0.45042  1.0000
  N   N57       1.0  0.94790  0.56488  0.27030  1.0000
  C   C705      1.0  0.81609  0.59650  0.48707  1.0000
  H   H691      1.0  0.71058  0.58398  0.41018  1.0000
  C   C706      1.0  0.80039  0.61367  0.39284  1.0000
  H   H692      1.0  0.93739  0.57515  0.29619  1.0000
  H   H693      1.0  0.96822  0.62585  0.29413  1.0000
  C   C707      1.0  0.60804  0.58959  0.32207  1.0000
  C   C708      1.0  0.59030  0.57725  0.33665  1.0000
  C   C709      1.0  0.60098  0.58186  0.35490  1.0000
  C   C710      1.0  0.62949  0.59953  0.35885  1.0000
  C   C711      1.0  0.64719  0.61175  0.34426  1.0000
  C   C712      1.0  0.63667  0.60657  0.32601  1.0000
  H   H694      1.0  0.56811  0.56415  0.33381  1.0000
  H   H695      1.0  0.58702  0.57228  0.36590  1.0000
  H   H696      1.0  0.66922  0.62558  0.34709  1.0000
  H   H697      1.0  0.65058  0.61640  0.31502  1.0000
  S   S239      1.0  0.71623  0.61547  0.25782  1.0000
  H   H698      1.0  0.63942  0.70376  0.42784  1.0000
  C   C713      1.0  0.77488  0.56584  0.40227  1.0000
  C   C714      1.0  0.74039  0.59693  0.44693  1.0000
  C   C715      1.0  0.72933  0.56809  0.44976  1.0000
  C   C716      1.0  0.74722  0.55487  0.45016  1.0000
  C   C717      1.0  0.77614  0.57016  0.44725  1.0000
  C   C718      1.0  0.78704  0.59884  0.44384  1.0000
  C   C719      1.0  0.76931  0.61221  0.44396  1.0000
  H   H699      1.0  0.70713  0.55611  0.45213  1.0000
  H   H700      1.0  0.73857  0.53265  0.45280  1.0000
  H   H701      1.0  0.80921  0.61083  0.44145  1.0000
  H   H702      1.0  0.77801  0.63453  0.44169  1.0000
  S   S240      1.0  0.86377  0.62101  0.25305  1.0000
  H   H703      1.0  0.75341  0.51979  0.26355  1.0000
  S   S241      1.0  0.59023  0.57825  0.24641  1.0000
  C   C720      1.0  0.78289  0.60163  0.24596  1.0000
  S   S242      1.0  0.65157  0.62634  0.25934  1.0000
  H   H704      1.0  0.77645  0.63732  0.39135  1.0000
  H   H705      1.0  0.56912  0.49482  0.27890  1.0000
  C   C721      1.0  0.98316  0.62193  0.26773  1.0000
  H   H706      1.0  0.82564  0.62691  0.29926  1.0000
  C   C722      1.0  0.96295  0.57479  0.25497  1.0000
  H   H707      1.0  0.84846  0.66581  0.47722  1.0000
  C   C723      1.0  0.89078  0.60438  0.32172  1.0000
  C   C724      1.0  0.87613  0.62001  0.32566  1.0000
  C   C725      1.0  0.87112  0.62452  0.34394  1.0000
  C   C726      1.0  0.88041  0.61332  0.35858  1.0000
  C   C727      1.0  0.89469  0.59736  0.35461  1.0000
  C   C728      1.0  0.90000  0.59314  0.33636  1.0000
  H   H708      1.0  0.86957  0.62946  0.31470  1.0000
  H   H709      1.0  0.86035  0.63717  0.34679  1.0000
  H   H710      1.0  0.90216  0.58873  0.36563  1.0000
  H   H711      1.0  0.73887  0.57209  0.28601  1.0000
  N   N58       1.0  0.53443  0.50521  0.27818  1.0000
  H   H712      1.0  0.63896  0.65927  0.39591  1.0000
  C   C729      1.0  0.52662  0.52628  0.27569  1.0000
  H   H713      1.0  0.80052  0.62684  0.48081  1.0000
  C   C730      1.0  0.76061  0.57548  0.28721  1.0000
  H   H714      1.0  0.55603  0.51254  0.41702  1.0000
  H   H715      1.0  0.50369  0.49464  0.44798  1.0000
  C   C731      1.0  0.49854  0.52002  0.27141  1.0000
  C   C732      1.0  0.74612  0.52744  0.27549  1.0000
  H   H716      1.0  0.81879  0.58504  0.39586  1.0000
  C   C733      1.0  0.80937  0.60659  0.29462  1.0000
  N   N59       1.0  0.76790  0.55492  0.28191  1.0000
  H   H717      1.0  0.57240  0.66105  0.48253  1.0000
  H   H718      1.0  0.73154  0.55291  0.40816  1.0000
  C   C734      1.0  0.86569  0.61302  0.48751  1.0000
  H   H719      1.0  0.74116  0.51207  0.28656  1.0000
  Fe  Fe122     1.0  0.66896  0.59582  0.25297  1.0000
  C   C735      1.0  0.81904  0.62327  0.48289  1.0000
  N   N60       1.0  0.61498  0.66196  0.41808  1.0000
  C   C736      1.0  0.58877  0.65285  0.42493  1.0000
  C   C737      1.0  0.61823  0.65219  0.40145  1.0000
  C   C738      1.0  0.56508  0.63260  0.41545  1.0000
  C   C739      1.0  0.59491  0.63236  0.39144  1.0000
  C   C740      1.0  0.56825  0.62228  0.39860  1.0000
  C   C741      1.0  0.63942  0.68292  0.42848  1.0000
  H   H720      1.0  0.58618  0.66077  0.43804  1.0000
  H   H721      1.0  0.54452  0.62480  0.42129  1.0000
  H   H722      1.0  0.59768  0.62453  0.37835  1.0000
  H   H723      1.0  0.55015  0.60641  0.39112  1.0000
  H   H724      1.0  0.65956  0.68465  0.42327  1.0000
  H   H725      1.0  0.63878  0.67682  0.44300  1.0000
  C   C742      1.0  0.77586  0.61715  0.39439  1.0000
  C   C743      1.0  0.79982  0.58785  0.39685  1.0000
  S   S243      1.0  0.85835  0.55717  0.25730  1.0000
  C   C744      1.0  0.72599  0.59956  0.40113  1.0000
  H   H726      1.0  0.92830  0.52722  0.28520  1.0000
  C   C745      1.0  0.79541  0.55951  0.28310  1.0000
  C   C746      1.0  0.54361  0.49164  0.42191  1.0000
  C   C747      1.0  0.81654  0.58534  0.28952  1.0000
  H   H727      1.0  0.85299  0.49242  0.44246  1.0000
  H   H728      1.0  0.57776  0.53035  0.27424  1.0000
  H   H729      1.0  0.83838  0.58895  0.29030  1.0000
  H   H730      1.0  0.56922  0.51836  0.29710  1.0000
  H   H731      1.0  0.73103  0.62053  0.40725  1.0000
  C   C748      1.0  0.96756  0.61164  0.28323  1.0000
  H   H732      1.0  0.72652  0.52860  0.27084  1.0000
  C   C749      1.0  0.59359  0.63550  0.48876  1.0000
  S   S244      1.0  0.58639  0.50294  0.44771  1.0000
  C   C750      1.0  0.75071  0.56999  0.40360  1.0000
  C   C751      1.0  0.78124  0.60167  0.29351  1.0000
  H   H733      1.0  0.77449  0.54593  0.40593  1.0000
  H   H734      1.0  0.82651  0.54936  0.48151  1.0000
  H   H735      1.0  0.85953  0.50084  0.24729  1.0000
  H   H736      1.0  0.49258  0.53680  0.26905  1.0000
  C   C752      1.0  0.86939  0.63996  0.48313  1.0000
  N   N61       1.0  0.75151  0.59552  0.39987  1.0000
  C   C753      1.0  0.92787  0.53518  0.27132  1.0000
  H   H737      1.0  0.80122  0.54335  0.27866  1.0000
  C   C754      1.0  0.95447  0.64214  0.49135  1.0000
  N   N62       1.0  0.83927  0.59174  0.48950  1.0000
  H   H738      1.0  0.93270  0.52194  0.26158  1.0000
  H   H739      1.0  0.77542  0.61819  0.29708  1.0000
  C   C755      1.0  0.94998  0.58288  0.28429  1.0000
  C   C756      1.0  0.56401  0.51235  0.28245  1.0000
  C   C757      1.0  0.84588  0.64507  0.48081  1.0000
  H   H740      1.0  0.79509  0.57939  0.48796  1.0000
  H   H741      1.0  0.90630  0.53262  0.26787  1.0000
  H   H742      1.0  0.89041  0.65665  0.48134  1.0000
  H   H743      1.0  0.88414  0.60928  0.48915  1.0000
  H   H744      1.0  0.94122  0.59761  0.49141  1.0000
  C   C758      1.0  0.98092  0.60341  0.25349  1.0000
  C   C759      1.0  0.76594  0.61451  0.25089  1.0000
  C   C760      1.0  0.73652  0.59967  0.24939  1.0000
  S   S245      1.0  0.91833  0.60942  0.24709  1.0000
  H   H745      1.0  0.80550  0.61297  0.24764  1.0000
  H   H746      1.0  0.53724  0.49903  0.47059  1.0000
  C   C761      1.0  0.57932  0.65151  0.49328  1.0000
  H   H747      1.0  0.52324  0.49246  0.49298  1.0000
  H   H748      1.0  0.90760  0.49128  0.46756  1.0000
  H   H749      1.0  0.57149  0.98980  0.32544  1.0000
  Fe  Fe123     1.0  0.54640  0.71858  0.58101  1.0000
  S   S246      1.0  0.57749  0.70158  0.58849  1.0000
  S   S247      1.0  0.56613  0.76649  0.58030  1.0000
  Fe  Fe124     1.0  0.49787  0.66011  0.57977  1.0000
  S   S248      1.0  0.52555  0.63963  0.58725  1.0000
  H   H750      1.0  0.98278  0.66648  0.68299  1.0000
  Fe  Fe125     1.0  0.54546  0.67469  0.60827  1.0000
  S   S249      1.0  0.55817  0.66549  0.63673  1.0000
  Fe  Fe126     1.0  0.55516  0.66805  0.56677  1.0000
  S   S250      1.0  0.57774  0.64837  0.54936  1.0000
  S   S251      1.0  0.51581  0.69347  0.60205  1.0000
  S   S252      1.0  0.52611  0.68674  0.55799  1.0000
  H   H751      1.0  0.57602  0.77256  0.64075  1.0000
  C   C762      1.0  0.57488  0.80210  0.73276  1.0000
  S   S253      1.0  0.54333  0.70344  0.71712  1.0000
  Fe  Fe127     1.0  0.51449  0.94324  0.58671  1.0000
  H   H752      1.0  0.53697  0.58977  0.53794  1.0000
  H   H753      1.0  0.55764  0.75417  0.61992  1.0000
  Fe  Fe128     1.0  0.53183  0.89768  0.57681  1.0000
  S   S254      1.0  0.57779  0.92702  0.58140  1.0000
  S   S255      1.0  0.51043  0.85062  0.57000  1.0000
  Fe  Fe129     1.0  0.56443  0.94100  0.60705  1.0000
  S   S256      1.0  0.58798  0.94427  0.63441  1.0000
  Fe  Fe130     1.0  0.56841  0.95923  0.56619  1.0000
  H   H754      1.0  0.54194  0.95469  0.64826  1.0000
  S   S257      1.0  0.51924  0.91012  0.60307  1.0000
  S   S258      1.0  0.52306  0.92863  0.55986  1.0000
  H   H755      1.0  0.51654  0.55997  0.55137  1.0000
  C   C763      1.0  0.56132  0.77318  0.73519  1.0000
  S   S259      1.0  0.54889  0.95263  0.71524  1.0000
  C   C764      1.0  0.57560  0.94475  0.65673  1.0000
  C   C765      1.0  0.55298  0.95089  0.65973  1.0000
  C   C766      1.0  0.57819  0.76980  0.62598  1.0000
  C   C767      1.0  0.55913  0.94825  0.69291  1.0000
  C   C768      1.0  0.58142  0.94156  0.68989  1.0000
  C   C769      1.0  0.58975  0.94012  0.67194  1.0000
  H   H756      1.0  0.59708  0.81238  0.72992  1.0000
  H   H757      1.0  0.60735  0.93548  0.66985  1.0000
  C   C770      1.0  0.63823  0.76124  0.60603  1.0000
  C   C771      1.0  0.54973  0.78920  0.57803  1.0000
  C   C772      1.0  0.56630  0.81828  0.58072  1.0000
  C   C773      1.0  0.55451  0.83727  0.57864  1.0000
  C   C774      1.0  0.52601  0.82741  0.57361  1.0000
  C   C775      1.0  0.50937  0.79831  0.57103  1.0000
  C   C776      1.0  0.52109  0.77927  0.57334  1.0000
  H   H758      1.0  0.58849  0.82625  0.58425  1.0000
  H   H759      1.0  0.56760  0.85957  0.58061  1.0000
  H   H760      1.0  0.61350  0.61117  0.49983  1.0000
  H   H761      1.0  0.50810  0.75699  0.57115  1.0000
  C   C777      1.0  0.55189  0.67458  0.65900  1.0000
  C   C778      1.0  0.53875  0.69193  0.66187  1.0000
  C   C779      1.0  0.53614  0.70025  0.67974  1.0000
  C   C780      1.0  0.54606  0.69092  0.69502  1.0000
  C   C781      1.0  0.55848  0.67294  0.69219  1.0000
  C   C782      1.0  0.56153  0.66501  0.67429  1.0000
  H   H762      1.0  0.53103  0.69935  0.65031  1.0000
  H   H763      1.0  0.52648  0.71416  0.68173  1.0000
  H   H764      1.0  0.56660  0.66585  0.70371  1.0000
  H   H765      1.0  0.57183  0.65167  0.67226  1.0000
  C   C783      1.0  0.97100  0.66763  0.50092  1.0000
  C   C784      1.0  0.59739  0.62769  0.52128  1.0000
  C   C785      1.0  0.58334  0.64388  0.52581  1.0000
  C   C786      1.0  0.57412  0.65560  0.51162  1.0000
  H   H766      1.0  0.60471  0.61851  0.53205  1.0000
  H   H767      1.0  0.56342  0.66822  0.51475  1.0000
  H   H768      1.0  0.59268  0.93817  0.70139  1.0000
  H   H769      1.0  0.52372  0.64247  0.72472  1.0000
  H   H770      1.0  0.65084  0.97624  0.62420  1.0000
  H   H771      1.0  0.65313  0.73088  0.61354  1.0000
  H   H772      1.0  0.52788  0.95823  0.67980  1.0000
  C   C787      1.0  0.61924  0.72817  0.63009  1.0000
  H   H773      1.0  0.57281  0.76071  0.73406  1.0000
  H   H774      1.0  0.53253  0.59467  0.56170  1.0000
  H   H775      1.0  0.51043  0.61038  0.71120  1.0000
  H   H776      1.0  0.52116  0.62936  0.53778  1.0000
  C   C788      1.0  0.61855  0.77137  0.60951  1.0000
  C   C789      1.0  0.59989  0.73882  0.63319  1.0000
  C   C790      1.0  0.55966  0.81776  0.73426  1.0000
  C   C791      1.0  0.63850  0.73946  0.61639  1.0000
  H   H777      1.0  0.58462  0.72949  0.64357  1.0000
  H   H778      1.0  0.58331  0.79015  0.61934  1.0000
  H   H779      1.0  0.62933  0.95796  0.60466  1.0000
  C   C792      1.0  0.95366  0.61742  0.49848  1.0000
  C   C793      1.0  0.60243  0.62346  0.50295  1.0000
  H   H780      1.0  0.61794  0.78774  0.60104  1.0000
  N   N63       1.0  0.59974  0.76017  0.62300  1.0000
  H   H781      1.0  0.96821  0.59900  0.52005  1.0000
  H   H782      1.0  0.65259  0.76971  0.59502  1.0000
  H   H783      1.0  0.50850  0.82384  0.72516  1.0000
  C   C794      1.0  0.54503  0.95289  0.67768  1.0000
  C   C795      1.0  0.53291  0.76031  0.73925  1.0000
  C   C796      1.0  0.96910  0.61831  0.51480  1.0000
  H   H784      1.0  0.48914  0.65645  0.71296  1.0000
  H   H785      1.0  0.61858  0.71064  0.63790  1.0000
  S   S260      1.0  0.55913  0.97546  0.59241  1.0000
  C   C797      1.0  0.52180  0.58233  0.54909  1.0000
  H   H786      1.0  0.82078  0.55478  0.50502  1.0000
  H   H787      1.0  0.57042  0.84033  0.73265  1.0000
  C   C798      1.0  0.50807  0.62001  0.72409  1.0000
  C   C799      1.0  0.50026  0.61225  0.53888  1.0000
  H   H788      1.0  0.48735  0.79042  0.56705  1.0000
  N   N64       1.0  0.53178  0.80495  0.73824  1.0000
  H   H789      1.0  0.51331  0.60991  0.73589  1.0000
  H   H790      1.0  0.55466  0.98575  0.52076  1.0000
  N   N65       1.0  0.49685  0.58646  0.54441  1.0000
  C   C800      1.0  0.51603  0.82164  0.73904  1.0000
  C   C801      1.0  0.64617  0.97853  0.60961  1.0000
  H   H791      1.0  0.85566  0.56316  0.49791  1.0000
  H   H792      1.0  0.66549  0.98348  0.60198  1.0000
  C   C802      1.0  0.51834  0.77659  0.74070  1.0000
  H   H793      1.0  0.52235  0.73790  0.74150  1.0000
  H   H794      1.0  0.97183  0.68693  0.49568  1.0000
  C   C803      1.0  0.83545  0.56339  0.49373  1.0000
  C   C804      1.0  0.94821  0.68614  0.86144  1.0000
  S   S261      1.0  0.95200  0.80102  0.93162  1.0000
  S   S262      1.0  0.59209  0.93986  0.76020  1.0000
  C   C805      1.0  0.92861  0.71882  0.86840  1.0000
  H   H795      1.0  0.91333  0.72584  0.86245  1.0000
  H   H796      1.0  0.59346  0.82125  0.77803  1.0000
  Fe  Fe131     1.0  0.93459  0.77448  0.90632  1.0000
  S   S263      1.0  0.89258  0.76425  0.89155  1.0000
  S   S264      1.0  0.94507  0.74031  0.91642  1.0000
  Fe  Fe132     1.0  0.75375  0.78511  0.91718  1.0000
  S   S265      1.0  0.71658  0.74801  0.92823  1.0000
  S   S266      1.0  0.79919  0.79393  0.92488  1.0000
  Fe  Fe133     1.0  0.71772  0.81583  0.90797  1.0000
  S   S267      1.0  0.67943  0.78145  0.91935  1.0000
  S   S268      1.0  0.70663  0.84869  0.89576  1.0000
  Fe  Fe134     1.0  0.70723  0.78026  0.94279  1.0000
  S   S269      1.0  0.69987  0.78825  0.97259  1.0000
  Fe  Fe135     1.0  0.69200  0.75280  0.90345  1.0000
  S   S270      1.0  0.65545  0.71869  0.88633  1.0000
  S   S271      1.0  0.74461  0.81707  0.93231  1.0000
  S   S272      1.0  0.73000  0.78750  0.89149  1.0000
  Fe  Fe136     1.0  0.57208  0.69363  0.78618  1.0000
  S   S273      1.0  0.53015  0.67770  0.79929  1.0000
  S   S274      1.0  0.61490  0.71336  0.80213  1.0000
  Fe  Fe137     1.0  0.52288  0.70765  0.78072  1.0000
  S   S275      1.0  0.50504  0.73769  0.78856  1.0000
  Fe  Fe138     1.0  0.51327  0.64676  0.77537  1.0000
  C   C806      1.0  0.87644  0.82664  0.87686  1.0000
  S   S276      1.0  0.56501  0.72459  0.76848  1.0000
  S   S277      1.0  0.55599  0.66096  0.76307  1.0000
  H   H797      1.0  0.92454  0.71961  0.83203  1.0000
  Fe  Fe139     1.0  0.57921  0.95710  0.78446  1.0000
  S   S278      1.0  0.55016  0.91510  0.79502  1.0000
  C   C807      1.0  0.60179  0.75176  0.85853  1.0000
  Fe  Fe140     1.0  0.56136  0.89784  0.77029  1.0000
  N   N66       1.0  0.49087  0.96023  0.81631  1.0000
  Fe  Fe141     1.0  0.51656  0.91785  0.77657  1.0000
  C   C808      1.0  0.92496  0.83799  0.88655  1.0000
  C   C809      1.0  0.69172  0.97539  0.82991  1.0000
  S   S279      1.0  0.54472  0.96137  0.76769  1.0000
  H   H798      1.0  0.92711  0.82843  0.87397  1.0000
  N   N67       1.0  0.60778  0.76327  0.84167  1.0000
  C   C810      1.0  0.52626  0.77410  0.78633  1.0000
  C   C811      1.0  0.51382  0.79256  0.78621  1.0000
  C   C812      1.0  0.52998  0.82129  0.78286  1.0000
  C   C813      1.0  0.55862  0.83156  0.77947  1.0000
  H   H799      1.0  0.87536  0.80737  0.87010  1.0000
  C   C814      1.0  0.55520  0.78485  0.78396  1.0000
  C   C815      1.0  0.94210  0.69188  0.82430  1.0000
  H   H800      1.0  0.52012  0.83526  0.78241  1.0000
  H   H801      1.0  0.71793  0.85912  0.93705  1.0000
  C   C816      1.0  0.72831  0.88478  0.89949  1.0000
  C   C817      1.0  0.75670  0.89507  0.90493  1.0000
  C   C818      1.0  0.77328  0.92413  0.90772  1.0000
  C   C819      1.0  0.76138  0.94286  0.90548  1.0000
  C   C820      1.0  0.73300  0.93247  0.90002  1.0000
  C   C821      1.0  0.71659  0.90356  0.89692  1.0000
  H   H802      1.0  0.76594  0.88071  0.90676  1.0000
  H   H803      1.0  0.79530  0.93211  0.91182  1.0000
  H   H804      1.0  0.72376  0.94674  0.89795  1.0000
  H   H805      1.0  0.69467  0.89571  0.89262  1.0000
  C   C822      1.0  0.64479  0.71738  0.86278  1.0000
  C   C823      1.0  0.61765  0.69740  0.85680  1.0000
  C   C824      1.0  0.60801  0.69597  0.83844  1.0000
  C   C825      1.0  0.62564  0.71414  0.82561  1.0000
  C   C826      1.0  0.65286  0.73392  0.83156  1.0000
  C   C827      1.0  0.66228  0.73574  0.84999  1.0000
  H   H806      1.0  0.60392  0.68294  0.86647  1.0000
  H   H807      1.0  0.58714  0.68044  0.83416  1.0000
  H   H808      1.0  0.66682  0.74801  0.82183  1.0000
  H   H809      1.0  0.68324  0.75112  0.85424  1.0000
  S   S280      1.0  0.57900  0.86624  0.77254  1.0000
  H   H810      1.0  0.96295  0.87021  0.92516  1.0000
  H   H811      1.0  0.60719  0.90837  0.80908  1.0000
  C   C828      1.0  0.61471  0.96770  0.83656  1.0000
  H   H812      1.0  0.67337  0.81515  0.85109  1.0000
  C   C829      1.0  0.86545  0.76961  0.90190  1.0000
  C   C830      1.0  0.87011  0.78397  0.91863  1.0000
  C   C831      1.0  0.84926  0.79058  0.92557  1.0000
  C   C832      1.0  0.82340  0.78274  0.91599  1.0000
  C   C833      1.0  0.81834  0.76762  0.89951  1.0000
  C   C834      1.0  0.83931  0.76113  0.89250  1.0000
  H   H813      1.0  0.89003  0.79055  0.92604  1.0000
  H   H814      1.0  0.85336  0.80215  0.93837  1.0000
  H   H815      1.0  0.79851  0.76138  0.89201  1.0000
  H   H816      1.0  0.83541  0.74992  0.87957  1.0000
  C   C835      1.0  0.65314  0.79748  0.85326  1.0000
  H   H817      1.0  0.94081  0.69520  0.80981  1.0000
  C   C836      1.0  0.69046  0.96093  0.84589  1.0000
  H   H818      1.0  0.49774  0.81190  0.74795  1.0000
  C   C837      1.0  0.91959  0.86126  0.91922  1.0000
  H   H819      1.0  0.75685  0.90214  0.94451  1.0000
  H   H820      1.0  0.85588  0.82045  0.88331  1.0000
  H   H821      1.0  0.61733  0.75264  0.88625  1.0000
  H   H822      1.0  0.74555  0.97529  0.95695  1.0000
  N   N68       1.0  0.64911  0.93681  0.81832  1.0000
  H   H823      1.0  0.63092  0.90152  0.83551  1.0000
  C   C838      1.0  0.66859  0.93413  0.84785  1.0000
  H   H824      1.0  0.62255  0.94051  0.79720  1.0000
  S   S281      1.0  0.66703  0.98906  0.88219  1.0000
  C   C839      1.0  0.95744  0.67203  0.84917  1.0000
  H   H825      1.0  0.96285  0.66543  0.82083  1.0000
  C   C840      1.0  0.70778  0.93623  0.95422  1.0000
  H   H826      1.0  0.66719  0.92310  0.86043  1.0000
  S   S282      1.0  0.48641  0.59902  0.77420  1.0000
  C   C841      1.0  0.94524  0.86139  0.91537  1.0000
  N   N69       1.0  0.77305  0.78625  0.98833  1.0000
  C   C842      1.0  0.93312  0.70572  0.83694  1.0000
  C   C843      1.0  0.70230  0.86517  0.94296  1.0000
  C   C844      1.0  0.58666  0.75173  0.82663  1.0000
  H   H827      1.0  0.58204  0.73348  0.86065  1.0000
  H   H828      1.0  0.57514  0.72848  0.82729  1.0000
  H   H829      1.0  0.57136  0.76071  0.82714  1.0000
  H   H830      1.0  0.59664  0.75618  0.81318  1.0000
  H   H831      1.0  0.91713  0.86993  0.93208  1.0000
  H   H832      1.0  0.63782  0.79501  0.82557  1.0000
  H   H833      1.0  0.69393  0.94586  0.95684  1.0000
  H   H834      1.0  0.55713  0.96679  0.82226  1.0000
  C   C845      1.0  0.63297  0.78601  0.83895  1.0000
  C   C846      1.0  0.62691  0.96795  0.85401  1.0000
  C   C847      1.0  0.77029  0.78304  0.96844  1.0000
  H   H835      1.0  0.77708  0.95337  0.95042  1.0000
  C   C848      1.0  0.62152  0.76263  0.87311  1.0000
  C   C849      1.0  0.51227  0.95408  0.82200  1.0000
  N   N70       1.0  0.93611  0.70261  0.85525  1.0000
  C   C850      1.0  0.64735  0.78559  0.87040  1.0000
  C   C851      1.0  0.54012  0.97165  0.81779  1.0000
  H   H836      1.0  0.66309  0.79381  0.88147  1.0000
  C   C852      1.0  0.57125  0.81337  0.78042  1.0000
  C   C853      1.0  0.94802  0.84984  0.89890  1.0000
  C   C854      1.0  0.73682  0.95281  0.95438  1.0000
  S   S283      1.0  0.50186  0.67528  0.75837  1.0000
  S   S284      1.0  0.52517  0.89629  0.75277  1.0000
  Fe  Fe142     1.0  0.96529  0.76854  0.94121  1.0000
  H   H837      1.0  0.87711  0.84947  0.90954  1.0000
  H   H838      1.0  0.59574  0.94964  0.83190  1.0000
  S   S285      1.0  0.78206  0.97895  0.91019  1.0000
  N   N71       1.0  0.89989  0.83799  0.89040  1.0000
  H   H839      1.0  0.67419  0.89473  0.95001  1.0000
  S   S286      1.0  0.95141  0.75301  0.97003  1.0000
  N   N72       1.0  0.71434  0.89546  0.94682  1.0000
  C   C855      1.0  0.74290  0.91150  0.94735  1.0000
  H   H840      1.0  0.74767  0.77317  0.96408  1.0000
  C   C856      1.0  0.75453  0.94044  0.95090  1.0000
  H   H841      1.0  0.91876  0.70604  0.88040  1.0000
  H   H842      1.0  0.70586  0.97084  0.85701  1.0000
  C   C857      1.0  0.64806  0.92221  0.83378  1.0000
  H   H843      1.0  0.96793  0.84989  0.89583  1.0000
  H   H844      1.0  0.50783  0.93537  0.82972  1.0000
  H   H845      1.0  0.96817  0.66005  0.85414  1.0000
  H   H846      1.0  0.49151  0.78451  0.78834  1.0000
  H   H847      1.0  0.70480  0.73735  0.98381  1.0000
  H   H848      1.0  0.69471  0.85329  0.95563  1.0000
  S   S287      1.0  0.71392  0.98587  0.92081  1.0000
  H   H849      1.0  0.87912  0.84252  0.86643  1.0000
  C   C858      1.0  0.89707  0.84966  0.90642  1.0000
  H   H850      1.0  0.67135  0.97470  0.80404  1.0000
  C   C859      1.0  0.69681  0.90742  0.95034  1.0000
  H   H851      1.0  0.94792  0.73761  0.87315  1.0000
  H   H852      1.0  0.56529  0.77124  0.78477  1.0000
  H   H853      1.0  0.68458  0.85865  0.93267  1.0000
  H   H854      1.0  0.95206  0.68498  0.87594  1.0000
  H   H855      1.0  0.76535  0.82233  0.98836  1.0000
  H   H856      1.0  0.61709  0.94997  0.86259  1.0000
  H   H857      1.0  0.78008  0.76991  0.96318  1.0000
  H   H858      1.0  0.95366  0.70238  0.98254  1.0000
  H   H859      1.0  0.78091  0.80373  0.96188  1.0000
  H   H860      1.0  0.63436  0.91391  0.79323  1.0000
  S   S288      1.0  0.97471  0.79610  0.89115  1.0000
  C   C860      1.0  0.49640  0.98356  0.80627  1.0000
  C   C861      1.0  0.95442  0.67502  0.83049  1.0000
  C   C862      1.0  0.62732  0.92425  0.80376  1.0000
  C   C863      1.0  0.67077  0.96293  0.81616  1.0000
  Fe  Fe143     1.0  0.54475  0.69072  0.74686  1.0000
  C   C864      1.0  0.96943  0.76512  0.99157  1.0000
  H   H861      1.0  0.77829  0.74910  0.99213  1.0000
  Fe  Fe144     1.0  0.55497  0.93979  0.74431  1.0000
  H   H862      1.0  0.52957  0.84291  0.74497  1.0000
  H   H863      1.0  0.49641  0.76645  0.74423  1.0000
  H   H864      1.0  0.91114  0.70087  0.99329  1.0000
