data_image0
_chemical_formula_structural       CFe2SC3SHC2HNHCH3CH2C3H3NC2NSH2CFeH3S2C2H2CHSH2FeHSFeC3HC2HC2H2SCHCSH2FeSCSH2C3HFeS2FeS2Fe2SC5HCSCHC2H2SC3H2FeSCSH3CH2C2H2CHCHCHCH2C2H2C2SHCHCHSH2C3SCNH2CHC3HSHCHCH3CHCHCNC2HFeSFeS2FeS2HCSCFeHCH3NC2H2CNHCHFeHSC2HCHC2FeSNHCHCSHCHCFeC6H2C2SC2HCHC2SC2H2CH3FeSHSHFeHC2H2C2HSH2SC3H2C3H2NSHCSFeH2C4H4CHCHC4H3C3H2C2H3CNCH3CSC3H2C3HSFeCH2CHCHCSH2SNC3H2CSFeSHNFe2HCHSFeHC2S2HNCHCSC3S3CH4CHCH5CSNCHC3H2C2H2C4N2CHCH3CH2SH2C2HCHFe2CH2CH2CHC2SCH3FeCSCSH2CSCHCH2CHCH2CHSCHCNH2FeC2H2SCNHCHC2S2HC2HC2H2CH2C2H3NC2S2FeHCHCHSFeC5HCHSC2HC2SH2CH2NCHCHCH5SCH2C3H2CH2CHC2SC2H3Fe2C2HFeH6CS2HNHCHC2HNHCHC3HCSNH2CH3CH3C3H3SCFeSC2HFe2S2FeSFeS4HC6H4C2SC3SC3HNHSFeH3SCFe2H4CHSCHC2H3S3HFeC3H2C2SHSHC2H2SHFeCH2CFeHSC3SHCHCHC2FeSCHFe3SHSHC5SH3NHCSH3C2HCHCSHCHCSHCH2C2SN2FeCH4C3H3SC2H2CHCHFeSFeSHFeS2FeS2HC7H3C6H4CSHC2FeHCH2C2SC3FeHC3HSH3C3H2CH2CSHNHSCH4NCHCFeSCH2CFeS2FeSCFeHFeS2HS2H4CH3C8H3C2H5SNC4H3CH2CH2C2H2C2HC5SH2NSC3HNC3H3FeC2H2C2HC2HCHSFe
_chemical_formula_sum              "C384 Fe64 S128 H384 N32"
_cell_length_a       30.8278
_cell_length_b       44.1259
_cell_length_c       33.37
_cell_angle_alpha    90.3712
_cell_angle_beta     116.651
_cell_angle_gamma    89.7999

_space_group_name_H-M_alt    "P 1"
_space_group_IT_number       1

loop_
  _space_group_symop_operation_xyz
  'x, y, z'

loop_
  _atom_site_type_symbol
  _atom_site_label
  _atom_site_symmetry_multiplicity
  _atom_site_fract_x
  _atom_site_fract_y
  _atom_site_fract_z
  _atom_site_occupancy
  C   C1        1.0  0.04035  0.27103  0.10374  1.0000
  Fe  Fe1       1.0  0.03230  0.19570  0.06686  1.0000
  Fe  Fe2       1.0  0.05753  0.13000  0.06279  1.0000
  S   S1        1.0  0.06614  0.23464  0.11508  1.0000
  C   C2        1.0  0.06737  0.29517  0.13075  1.0000
  C   C3        1.0  0.06023  0.05290  0.15457  1.0000
  C   C4        1.0  0.05018  0.32496  0.12080  1.0000
  S   S2        1.0  0.00978  0.15284  0.08886  1.0000
  H   H1        1.0  0.03654  0.20384  0.48782  1.0000
  C   C5        1.0  0.03315  0.18213  0.50130  1.0000
  C   C6        1.0  0.04302  0.01288  0.47800  1.0000
  H   H2        1.0  0.03820  0.05543  0.17316  1.0000
  N   N1        1.0  0.07080  0.02104  0.14968  1.0000
  H   H3        1.0  0.05628  0.00570  0.20313  1.0000
  C   C7        1.0  0.06790  0.99961  0.17788  1.0000
  H   H4        1.0  0.06550  0.31484  0.27204  1.0000
  H   H5        1.0  0.03940  0.06351  0.12113  1.0000
  H   H6        1.0  0.05529  0.00183  0.45589  1.0000
  C   C8        1.0  0.06248  0.31651  0.01841  1.0000
  H   H7        1.0  0.04989  0.32483  0.21454  1.0000
  H   H8        1.0  0.06806  0.24122  0.02815  1.0000
  C   C9        1.0  0.00539  0.33082  0.08421  1.0000
  C   C10       1.0  0.05870  0.26148  0.00621  1.0000
  C   C11       1.0  0.08560  0.01315  0.11800  1.0000
  H   H9        1.0  0.08866  0.03022  0.09612  1.0000
  H   H10       1.0  0.41733  0.01673  0.18872  1.0000
  H   H11       1.0  0.09476  0.06567  0.17260  1.0000
  N   N2        1.0  0.08327  0.28860  0.03193  1.0000
  C   C12       1.0  0.49610  0.25617  0.36899  1.0000
  C   C13       1.0  0.33445  0.19524  0.28099  1.0000
  N   N3        1.0  0.36591  0.20138  0.32856  1.0000
  S   S3        1.0  0.30745  0.11807  0.27518  1.0000
  H   H12       1.0  0.13664  0.32183  0.23313  1.0000
  H   H13       1.0  0.29884  0.18642  0.27663  1.0000
  C   C14       1.0  0.47596  0.23351  0.33604  1.0000
  Fe  Fe3       1.0  0.48499  0.11882  0.36003  1.0000
  H   H14       1.0  0.47995  0.13305  0.22103  1.0000
  H   H15       1.0  0.32834  0.21576  0.26004  1.0000
  H   H16       1.0  0.18681  0.30959  0.12220  1.0000
  S   S4        1.0  0.47690  0.00651  0.40077  1.0000
  S   S5        1.0  0.48862  0.06710  0.22441  1.0000
  C   C15       1.0  0.20549  0.07915  0.15962  1.0000
  C   C16       1.0  0.42641  0.21232  0.41881  1.0000
  H   H17       1.0  0.21994  0.15226  0.22910  1.0000
  H   H18       1.0  0.14388  0.14322  0.15958  1.0000
  C   C17       1.0  0.37508  0.23057  0.34430  1.0000
  H   H19       1.0  0.43341  0.16368  0.42470  1.0000
  S   S6        1.0  0.40918  0.05184  0.28747  1.0000
  H   H20       1.0  0.46438  0.00433  0.24181  1.0000
  H   H21       1.0  0.41443  0.25968  0.40151  1.0000
  Fe  Fe4       1.0  0.38263  0.09688  0.29985  1.0000
  H   H22       1.0  0.45163  0.21659  0.45362  1.0000
  S   S7        1.0  0.42978  0.09461  0.37476  1.0000
  Fe  Fe5       1.0  0.46613  0.07927  0.27898  1.0000
  C   C18       1.0  0.48645  0.20281  0.34704  1.0000
  C   C19       1.0  0.25477  0.11094  0.22401  1.0000
  C   C20       1.0  0.41624  0.18264  0.40261  1.0000
  H   H23       1.0  0.35114  0.17773  0.26807  1.0000
  C   C21       1.0  0.38540  0.17757  0.35719  1.0000
  C   C22       1.0  0.17310  0.12685  0.17013  1.0000
  H   H24       1.0  0.27839  0.06814  0.20944  1.0000
  C   C23       1.0  0.16724  0.10029  0.14514  1.0000
  C   C24       1.0  0.21638  0.13194  0.20957  1.0000
  H   H25       1.0  0.10251  0.29085  0.15855  1.0000
  H   H26       1.0  0.14375  0.26379  0.07954  1.0000
  S   S8        1.0  0.47693  0.29388  0.35429  1.0000
  C   C25       1.0  0.12766  0.28598  0.06842  1.0000
  H   H27       1.0  0.37789  0.15448  0.34473  1.0000
  C   C26       1.0  0.15208  0.31172  0.09278  1.0000
  S   S9        1.0  0.08333  0.17282  0.04495  1.0000
  H   H28       1.0  0.36040  0.24957  0.32167  1.0000
  H   H29       1.0  0.46996  0.18559  0.32157  1.0000
  Fe  Fe6       1.0  0.46111  0.05157  0.36189  1.0000
  S   S10       1.0  0.11174  0.09211  0.09719  1.0000
  C   C27       1.0  0.40545  0.23648  0.38962  1.0000
  S   S11       1.0  0.43635  0.12422  0.28660  1.0000
  H   H30       1.0  0.20130  0.05851  0.14058  1.0000
  H   H31       1.0  0.45113  0.23974  0.30205  1.0000
  C   C28       1.0  0.24931  0.08459  0.19858  1.0000
  C   C29       1.0  0.49055  0.12563  0.19575  1.0000
  C   C30       1.0  0.49508  0.09471  0.18915  1.0000
  H   H32       1.0  0.09800  0.16321  0.50187  1.0000
  Fe  Fe7       1.0  0.09700  0.11182  0.73481  1.0000
  S   S12       1.0  0.11879  0.15991  0.73387  1.0000
  S   S13       1.0  0.08684  0.09550  0.79479  1.0000
  Fe  Fe8       1.0  0.10725  0.09513  0.64894  1.0000
  S   S14       1.0  0.13209  0.14253  0.64433  1.0000
  S   S15       1.0  0.10650  0.06154  0.59527  1.0000
  Fe  Fe9       1.0  0.17762  0.14045  0.71925  1.0000
  Fe  Fe10      1.0  0.07175  0.15762  0.65978  1.0000
  S   S16       1.0  0.15837  0.09202  0.72346  1.0000
  C   C31       1.0  0.03349  0.22391  0.59738  1.0000
  C   C32       1.0  0.05470  0.26957  0.55017  1.0000
  C   C33       1.0  0.06179  0.04295  0.54629  1.0000
  C   C34       1.0  0.07073  0.12014  0.82831  1.0000
  C   C35       1.0  0.05527  0.14989  0.81524  1.0000
  H   H33       1.0  0.10371  0.20575  0.61146  1.0000
  C   C36       1.0  0.07780  0.22364  0.59532  1.0000
  S   S17       1.0  0.04431  0.11052  0.66100  1.0000
  C   C37       1.0  0.05852  0.12805  0.89540  1.0000
  H   H34       1.0  0.08430  0.08641  0.87904  1.0000
  C   C38       1.0  0.07241  0.10938  0.86860  1.0000
  C   C39       1.0  0.08818  0.24627  0.57143  1.0000
  H   H35       1.0  0.12211  0.24560  0.56924  1.0000
  H   H36       1.0  0.05966  0.11938  0.92612  1.0000
  S   S18       1.0  0.06857  0.29724  0.51986  1.0000
  C   C40       1.0  0.04236  0.15765  0.88190  1.0000
  C   C41       1.0  0.04099  0.16845  0.84180  1.0000
  C   C42       1.0  0.20685  0.13473  0.84618  1.0000
  H   H37       1.0  0.19086  0.11339  0.82752  1.0000
  H   H38       1.0  0.05346  0.15847  0.78423  1.0000
  Fe  Fe11      1.0  0.01897  0.16843  0.97760  1.0000
  S   S19       1.0  0.01721  0.19434  0.62325  1.0000
  C   C43       1.0  0.01238  0.04253  0.53569  1.0000
  S   S20       1.0  0.02073  0.18135  0.91236  1.0000
  H   H39       1.0  0.02841  0.19126  0.83093  1.0000
  H   H40       1.0  0.14028  0.31945  0.61276  1.0000
  H   H41       1.0  0.17502  0.29310  0.59744  1.0000
  C   C44       1.0  0.17758  0.31361  0.61785  1.0000
  H   H42       1.0  0.19932  0.30841  0.65398  1.0000
  H   H43       1.0  0.18332  0.14213  0.86175  1.0000
  C   C45       1.0  0.07674  0.02789  0.51718  1.0000
  C   C46       1.0  0.02471  0.12773  0.53828  1.0000
  H   H44       1.0  0.01861  0.26396  0.99135  1.0000
  H   H45       1.0  0.09012  0.11412  0.53460  1.0000
  C   C47       1.0  0.01072  0.27011  0.55280  1.0000
  H   H46       1.0  0.20552  0.15200  0.82158  1.0000
  C   C48       1.0  0.06339  0.13197  0.52782  1.0000
  H   H47       1.0  0.11477  0.02800  0.52486  1.0000
  C   C49       1.0  0.06773  0.15944  0.50945  1.0000
  H   H48       1.0  0.06938  0.25718  0.97900  1.0000
  C   C50       1.0  0.00005  0.24721  0.57611  1.0000
  H   H49       1.0  0.02699  0.31864  0.98993  1.0000
  H   H50       1.0  0.02209  0.10651  0.55321  1.0000
  C   C51       1.0  0.48557  0.28119  0.91429  1.0000
  C   C52       1.0  0.43393  0.21537  0.83759  1.0000
  H   H51       1.0  0.46099  0.17214  0.82919  1.0000
  H   H52       1.0  0.26037  0.17453  0.90858  1.0000
  C   C53       1.0  0.31621  0.11774  0.79853  1.0000
  C   C54       1.0  0.46413  0.32861  0.87287  1.0000
  S   S21       1.0  0.45419  0.11353  0.89908  1.0000
  H   H53       1.0  0.40208  0.15517  0.72840  1.0000
  C   C55       1.0  0.49650  0.32215  0.85518  1.0000
  H   H54       1.0  0.34646  0.16936  0.96507  1.0000
  C   C56       1.0  0.45876  0.30819  0.90240  1.0000
  H   H55       1.0  0.46526  0.22031  0.86903  1.0000
  S   S22       1.0  0.47917  0.25715  0.95308  1.0000
  H   H56       1.0  0.34965  0.14404  0.73592  1.0000
  H   H57       1.0  0.40464  0.17085  0.89294  1.0000
  C   C57       1.0  0.38775  0.15234  0.75329  1.0000
  C   C58       1.0  0.33426  0.16637  0.83617  1.0000
  C   C59       1.0  0.39536  0.23580  0.82027  1.0000
  S   S23       1.0  0.25028  0.16413  0.75806  1.0000
  C   C60       1.0  0.35263  0.20127  0.75866  1.0000
  N   N4        1.0  0.39044  0.18119  0.77633  1.0000
  H   H58       1.0  0.32003  0.19557  0.72848  1.0000
  H   H59       1.0  0.26434  0.08668  0.85695  1.0000
  C   C61       1.0  0.32828  0.15089  0.94200  1.0000
  H   H60       1.0  0.39172  0.12218  0.96719  1.0000
  C   C62       1.0  0.43117  0.18817  0.81484  1.0000
  C   C63       1.0  0.39500  0.12646  0.86314  1.0000
  C   C64       1.0  0.28179  0.10458  0.88132  1.0000
  H   H61       1.0  0.40901  0.13443  0.77758  1.0000
  S   S24       1.0  0.47608  0.17547  0.98692  1.0000
  H   H62       1.0  0.37353  0.08440  0.82619  1.0000
  C   C65       1.0  0.36244  0.10723  0.82932  1.0000
  H   H63       1.0  0.35031  0.08073  0.91293  1.0000
  C   C66       1.0  0.27973  0.15368  0.91000  1.0000
  H   H64       1.0  0.29223  0.10319  0.77145  1.0000
  H   H65       1.0  0.39710  0.25681  0.83808  1.0000
  H   H66       1.0  0.32380  0.24424  0.76705  1.0000
  C   C67       1.0  0.38018  0.15583  0.86703  1.0000
  H   H67       1.0  0.43420  0.31355  0.91658  1.0000
  C   C68       1.0  0.30252  0.14766  0.80122  1.0000
  H   H68       1.0  0.32396  0.18953  0.83854  1.0000
  C   C69       1.0  0.33030  0.10100  0.91298  1.0000
  N   N5        1.0  0.25711  0.13063  0.88035  1.0000
  C   C70       1.0  0.35443  0.22880  0.78044  1.0000
  C   C71       1.0  0.35364  0.12434  0.94341  1.0000
  H   H69       1.0  0.00013  0.05337  0.55795  1.0000
  Fe  Fe12      1.0  0.07039  0.44723  0.19087  1.0000
  S   S25       1.0  0.08877  0.39961  0.18178  1.0000
  Fe  Fe13      1.0  0.07195  0.46854  0.10368  1.0000
  S   S26       1.0  0.09224  0.42215  0.08919  1.0000
  S   S27       1.0  0.06712  0.51178  0.06405  1.0000
  Fe  Fe14      1.0  0.03640  0.40545  0.10960  1.0000
  S   S28       1.0  0.07031  0.46138  0.25639  1.0000
  S   S29       1.0  0.06654  0.61943  0.46040  1.0000
  H   H70       1.0  0.07919  0.46073  0.34577  1.0000
  C   C72       1.0  0.05115  0.44468  0.32599  1.0000
  S   S30       1.0  0.05025  0.37726  0.47382  1.0000
  C   C73       1.0  0.03909  0.44044  0.28040  1.0000
  Fe  Fe15      1.0  0.03383  0.64738  0.49714  1.0000
  H   H71       1.0  0.03632  0.43200  0.38123  1.0000
  C   C74       1.0  0.10547  0.55028  0.16325  1.0000
  H   H72       1.0  0.10235  0.55767  0.13111  1.0000
  H   H73       1.0  0.06821  0.36461  0.03211  1.0000
  H   H74       1.0  0.07225  0.34338  0.14072  1.0000
  N   N6        1.0  0.06515  0.54156  0.16748  1.0000
  C   C75       1.0  0.08579  0.34268  0.04207  1.0000
  C   C76       1.0  0.06948  0.53103  0.20759  1.0000
  H   H75       1.0  0.03788  0.52295  0.21067  1.0000
  H   H76       1.0  0.08524  0.38337  0.30104  1.0000
  C   C77       1.0  0.11287  0.37638  0.29123  1.0000
  N   N7        1.0  0.10611  0.35127  0.26479  1.0000
  H   H77       1.0  0.05982  0.56349  0.00923  1.0000
  C   C78       1.0  0.02699  0.42839  0.34620  1.0000
  H   H78       1.0  0.01678  0.55701  0.10159  1.0000
  Fe  Fe16      1.0  0.01926  0.33821  0.49535  1.0000
  H   H79       1.0  0.03035  0.34849  0.24691  1.0000
  S   S31       1.0  0.01236  0.45203  0.11971  1.0000
  C   C79       1.0  0.01726  0.54202  0.12846  1.0000
  C   C80       1.0  0.06085  0.33393  0.24894  1.0000
  H   H80       1.0  0.00769  0.51886  0.11399  1.0000
  C   C81       1.0  0.11488  0.52986  0.24512  1.0000
  H   H81       1.0  0.11804  0.52117  0.27670  1.0000
  C   C82       1.0  0.00273  0.41969  0.25511  1.0000
  C   C83       1.0  0.02894  0.51924  0.00615  1.0000
  Fe  Fe17      1.0  0.09066  0.66411  0.44448  1.0000
  S   S32       1.0  0.12882  0.46733  0.17629  1.0000
  N   N8        1.0  0.49713  0.48817  0.34504  1.0000
  H   H82       1.0  0.47659  0.65652  0.04809  1.0000
  C   C84       1.0  0.49756  0.50895  0.31494  1.0000
  H   H83       1.0  0.48492  0.55552  0.29306  1.0000
  C   C85       1.0  0.14178  0.34187  0.25376  1.0000
  S   S33       1.0  0.35064  0.61936  0.44950  1.0000
  H   H84       1.0  0.48899  0.64227  0.12438  1.0000
  C   C86       1.0  0.21511  0.66358  0.45094  1.0000
  H   H85       1.0  0.47702  0.44292  0.32325  1.0000
  C   C87       1.0  0.13089  0.34023  0.07951  1.0000
  Fe  Fe18      1.0  0.14363  0.41956  0.16285  1.0000
  C   C88       1.0  0.48225  0.49639  0.37654  1.0000
  C   C89       1.0  0.35288  0.42150  0.31270  1.0000
  C   C90       1.0  0.19095  0.38496  0.29290  1.0000
  C   C91       1.0  0.47009  0.54780  0.34945  1.0000
  C   C92       1.0  0.18467  0.35860  0.26758  1.0000
  C   C93       1.0  0.34911  0.39282  0.29332  1.0000
  H   H86       1.0  0.46018  0.57119  0.35158  1.0000
  H   H87       1.0  0.18482  0.61871  0.43598  1.0000
  C   C94       1.0  0.48420  0.53906  0.31677  1.0000
  C   C95       1.0  0.29924  0.63708  0.45079  1.0000
  S   S34       1.0  0.45185  0.35585  0.42416  1.0000
  C   C96       1.0  0.47771  0.62097  0.26593  1.0000
  C   C97       1.0  0.15149  0.54913  0.20000  1.0000
  H   H88       1.0  0.15898  0.41461  0.32413  1.0000
  C   C98       1.0  0.15610  0.53895  0.24122  1.0000
  H   H89       1.0  0.14905  0.36031  0.09865  1.0000
  C   C99       1.0  0.25804  0.61942  0.44248  1.0000
  C   C100      1.0  0.27023  0.43297  0.25626  1.0000
  S   S35       1.0  0.49533  0.60508  0.19457  1.0000
  C   C101      1.0  0.46884  0.52635  0.37943  1.0000
  C   C102      1.0  0.21627  0.63253  0.44270  1.0000
  H   H90       1.0  0.30421  0.36243  0.23996  1.0000
  H   H91       1.0  0.18338  0.55560  0.19624  1.0000
  C   C103      1.0  0.31321  0.44149  0.29409  1.0000
  H   H92       1.0  0.19160  0.53759  0.26991  1.0000
  H   H93       1.0  0.31586  0.46372  0.30886  1.0000
  H   H94       1.0  0.45738  0.53289  0.40462  1.0000
  Fe  Fe19      1.0  0.46587  0.39870  0.39624  1.0000
  S   S36       1.0  0.21411  0.39305  0.18809  1.0000
  H   H95       1.0  0.24008  0.44861  0.24206  1.0000
  S   S37       1.0  0.40692  0.43335  0.35934  1.0000
  H   H96       1.0  0.21229  0.35174  0.25759  1.0000
  Fe  Fe20      1.0  0.42492  0.63986  0.46606  1.0000
  H   H97       1.0  0.37942  0.37724  0.30725  1.0000
  C   C104      1.0  0.15493  0.39390  0.30500  1.0000
  C   C105      1.0  0.30640  0.38447  0.25515  1.0000
  H   H98       1.0  0.44261  0.62845  0.24079  1.0000
  H   H99       1.0  0.22347  0.39856  0.30267  1.0000
  C   C106      1.0  0.48886  0.62314  0.31175  1.0000
  C   C107      1.0  0.26688  0.40450  0.23635  1.0000
  H   H100      1.0  0.46243  0.63221  0.32166  1.0000
  S   S38       1.0  0.48150  0.60403  0.47684  1.0000
  H   H101      1.0  0.25826  0.59547  0.43548  1.0000
  H   H102      1.0  0.48046  0.47968  0.39948  1.0000
  S   S39       1.0  0.07922  0.44009  0.55983  1.0000
  C   C108      1.0  0.17689  0.44370  0.61833  1.0000
  C   C109      1.0  0.13394  0.42670  0.60415  1.0000
  C   C110      1.0  0.13496  0.39973  0.62634  1.0000
  H   H103      1.0  0.17640  0.46466  0.60149  1.0000
  H   H104      1.0  0.10207  0.38662  0.61618  1.0000
  C   C111      1.0  0.22152  0.40653  0.67594  1.0000
  C   C112      1.0  0.22071  0.43347  0.65370  1.0000
  C   C113      1.0  0.17832  0.39000  0.66245  1.0000
  H   H105      1.0  0.25370  0.44646  0.66380  1.0000
  H   H106      1.0  0.17842  0.36931  0.67973  1.0000
  N   N9        1.0  0.05725  0.54271  0.59324  1.0000
  S   S40       1.0  0.05016  0.63950  0.56992  1.0000
  H   H107      1.0  0.25226  0.40573  0.56668  1.0000
  C   C114      1.0  0.04356  0.51372  0.57815  1.0000
  S   S41       1.0  0.27528  0.39234  0.72060  1.0000
  Fe  Fe21      1.0  0.02437  0.40514  0.51522  1.0000
  H   H108      1.0  0.00969  0.47258  0.58484  1.0000
  H   H109      1.0  0.16486  0.39221  0.52320  1.0000
  C   C115      1.0  0.23737  0.38655  0.57653  1.0000
  C   C116      1.0  0.02030  0.63526  0.63553  1.0000
  C   C117      1.0  0.26689  0.36965  0.61422  1.0000
  C   C118      1.0  0.01990  0.49570  0.59664  1.0000
  H   H110      1.0  0.23701  0.45134  0.74762  1.0000
  H   H111      1.0  0.05093  0.50429  0.55169  1.0000
  H   H112      1.0  0.05143  0.64936  0.65516  1.0000
  H   H113      1.0  0.10211  0.54829  0.56010  1.0000
  C   C119      1.0  0.07944  0.56186  0.57172  1.0000
  H   H114      1.0  0.05060  0.57368  0.54256  1.0000
  C   C120      1.0  0.04762  0.55452  0.62642  1.0000
  H   H115      1.0  0.10318  0.57953  0.59520  1.0000
  C   C121      1.0  0.03322  0.54718  0.98800  1.0000
  C   C122      1.0  0.00945  0.50771  0.63013  1.0000
  C   C123      1.0  0.02332  0.53733  0.64515  1.0000
  C   C124      1.0  0.00883  0.62857  0.59063  1.0000
  H   H116      1.0  0.05814  0.57754  0.63818  1.0000
  H   H117      1.0  0.00742  0.57567  0.92899  1.0000
  H   H118      1.0  0.25619  0.40712  0.79816  1.0000
  C   C125      1.0  0.27671  0.42799  0.81009  1.0000
  C   C126      1.0  0.18845  0.37897  0.55215  1.0000
  C   C127      1.0  0.26602  0.45283  0.78158  1.0000
  H   H119      1.0  0.00281  0.62790  0.69067  1.0000
  H   H120      1.0  0.28644  0.49836  0.77428  1.0000
  C   C128      1.0  0.29370  0.47916  0.79652  1.0000
  C   C129      1.0  0.00355  0.55418  0.94243  1.0000
  H   H121      1.0  0.01459  0.54715  0.67061  1.0000
  H   H122      1.0  0.26969  0.33331  0.65764  1.0000
  H   H123      1.0  0.13166  0.34890  0.54725  1.0000
  C   C130      1.0  0.16972  0.35459  0.56605  1.0000
  N   N10       1.0  0.19856  0.33868  0.60373  1.0000
  C   C131      1.0  0.24678  0.34562  0.62743  1.0000
  H   H124      1.0  0.48742  0.39092  0.68020  1.0000
  H   H125      1.0  0.30475  0.37571  0.63396  1.0000
  H   H126      1.0  0.48839  0.50378  0.65521  1.0000
  C   C132      1.0  0.49568  0.51304  0.62785  1.0000
  S   S42       1.0  0.40124  0.38715  0.72095  1.0000
  C   C133      1.0  0.36822  0.53688  0.55267  1.0000
  C   C134      1.0  0.42275  0.57529  0.55087  1.0000
  C   C135      1.0  0.37561  0.56456  0.53672  1.0000
  H   H127      1.0  0.34491  0.57768  0.51323  1.0000
  H   H128      1.0  0.42868  0.59673  0.53830  1.0000
  C   C136      1.0  0.48364  0.39706  0.64744  1.0000
  C   C137      1.0  0.47485  0.41253  0.56261  1.0000
  C   C138      1.0  0.48016  0.49815  0.91473  1.0000
  H   H129      1.0  0.35331  0.50077  0.85124  1.0000
  S   S43       1.0  0.48789  0.43364  0.78771  1.0000
  Fe  Fe22      1.0  0.45685  0.38854  0.79318  1.0000
  C   C139      1.0  0.31529  0.42977  0.85322  1.0000
  H   H130      1.0  0.44397  0.34961  0.86454  1.0000
  H   H131      1.0  0.32435  0.41000  0.87463  1.0000
  C   C140      1.0  0.38342  0.45665  0.91248  1.0000
  H   H132      1.0  0.37504  0.44477  0.93743  1.0000
  C   C141      1.0  0.45903  0.42365  0.62702  1.0000
  H   H133      1.0  0.40230  0.49877  0.59505  1.0000
  C   C142      1.0  0.40828  0.52034  0.58287  1.0000
  S   S44       1.0  0.44618  0.49436  0.85540  1.0000
  H   H134      1.0  0.47109  0.41859  0.52985  1.0000
  H   H135      1.0  0.39379  0.48030  0.92468  1.0000
  S   S45       1.0  0.40572  0.40814  0.81789  1.0000
  N   N11       1.0  0.34185  0.45583  0.86786  1.0000
  C   C143      1.0  0.33161  0.48032  0.84008  1.0000
  C   C144      1.0  0.47800  0.52570  0.93533  1.0000
  C   C145      1.0  0.46201  0.55815  0.58097  1.0000
  H   H136      1.0  0.45559  0.54395  0.91493  1.0000
  H   H137      1.0  0.43537  0.45155  0.56807  1.0000
  C   C146      1.0  0.45470  0.43125  0.58446  1.0000
  S   S46       1.0  0.37531  0.45736  0.73627  1.0000
  Fe  Fe23      1.0  0.42821  0.43354  0.71680  1.0000
  S   S47       1.0  0.43446  0.44832  0.65406  1.0000
  H   H138      1.0  0.33171  0.52826  0.54164  1.0000
  N   N12       1.0  0.45440  0.53118  0.59693  1.0000
  Fe  Fe24      1.0  0.35208  0.41067  0.74452  1.0000
  Fe  Fe25      1.0  0.43325  0.45338  0.80827  1.0000
  H   H139      1.0  0.41515  0.44557  0.91106  1.0000
  C   C147      1.0  0.49987  0.38607  0.58329  1.0000
  H   H140      1.0  0.49854  0.56662  0.59147  1.0000
  S   S48       1.0  0.47197  0.66456  0.53047  1.0000
  Fe  Fe26      1.0  0.04026  0.86962  0.04429  1.0000
  H   H141      1.0  0.07629  0.80593  0.44675  1.0000
  C   C148      1.0  0.09683  0.80410  0.36324  1.0000
  C   C149      1.0  0.03789  0.80259  0.42566  1.0000
  S   S49       1.0  0.05879  0.87628  0.11819  1.0000
  S   S50       1.0  0.03727  0.86098  0.39809  1.0000
  H   H142      1.0  0.03950  0.75544  0.44326  1.0000
  N   N13       1.0  0.05485  0.78851  0.33817  1.0000
  C   C150      1.0  0.09177  0.74262  0.37711  1.0000
  H   H143      1.0  0.06297  0.87285  0.20538  1.0000
  C   C151      1.0  0.03619  0.88989  0.18697  1.0000
  S   S51       1.0  0.07424  0.82848  0.02938  1.0000
  C   C152      1.0  0.13444  0.75835  0.40323  1.0000
  C   C153      1.0  0.01713  0.77398  0.42368  1.0000
  C   C154      1.0  0.05207  0.75810  0.34450  1.0000
  S   S52       1.0  0.16299  0.68185  0.44994  1.0000
  S   S53       1.0  0.02176  0.67021  0.38073  1.0000
  S   S54       1.0  0.06201  0.69156  0.48472  1.0000
  C   C155      1.0  0.13713  0.78931  0.39631  1.0000
  H   H144      1.0  0.09888  0.82828  0.35855  1.0000
  H   H145      1.0  0.16522  0.74647  0.42890  1.0000
  H   H146      1.0  0.10202  0.93744  0.13814  1.0000
  H   H147      1.0  0.17003  0.80180  0.41672  1.0000
  C   C156      1.0  0.09372  0.96099  0.14163  1.0000
  H   H148      1.0  0.02386  0.90262  0.24378  1.0000
  C   C157      1.0  0.07957  0.96935  0.17442  1.0000
  H   H149      1.0  0.07701  0.95239  0.19665  1.0000
  H   H150      1.0  0.01877  0.74572  0.32496  1.0000
  H   H151      1.0  0.10789  0.97673  0.08763  1.0000
  H   H152      1.0  0.03302  0.94553  0.45959  1.0000
  H   H153      1.0  0.08951  0.71859  0.38247  1.0000
  C   C158      1.0  0.04065  0.93538  0.49251  1.0000
  S   S55       1.0  0.01001  0.94406  0.35140  1.0000
  N   N14       1.0  0.00078  0.91511  0.48694  1.0000
  C   C159      1.0  0.00442  0.88466  0.48089  1.0000
  H   H154      1.0  0.01340  0.82874  0.31090  1.0000
  C   C160      1.0  0.02493  0.89540  0.14188  1.0000
  C   C161      1.0  0.00948  0.82651  0.39942  1.0000
  C   C162      1.0  0.01404  0.90673  0.20883  1.0000
  H   H155      1.0  0.03731  0.87521  0.48167  1.0000
  H   H156      1.0  0.09058  0.74255  0.01505  1.0000
  C   C163      1.0  0.09683  0.98299  0.11320  1.0000
  C   C164      1.0  0.01324  0.80417  0.30306  1.0000
  H   H157      1.0  0.01419  0.80167  0.27034  1.0000
  H   H158      1.0  0.07589  0.92319  0.50550  1.0000
  C   C165      1.0  0.22944  0.88976  0.00648  1.0000
  C   C166      1.0  0.47736  0.66496  0.11204  1.0000
  C   C167      1.0  0.42703  0.93114  0.47198  1.0000
  C   C168      1.0  0.31155  0.88304  0.01286  1.0000
  N   N15       1.0  0.46014  0.98034  0.18437  1.0000
  N   N16       1.0  0.45720  0.71561  0.12459  1.0000
  C   C169      1.0  0.45450  0.73889  0.15494  1.0000
  H   H159      1.0  0.42604  0.98966  0.48580  1.0000
  C   C170      1.0  0.29826  0.66805  0.45951  1.0000
  H   H160      1.0  0.42490  0.75531  0.13641  1.0000
  H   H161      1.0  0.44743  0.72879  0.18187  1.0000
  H   H162      1.0  0.32956  0.68195  0.46594  1.0000
  C   C171      1.0  0.44911  0.72353  0.08220  1.0000
  H   H163      1.0  0.43252  0.88997  0.43906  1.0000
  H   H164      1.0  0.48932  0.75162  0.17054  1.0000
  S   S56       1.0  0.36908  0.89924  0.02450  1.0000
  H   H165      1.0  0.40026  0.95033  0.15045  1.0000
  H   H166      1.0  0.44004  0.74675  0.07090  1.0000
  C   C172      1.0  0.25638  0.68119  0.45938  1.0000
  C   C173      1.0  0.43693  0.99648  0.20820  1.0000
  H   H167      1.0  0.47875  0.68037  0.17359  1.0000
  C   C174      1.0  0.47128  0.68673  0.13972  1.0000
  H   H168      1.0  0.41098  0.98176  0.21375  1.0000
  Fe  Fe27      1.0  0.43836  0.87644  0.02933  1.0000
  Fe  Fe28      1.0  0.49825  0.69041  0.48749  1.0000
  C   C175      1.0  0.45745  0.94189  0.13194  1.0000
  H   H169      1.0  0.25598  0.70521  0.46584  1.0000
  H   H170      1.0  0.28448  0.92460  0.02774  1.0000
  C   C176      1.0  0.45546  0.70236  0.05386  1.0000
  H   H171      1.0  0.45126  0.70915  0.02113  1.0000
  H   H172      1.0  0.43850  0.92335  0.10937  1.0000
  C   C177      1.0  0.46985  0.67291  0.06904  1.0000
  H   H173      1.0  0.41271  0.94424  0.44126  1.0000
  C   C178      1.0  0.27603  0.90130  0.01676  1.0000
  C   C179      1.0  0.43833  0.90051  0.47054  1.0000
  S   S57       1.0  0.44778  0.66789  0.42200  1.0000
  C   C180      1.0  0.43612  0.95718  0.15546  1.0000
  H   H174      1.0  0.20258  0.90413  0.00957  1.0000
  H   H175      1.0  0.10479  0.67452  0.00669  1.0000
  H   H176      1.0  0.03943  0.74543  0.85803  1.0000
  Fe  Fe29      1.0  0.08976  0.85793  0.98243  1.0000
  C   C181      1.0  0.34433  0.89064  0.91260  1.0000
  S   S58       1.0  0.15874  0.84407  0.97614  1.0000
  C   C182      1.0  0.07796  0.68748  0.97773  1.0000
  S   S59       1.0  0.01496  0.68283  0.83611  1.0000
  H   H177      1.0  0.32084  0.88797  0.92870  1.0000
  H   H178      1.0  0.33752  0.84364  0.89210  1.0000
  C   C183      1.0  0.00720  0.75886  0.90098  1.0000
  S   S60       1.0  0.01774  0.84693  0.92316  1.0000
  C   C184      1.0  0.21749  0.85982  0.99155  1.0000
  H   H179      1.0  0.35163  0.96508  0.91713  1.0000
  C   C185      1.0  0.01678  0.73848  0.87344  1.0000
  H   H180      1.0  0.32474  0.94060  0.94258  1.0000
  H   H181      1.0  0.02246  0.78140  0.90673  1.0000
  C   C186      1.0  0.25303  0.84161  0.98750  1.0000
  H   H182      1.0  0.16430  0.78247  0.94595  1.0000
  C   C187      1.0  0.14733  0.76293  0.95273  1.0000
  H   H183      1.0  0.04457  0.95400  0.51654  1.0000
  H   H184      1.0  0.24434  0.81846  0.97593  1.0000
  C   C188      1.0  0.14329  0.73557  0.93009  1.0000
  H   H185      1.0  0.15687  0.73363  0.90531  1.0000
  S   S61       1.0  0.06030  0.90010  0.00097  1.0000
  C   C189      1.0  0.12047  0.71089  0.93885  1.0000
  H   H186      1.0  0.11632  0.68992  0.92024  1.0000
  C   C190      1.0  0.10592  0.74023  0.99158  1.0000
  N   N17       1.0  0.10154  0.71359  0.96880  1.0000
  H   H187      1.0  0.06172  0.67214  0.94800  1.0000
  H   H188      1.0  0.04771  0.69493  0.98503  1.0000
  Fe  Fe30      1.0  0.00154  0.82030  0.97158  1.0000
  C   C191      1.0  0.12885  0.76525  0.98386  1.0000
  C   C192      1.0  0.29978  0.85304  0.99828  1.0000
  H   H189      1.0  0.32651  0.83868  0.99498  1.0000
  H   H190      1.0  0.13174  0.78652  0.00140  1.0000
  S   S62       1.0  0.44760  0.83148  0.00198  1.0000
  C   C193      1.0  0.35344  0.86547  0.89180  1.0000
  N   N18       1.0  0.36532  0.91805  0.91325  1.0000
  H   H191      1.0  0.38912  0.94678  0.97014  1.0000
  C   C194      1.0  0.35726  0.94397  0.93680  1.0000
  H   H192      1.0  0.46640  0.85985  0.50955  1.0000
  C   C195      1.0  0.45751  0.88367  0.51003  1.0000
  C   C196      1.0  0.38410  0.86852  0.87152  1.0000
  S   S63       1.0  0.48579  0.90124  0.00466  1.0000
  S   S64       1.0  0.49821  0.84489  0.91489  1.0000
  H   H193      1.0  0.41392  0.94253  0.89571  1.0000
  C   C197      1.0  0.42253  0.97665  0.51266  1.0000
  C   C198      1.0  0.40554  0.89648  0.87256  1.0000
  H   H194      1.0  0.46169  0.73732  0.54093  1.0000
  C   C199      1.0  0.45416  0.92835  0.55066  1.0000
  C   C200      1.0  0.48222  0.75821  0.54981  1.0000
  H   H195      1.0  0.48019  0.88466  0.58112  1.0000
  H   H196      1.0  0.39253  0.84905  0.85617  1.0000
  C   C201      1.0  0.39601  0.92110  0.89399  1.0000
  H   H197      1.0  0.46124  0.93920  0.58228  1.0000
  H   H198      1.0  0.43058  0.89872  0.85798  1.0000
  C   C202      1.0  0.46538  0.89761  0.55032  1.0000
  C   C203      1.0  0.47768  0.77857  0.58029  1.0000
  H   H199      1.0  0.45368  0.77320  0.59498  1.0000
  H   H200      1.0  0.44745  0.98761  0.54498  1.0000
  H   H201      1.0  0.38470  0.97848  0.50812  1.0000
  N   N19       1.0  0.43546  0.94471  0.51182  1.0000
  C   C204      1.0  0.99362  0.01249  0.46739  1.0000
  C   C205      1.0  0.52835  0.24804  0.41279  1.0000
  S   S65       1.0  0.54206  0.16578  0.11696  1.0000
  S   S66       1.0  0.68911  0.18439  0.01812  1.0000
  Fe  Fe31      1.0  0.54406  0.16539  0.04936  1.0000
  H   H202      1.0  0.61492  0.12240  0.20528  1.0000
  C   C206      1.0  0.82481  0.17426  0.02580  1.0000
  H   H203      1.0  0.66165  0.10999  0.25889  1.0000
  C   C207      1.0  0.58898  0.18667  0.27672  1.0000
  H   H204      1.0  0.54406  0.26536  0.43836  1.0000
  S   S67       1.0  0.57380  0.13253  0.01567  1.0000
  Fe  Fe32      1.0  0.94983  0.15101  0.01775  1.0000
  C   C208      1.0  0.73913  0.16957  0.01047  1.0000
  C   C209      1.0  0.97767  0.30656  0.05781  1.0000
  C   C210      1.0  0.62207  0.11384  0.23900  1.0000
  C   C211      1.0  0.97867  0.02750  0.49653  1.0000
  C   C212      1.0  0.51763  0.13803  0.13918  1.0000
  H   H205      1.0  0.58718  0.21064  0.26907  1.0000
  C   C213      1.0  0.51812  0.19459  0.39094  1.0000
  H   H206      1.0  0.56546  0.19246  0.32821  1.0000
  S   S68       1.0  0.58358  0.20483  0.03879  1.0000
  C   C214      1.0  0.57810  0.14554  0.31861  1.0000
  C   C215      1.0  0.78425  0.18458  0.03123  1.0000
  H   H207      1.0  0.94290  0.31097  0.02952  1.0000
  C   C216      1.0  0.59254  0.12517  0.29456  1.0000
  C   C217      1.0  0.53966  0.21729  0.42360  1.0000
  S   S69       1.0  0.51968  0.07580  0.35183  1.0000
  H   H208      1.0  0.53214  0.09978  0.10672  1.0000
  H   H209      1.0  0.85914  0.18603  0.04227  1.0000
  C   C218      1.0  0.51968  0.10708  0.13082  1.0000
  H   H210      1.0  0.59310  0.10111  0.30134  1.0000
  H   H211      1.0  0.56825  0.13743  0.34407  1.0000
  N   N20       1.0  0.60499  0.13539  0.26244  1.0000
  C   C219      1.0  0.60361  0.16571  0.25350  1.0000
  H   H212      1.0  0.60270  0.09184  0.23353  1.0000
  C   C220      1.0  0.99521  0.27667  0.06743  1.0000
  H   H213      1.0  0.78815  0.20420  0.05215  1.0000
  C   C221      1.0  0.57645  0.17646  0.30964  1.0000
  H   H214      1.0  0.65568  0.24401  0.02681  1.0000
  H   H215      1.0  0.61265  0.17376  0.22746  1.0000
  H   H216      1.0  0.56439  0.21103  0.45759  1.0000
  H   H217      1.0  0.94065  0.02734  0.48890  1.0000
  H   H218      1.0  0.97399  0.25809  0.04670  1.0000
  S   S70       1.0  0.53087  0.15622  0.40622  1.0000
  C   C222      1.0  0.60790  0.28240  0.01149  1.0000
  H   H219      1.0  0.51206  0.06162  0.15040  1.0000
  H   H220      1.0  0.59119  0.27493  0.03227  1.0000
  C   C223      1.0  0.51370  0.02106  0.49201  1.0000
  C   C224      1.0  0.50195  0.14714  0.17099  1.0000
  C   C225      1.0  0.50858  0.08551  0.15586  1.0000
  H   H221      1.0  0.50385  0.04430  0.48171  1.0000
  H   H222      1.0  0.52328  0.00833  0.21163  1.0000
  C   C226      1.0  0.50618  0.99870  0.45960  1.0000
  H   H223      1.0  0.72654  0.24565  0.00945  1.0000
  H   H224      1.0  0.75950  0.33106  0.45087  1.0000
  C   C227      1.0  0.64393  0.26488  0.00788  1.0000
  H   H225      1.0  0.50010  0.17104  0.17755  1.0000
  C   C228      1.0  0.89956  0.10683  0.89438  1.0000
  C   C229      1.0  0.93915  0.07897  0.85751  1.0000
  S   S71       1.0  0.54510  0.18324  0.93440  1.0000
  C   C230      1.0  0.64811  0.29959  0.95562  1.0000
  C   C231      1.0  0.92781  0.13307  0.84872  1.0000
  H   H226      1.0  0.91559  0.18049  0.89186  1.0000
  H   H227      1.0  0.96565  0.24751  0.57751  1.0000
  H   H228      1.0  0.93329  0.15408  0.83485  1.0000
  Fe  Fe33      1.0  0.50716  0.14566  0.95185  1.0000
  Fe  Fe34      1.0  0.51787  0.21219  0.97371  1.0000
  C   C232      1.0  0.53278  0.01324  0.53784  1.0000
  C   C233      1.0  0.61259  0.31786  0.95887  1.0000
  H   H229      1.0  0.70095  0.13212  0.96777  1.0000
  Fe  Fe35      1.0  0.60957  0.17296  0.00083  1.0000
  H   H230      1.0  0.54774  0.28977  0.85267  1.0000
  H   H231      1.0  0.91198  0.05849  0.90032  1.0000
  H   H232      1.0  0.53746  0.03072  0.56234  1.0000
  H   H233      1.0  0.85349  0.16813  0.85849  1.0000
  H   H234      1.0  0.95293  0.05789  0.85068  1.0000
  H   H235      1.0  0.88456  0.16067  0.91786  1.0000
  C   C234      1.0  0.73521  0.14398  0.98403  1.0000
  S   S72       1.0  0.87088  0.13452  0.99107  1.0000
  S   S73       1.0  0.96964  0.19561  0.99775  1.0000
  H   H236      1.0  0.88214  0.10697  0.91638  1.0000
  N   N21       1.0  0.99119  0.15016  0.53054  1.0000
  H   H237      1.0  0.96287  0.10606  0.81741  1.0000
  C   C235      1.0  0.88900  0.16206  0.88662  1.0000
  H   H238      1.0  0.68203  0.23432  0.95450  1.0000
  C   C236      1.0  0.91627  0.07932  0.88536  1.0000
  C   C237      1.0  0.51724  0.27435  0.89589  1.0000
  H   H239      1.0  0.98464  0.28795  0.53640  1.0000
  N   N22       1.0  0.90636  0.13332  0.87682  1.0000
  H   H240      1.0  0.72108  0.26654  0.96156  1.0000
  C   C238      1.0  0.59240  0.30912  0.98700  1.0000
  H   H241      1.0  0.66256  0.30612  0.93270  1.0000
  C   C239      1.0  0.94461  0.10596  0.83872  1.0000
  C   C240      1.0  0.77580  0.13365  0.97858  1.0000
  C   C241      1.0  0.82093  0.14864  0.99942  1.0000
  H   H242      1.0  0.93352  0.16646  0.54396  1.0000
  C   C242      1.0  0.52261  0.29482  0.86632  1.0000
  S   S74       1.0  0.99593  0.12381  0.99338  1.0000
  N   N23       1.0  0.66376  0.27368  0.98044  1.0000
  H   H243      1.0  0.77218  0.11381  0.95813  1.0000
  H   H244      1.0  0.73964  0.30503  0.56487  1.0000
  C   C243      1.0  0.95037  0.14479  0.54085  1.0000
  H   H245      1.0  0.96312  0.13335  0.57378  1.0000
  H   H246      1.0  0.53847  0.25373  0.90527  1.0000
  H   H247      1.0  0.67119  0.30261  0.58526  1.0000
  C   C244      1.0  0.70010  0.25425  0.97607  1.0000
  H   H248      1.0  0.96854  0.19497  0.50625  1.0000
  H   H249      1.0  0.56343  0.32239  0.98849  1.0000
  H   H250      1.0  0.92256  0.13052  0.51429  1.0000
  C   C245      1.0  0.68179  0.32410  0.57668  1.0000
  C   C246      1.0  0.99469  0.17698  0.51184  1.0000
  C   C247      1.0  0.72013  0.32546  0.56529  1.0000
  H   H251      1.0  0.86326  0.49013  0.29508  1.0000
  H   H252      1.0  0.99301  0.41630  0.21995  1.0000
  H   H253      1.0  0.55852  0.46086  0.00889  1.0000
  S   S75       1.0  0.52952  0.41237  0.46090  1.0000
  C   C248      1.0  0.53369  0.61280  0.34447  1.0000
  Fe  Fe36      1.0  0.57654  0.38672  0.43634  1.0000
  S   S76       1.0  0.56985  0.34253  0.46650  1.0000
  C   C249      1.0  0.85167  0.49506  0.32158  1.0000
  C   C250      1.0  0.80554  0.46835  0.35429  1.0000
  H   H254      1.0  0.58292  0.58979  0.27542  1.0000
  Fe  Fe37      1.0  0.60366  0.62105  0.12153  1.0000
  Fe  Fe38      1.0  0.66058  0.58138  0.20340  1.0000
  S   S77       1.0  0.59673  0.55010  0.18545  1.0000
  S   S78       1.0  0.72454  0.57676  0.27270  1.0000
  Fe  Fe39      1.0  0.58581  0.55321  0.11369  1.0000
  S   S79       1.0  0.57352  0.51192  0.06741  1.0000
  Fe  Fe40      1.0  0.55281  0.59292  0.17193  1.0000
  S   S80       1.0  0.53596  0.59321  0.09863  1.0000
  S   S81       1.0  0.65363  0.58118  0.13329  1.0000
  S   S82       1.0  0.61662  0.62396  0.19310  1.0000
  S   S83       1.0  0.95080  0.59732  0.34011  1.0000
  H   H255      1.0  0.78812  0.48962  0.35507  1.0000
  C   C251      1.0  0.78682  0.58359  0.28965  1.0000
  C   C252      1.0  0.80761  0.58059  0.26020  1.0000
  C   C253      1.0  0.85796  0.58483  0.27604  1.0000
  C   C254      1.0  0.88757  0.59289  0.32101  1.0000
  C   C255      1.0  0.86651  0.59646  0.35012  1.0000
  C   C256      1.0  0.81654  0.59139  0.33464  1.0000
  H   H256      1.0  0.78515  0.57429  0.22559  1.0000
  H   H257      1.0  0.87409  0.58182  0.25340  1.0000
  H   H258      1.0  0.88895  0.60228  0.38491  1.0000
  H   H259      1.0  0.80076  0.59360  0.35768  1.0000
  C   C257      1.0  0.53483  0.50689  0.00896  1.0000
  C   C258      1.0  0.55664  0.59919  0.28528  1.0000
  S   S84       1.0  0.95611  0.38860  0.34350  1.0000
  C   C259      1.0  0.56747  0.60091  0.33096  1.0000
  C   C260      1.0  0.81626  0.41478  0.37035  1.0000
  C   C261      1.0  0.74825  0.66187  0.30092  1.0000
  S   S85       1.0  0.64614  0.41185  0.44757  1.0000
  C   C262      1.0  0.70189  0.39703  0.45172  1.0000
  C   C263      1.0  0.79362  0.37499  0.46319  1.0000
  C   C264      1.0  0.75448  0.35514  0.45369  1.0000
  H   H260      1.0  0.88813  0.43945  0.32457  1.0000
  N   N24       1.0  0.83853  0.46717  0.33728  1.0000
  H   H261      1.0  0.82034  0.51097  0.30683  1.0000
  S   S86       1.0  0.95094  0.41513  0.45689  1.0000
  Fe  Fe41      1.0  0.92543  0.37281  0.47779  1.0000
  H   H262      1.0  0.61531  0.59777  0.50156  1.0000
  H   H263      1.0  0.66486  0.63498  0.48486  1.0000
  H   H264      1.0  0.64858  0.55145  0.04844  1.0000
  S   S87       1.0  0.85046  0.35947  0.47138  1.0000
  C   C265      1.0  0.84989  0.41382  0.35309  1.0000
  Fe  Fe42      1.0  0.97592  0.38387  0.41766  1.0000
  Fe  Fe43      1.0  0.51887  0.36787  0.48702  1.0000
  H   H265      1.0  0.63820  0.49973  0.01855  1.0000
  H   H266      1.0  0.89136  0.65881  0.27944  1.0000
  H   H267      1.0  0.86780  0.39262  0.35280  1.0000
  H   H268      1.0  0.53442  0.45446  0.32566  1.0000
  C   C266      1.0  0.78648  0.40606  0.46659  1.0000
  H   H269      1.0  0.76767  0.44310  0.38444  1.0000
  S   S88       1.0  0.98475  0.36827  0.06951  1.0000
  C   C267      1.0  0.74092  0.41696  0.46097  1.0000
  H   H270      1.0  0.88197  0.50667  0.34998  1.0000
  C   C268      1.0  0.70890  0.36603  0.44783  1.0000
  C   C269      1.0  0.86109  0.44042  0.33704  1.0000
  H   H271      1.0  0.94925  0.38825  0.25511  1.0000
  H   H272      1.0  0.60212  0.59269  0.35597  1.0000
  H   H273      1.0  0.72621  0.64414  0.23432  1.0000
  S   S89       1.0  0.54792  0.61179  0.40218  1.0000
  S   S90       1.0  0.51336  0.37721  0.36912  1.0000
  S   S91       1.0  0.94685  0.34208  0.43537  1.0000
  H   H274      1.0  0.67936  0.35038  0.44070  1.0000
  Fe  Fe44      1.0  0.99467  0.62805  0.39949  1.0000
  C   C270      1.0  0.79382  0.44219  0.37095  1.0000
  C   C271      1.0  0.51040  0.45656  0.34232  1.0000
  C   C272      1.0  0.98996  0.40809  0.32069  1.0000
  H   H275      1.0  0.73604  0.44097  0.46431  1.0000
  H   H276      1.0  0.80796  0.39433  0.38358  1.0000
  C   C273      1.0  0.97804  0.40380  0.27513  1.0000
  C   C274      1.0  0.62412  0.55883  0.01482  1.0000
  S   S92       1.0  0.96077  0.65234  0.43766  1.0000
  H   H277      1.0  0.81626  0.42160  0.47430  1.0000
  S   S93       1.0  0.60192  0.65942  0.07638  1.0000
  H   H278      1.0  0.71300  0.65830  0.30003  1.0000
  C   C275      1.0  0.75559  0.65398  0.26388  1.0000
  C   C276      1.0  0.80164  0.65755  0.26598  1.0000
  H   H279      1.0  0.80728  0.65056  0.23747  1.0000
  H   H280      1.0  0.53054  0.44676  0.37640  1.0000
  S   S94       1.0  0.55970  0.65850  0.50007  1.0000
  H   H281      1.0  0.61361  0.60316  0.03707  1.0000
  Fe  Fe45      1.0  0.50322  0.33459  0.40095  1.0000
  C   C277      1.0  0.60424  0.58798  0.00869  1.0000
  H   H282      1.0  0.98902  0.55021  0.13796  1.0000
  H   H283      1.0  0.50836  0.50238  0.28933  1.0000
  C   C278      1.0  0.51148  0.60892  0.25248  1.0000
  Fe  Fe46      1.0  0.50801  0.63380  0.43817  1.0000
  H   H284      1.0  0.91547  0.66293  0.33852  1.0000
  S   S95       1.0  0.78727  0.65872  0.72058  1.0000
  C   C279      1.0  0.96886  0.61002  0.56574  1.0000
  C   C280      1.0  0.99437  0.49840  0.97812  1.0000
  C   C281      1.0  0.80028  0.61634  0.61902  1.0000
  S   S96       1.0  0.52740  0.36221  0.55800  1.0000
  H   H285      1.0  0.76294  0.35465  0.54530  1.0000
  C   C282      1.0  0.65314  0.60129  0.52525  1.0000
  H   H286      1.0  0.59934  0.33799  0.93831  1.0000
  C   C283      1.0  0.73321  0.35328  0.55429  1.0000
  H   H287      1.0  0.96004  0.60436  0.53135  1.0000
  C   C284      1.0  0.67381  0.58529  0.56543  1.0000
  C   C285      1.0  0.58063  0.54868  0.93674  1.0000
  Fe  Fe47      1.0  0.85559  0.63033  0.75213  1.0000
  S   S97       1.0  0.86890  0.58187  0.74065  1.0000
  C   C286      1.0  0.55988  0.57764  0.92945  1.0000
  H   H288      1.0  0.93803  0.48912  0.91132  1.0000
  Fe  Fe48      1.0  0.92741  0.59992  0.72442  1.0000
  Fe  Fe49      1.0  0.92617  0.58188  0.81325  1.0000
  Fe  Fe50      1.0  0.52981  0.63089  0.53751  1.0000
  S   S98       1.0  0.90702  0.62922  0.82573  1.0000
  H   H289      1.0  0.75101  0.64344  0.53988  1.0000
  S   S99       1.0  0.57793  0.60473  0.59987  1.0000
  H   H290      1.0  0.99043  0.49419  0.64429  1.0000
  C   C287      1.0  0.99287  0.62307  0.65579  1.0000
  C   C288      1.0  0.71830  0.61327  0.69361  1.0000
  C   C289      1.0  0.67123  0.60195  0.66730  1.0000
  C   C290      1.0  0.63665  0.61940  0.63253  1.0000
  C   C291      1.0  0.50522  0.53012  0.98207  1.0000
  S   S100      1.0  0.93021  0.54081  0.85660  1.0000
  H   H291      1.0  0.74462  0.59985  0.72071  1.0000
  H   H292      1.0  0.66160  0.57965  0.67402  1.0000
  H   H293      1.0  0.55604  0.61990  0.96086  1.0000
  N   N25       1.0  0.61193  0.53954  0.97912  1.0000
  H   H294      1.0  0.62700  0.34939  0.58542  1.0000
  C   C292      1.0  0.65677  0.35066  0.57652  1.0000
  S   S101      1.0  0.91081  0.64825  0.73208  1.0000
  H   H295      1.0  0.53428  0.58455  0.89594  1.0000
  H   H296      1.0  0.81749  0.59551  0.63826  1.0000
  H   H297      1.0  0.73795  0.57834  0.62740  1.0000
  C   C293      1.0  0.95417  0.60355  0.63151  1.0000
  C   C294      1.0  0.73048  0.64243  0.68593  1.0000
  H   H298      1.0  0.51108  0.45336  0.92652  1.0000
  C   C295      1.0  0.64262  0.40541  0.56440  1.0000
  H   H299      1.0  0.52340  0.35813  0.64212  1.0000
  C   C296      1.0  0.72964  0.62685  0.54709  1.0000
  S   S102      1.0  0.92350  0.58422  0.65764  1.0000
  H   H300      1.0  0.63737  0.41996  0.53545  1.0000
  C   C297      1.0  0.94195  0.59733  0.58628  1.0000
  H   H301      1.0  0.65186  0.56965  0.57357  1.0000
  C   C298      1.0  0.96898  0.53331  0.91436  1.0000
  S   S103      1.0  0.50734  0.34845  0.82135  1.0000
  H   H302      1.0  0.99046  0.47685  0.99141  1.0000
  C   C299      1.0  0.70709  0.37932  0.55405  1.0000
  H   H303      1.0  0.50380  0.55162  0.99722  1.0000
  H   H304      1.0  0.91226  0.58207  0.56735  1.0000
  C   C300      1.0  0.72244  0.59039  0.59577  1.0000
  C   C301      1.0  0.57186  0.59738  0.96576  1.0000
  S   S104      1.0  0.99697  0.36570  0.53978  1.0000
  N   N26       1.0  0.66897  0.37769  0.56441  1.0000
  N   N27       1.0  0.74985  0.61068  0.58613  1.0000
  Fe  Fe51      1.0  0.96344  0.64357  0.80456  1.0000
  C   C302      1.0  0.64945  0.64815  0.62405  1.0000
  H   H305      1.0  0.80155  0.63432  0.64301  1.0000
  H   H306      1.0  0.57053  0.53330  0.90843  1.0000
  H   H307      1.0  0.82303  0.62336  0.60259  1.0000
  H   H308      1.0  0.71696  0.40079  0.54470  1.0000
  C   C303      1.0  0.96462  0.50544  0.93261  1.0000
  C   C304      1.0  0.63423  0.50939  0.98632  1.0000
  C   C305      1.0  0.50412  0.37850  0.62578  1.0000
  H   H309      1.0  0.66313  0.41819  0.59609  1.0000
  H   H310      1.0  0.60588  0.40022  0.56116  1.0000
  H   H311      1.0  0.52952  0.52667  0.64384  1.0000
  S   S105      1.0  0.98589  0.59619  0.79581  1.0000
  C   C306      1.0  0.53593  0.47906  0.98847  1.0000
  C   C307      1.0  0.69592  0.65980  0.65112  1.0000
  H   H312      1.0  0.62331  0.66161  0.59710  1.0000
  H   H313      1.0  0.67053  0.51085  0.98709  1.0000
  C   C308      1.0  0.50906  0.47474  0.94170  1.0000
  H   H314      1.0  0.61129  0.49325  0.95946  1.0000
  C   C309      1.0  0.68109  0.62226  0.51594  1.0000
  H   H315      1.0  0.50183  0.49365  0.60958  1.0000
  Fe  Fe52      1.0  0.95449  0.94056  0.27848  1.0000
  S   S106      1.0  0.93506  0.89230  0.28299  1.0000
  Fe  Fe53      1.0  0.94833  0.95963  0.36543  1.0000
  S   S107      1.0  0.92593  0.91238  0.37334  1.0000
  H   H316      1.0  0.76794  0.95350  0.11063  1.0000
  Fe  Fe54      1.0  0.87752  0.91205  0.29920  1.0000
  S   S108      1.0  0.80619  0.88627  0.26963  1.0000
  S   S109      1.0  0.89427  0.96048  0.29160  1.0000
  Fe  Fe55      1.0  0.54868  0.88978  0.07114  1.0000
  S   S110      1.0  0.56603  0.84576  0.04741  1.0000
  S   S111      1.0  0.60521  0.92578  0.10856  1.0000
  H   H317      1.0  0.89546  0.69627  0.30392  1.0000
  C   C310      1.0  0.55376  0.75198  0.10497  1.0000
  C   C311      1.0  0.91884  0.90847  0.47601  1.0000
  C   C312      1.0  0.95869  0.92713  0.48451  1.0000
  C   C313      1.0  0.58565  0.69543  0.08857  1.0000
  C   C314      1.0  0.58448  0.70101  0.12934  1.0000
  C   C315      1.0  0.56886  0.72922  0.13758  1.0000
  C   C316      1.0  0.83924  0.92204  0.17563  1.0000
  H   H318      1.0  0.66323  0.88171  0.06308  1.0000
  H   H319      1.0  0.56758  0.73320  0.16905  1.0000
  H   H320      1.0  0.93744  0.84052  0.35258  1.0000
  C   C317      1.0  0.74967  0.89866  0.22709  1.0000
  C   C318      1.0  0.74217  0.92837  0.21095  1.0000
  C   C319      1.0  0.69722  0.93667  0.17542  1.0000
  C   C320      1.0  0.65973  0.91530  0.15549  1.0000
  C   C321      1.0  0.66703  0.88575  0.17210  1.0000
  C   C322      1.0  0.71171  0.87755  0.20789  1.0000
  H   H321      1.0  0.77095  0.94491  0.22576  1.0000
  H   H322      1.0  0.69175  0.95962  0.16286  1.0000
  H   H323      1.0  0.63841  0.86910  0.15719  1.0000
  H   H324      1.0  0.71712  0.85456  0.22033  1.0000
  C   C323      1.0  0.73323  0.87038  0.11677  1.0000
  S   S112      1.0  0.94905  0.99345  0.41885  1.0000
  H   H325      1.0  0.54441  0.76422  0.03920  1.0000
  C   C324      1.0  0.92218  0.87740  0.46966  1.0000
  C   C325      1.0  0.50477  0.98948  0.18955  1.0000
  Fe  Fe56      1.0  0.51293  0.82552  0.06874  1.0000
  H   H326      1.0  0.84235  0.92084  0.21004  1.0000
  C   C326      1.0  0.51944  0.96862  0.47403  1.0000
  H   H327      1.0  0.51425  0.95112  0.44943  1.0000
  H   H328      1.0  0.94422  0.95308  0.12299  1.0000
  C   C327      1.0  0.96770  0.76934  0.39592  1.0000
  C   C328      1.0  0.99058  0.91771  0.11856  1.0000
  S   S113      1.0  0.52287  0.73928  0.49508  1.0000
  C   C329      1.0  0.98124  0.92987  0.18610  1.0000
  C   C330      1.0  0.96931  0.93510  0.14078  1.0000
  C   C331      1.0  0.88761  0.67196  0.30624  1.0000
  Fe  Fe57      1.0  0.98471  0.89704  0.35627  1.0000
  H   H329      1.0  0.97851  0.79490  0.30034  1.0000
  C   C332      1.0  0.71242  0.91962  0.08234  1.0000
  C   C333      1.0  0.77916  0.88149  0.14611  1.0000
  C   C334      1.0  0.75878  0.92996  0.11203  1.0000
  H   H330      1.0  0.90057  0.79023  0.34980  1.0000
  S   S114      1.0  0.52713  0.78503  0.11405  1.0000
  H   H331      1.0  0.88520  0.91824  0.47308  1.0000
  H   H332      1.0  0.98195  0.92241  0.08401  1.0000
  H   H333      1.0  0.72297  0.84738  0.12011  1.0000
  C   C335      1.0  0.57219  0.71856  0.05649  1.0000
  C   C336      1.0  0.95977  0.82214  0.37273  1.0000
  C   C337      1.0  0.93894  0.79362  0.37107  1.0000
  H   H334      1.0  0.68583  0.93500  0.05869  1.0000
  H   H335      1.0  0.86856  0.90811  0.17406  1.0000
  C   C338      1.0  0.78661  0.67389  0.33915  1.0000
  H   H336      1.0  0.78130  0.68025  0.36809  1.0000
  H   H337      1.0  0.59520  0.68355  0.15444  1.0000
  C   C339      1.0  0.69969  0.88964  0.08478  1.0000
  S   S115      1.0  0.94119  0.73334  0.39040  1.0000
  H   H338      1.0  0.80431  0.86685  0.17232  1.0000
  N   N28       1.0  0.79144  0.91090  0.14334  1.0000
  H   H339      1.0  0.52033  0.93896  0.11970  1.0000
  S   S116      1.0  0.95798  0.95437  0.21424  1.0000
  C   C340      1.0  0.55606  0.74678  0.06457  1.0000
  H   H340      1.0  0.89117  0.86277  0.46191  1.0000
  H   H341      1.0  0.84565  0.94596  0.16940  1.0000
  H   H342      1.0  0.56281  0.98162  0.17093  1.0000
  H   H343      1.0  0.86192  0.68676  0.36977  1.0000
  N   N29       1.0  0.83931  0.66868  0.30399  1.0000
  C   C341      1.0  0.52718  0.97464  0.16654  1.0000
  H   H344      1.0  0.57330  0.71445  0.02497  1.0000
  C   C342      1.0  0.96525  0.86535  0.47219  1.0000
  Fe  Fe58      1.0  0.99185  0.69405  0.42219  1.0000
  S   S117      1.0  0.50050  0.86901  0.09755  1.0000
  C   C343      1.0  0.83214  0.67736  0.34000  1.0000
  H   H345      1.0  0.96796  0.84133  0.46629  1.0000
  H   H346      1.0  0.95531  0.95141  0.48790  1.0000
  C   C344      1.0  0.50332  0.95066  0.13768  1.0000
  Fe  Fe59      1.0  0.58651  0.91102  0.74439  1.0000
  S   S118      1.0  0.60836  0.86398  0.73640  1.0000
  S   S119      1.0  0.58398  0.92577  0.80893  1.0000
  Fe  Fe60      1.0  0.58354  0.93170  0.65424  1.0000
  S   S120      1.0  0.60689  0.88562  0.64112  1.0000
  C   C345      1.0  0.52115  0.85699  0.84593  1.0000
  Fe  Fe61      1.0  0.55387  0.86774  0.66427  1.0000
  H   H347      1.0  0.67775  0.78667  0.62450  1.0000
  Fe  Fe62      1.0  0.66015  0.88572  0.71491  1.0000
  S   S121      1.0  0.73284  0.86125  0.74579  1.0000
  S   S122      1.0  0.64148  0.93311  0.72668  1.0000
  H   H348      1.0  0.67572  0.95558  0.83411  1.0000
  S   S123      1.0  0.92858  0.91744  0.89699  1.0000
  S   S124      1.0  0.96448  0.77478  0.95505  1.0000
  H   H349      1.0  0.91632  0.75082  0.77108  1.0000
  H   H350      1.0  0.89297  0.81493  0.79795  1.0000
  H   H351      1.0  0.81977  0.83397  0.81165  1.0000
  H   H352      1.0  0.71815  0.85261  0.85028  1.0000
  C   C346      1.0  0.53511  0.81254  0.57296  1.0000
  H   H353      1.0  0.53360  0.71292  0.61815  1.0000
  H   H354      1.0  0.93655  0.71349  0.92937  1.0000
  H   H355      1.0  0.67713  0.90161  0.82276  1.0000
  C   C347      1.0  0.84270  0.73740  0.83714  1.0000
  C   C348      1.0  0.78670  0.87748  0.78776  1.0000
  C   C349      1.0  0.82450  0.85825  0.81571  1.0000
  C   C350      1.0  0.86808  0.87023  0.84924  1.0000
  C   C351      1.0  0.87468  0.90162  0.85448  1.0000
  C   C352      1.0  0.83701  0.92087  0.82630  1.0000
  C   C353      1.0  0.79297  0.90888  0.79341  1.0000
  C   C354      1.0  0.65262  0.77872  0.63670  1.0000
  H   H356      1.0  0.63394  0.73812  0.59652  1.0000
  H   H357      1.0  0.84188  0.94517  0.83006  1.0000
  H   H358      1.0  0.76433  0.92390  0.77179  1.0000
  C   C355      1.0  0.56053  0.90281  0.83827  1.0000
  C   C356      1.0  0.87109  0.71982  0.78449  1.0000
  H   H359      1.0  0.59196  0.69408  0.64285  1.0000
  H   H360      1.0  0.55584  0.83330  0.58190  1.0000
  H   H361      1.0  0.72967  0.97544  0.87038  1.0000
  H   H362      1.0  0.72149  0.96283  0.81563  1.0000
  H   H363      1.0  0.89662  0.85528  0.87114  1.0000
  S   S125      1.0  0.52728  0.91351  0.67367  1.0000
  N   N30       1.0  0.73937  0.92802  0.86382  1.0000
  C   C357      1.0  0.78720  0.92771  0.89477  1.0000
  C   C358      1.0  0.81123  0.90028  0.91148  1.0000
  C   C359      1.0  0.78625  0.87307  0.89574  1.0000
  C   C360      1.0  0.71551  0.95692  0.84509  1.0000
  H   H364      1.0  0.80749  0.94868  0.90586  1.0000
  H   H365      1.0  0.54821  0.93755  0.53020  1.0000
  H   H366      1.0  0.56039  0.75107  0.67707  1.0000
  C   C361      1.0  0.84473  0.71482  0.80856  1.0000
  H   H367      1.0  0.93170  0.80766  0.85668  1.0000
  H   H368      1.0  0.54634  0.90420  0.93452  1.0000
  C   C362      1.0  0.56278  0.91334  0.87907  1.0000
  H   H369      1.0  0.95535  0.67727  0.88256  1.0000
  H   H370      1.0  0.84959  0.90013  0.93501  1.0000
  C   C363      1.0  0.71469  0.90143  0.84804  1.0000
  C   C364      1.0  0.96894  0.70012  0.88663  1.0000
  H   H371      1.0  0.56532  0.70719  0.58537  1.0000
  H   H372      1.0  0.57871  0.93526  0.89198  1.0000
  C   C365      1.0  0.54482  0.98304  0.55215  1.0000
  C   C366      1.0  0.53881  0.96082  0.51992  1.0000
  H   H373      1.0  0.86639  0.78199  0.86424  1.0000
  C   C367      1.0  0.51339  0.76496  0.53098  1.0000
  C   C368      1.0  0.54445  0.89578  0.90326  1.0000
  C   C369      1.0  0.73768  0.87358  0.86374  1.0000
  C   C370      1.0  0.91827  0.79833  0.82212  1.0000
  C   C371      1.0  0.53915  0.79239  0.54204  1.0000
  S   S126      1.0  0.96593  0.85850  0.99030  1.0000
  H   H374      1.0  0.95059  0.79564  0.81587  1.0000
  H   H375      1.0  0.60290  0.79964  0.70525  1.0000
  N   N31       1.0  0.89355  0.76930  0.81791  1.0000
  S   S127      1.0  0.56359  0.97431  0.60991  1.0000
  C   C372      1.0  0.89537  0.74737  0.78950  1.0000
  C   C373      1.0  0.61092  0.78595  0.68228  1.0000
  C   C374      1.0  0.58682  0.75843  0.66606  1.0000
  H   H376      1.0  0.82619  0.69337  0.80517  1.0000
  N   N32       1.0  0.59513  0.74163  0.63559  1.0000
  C   C375      1.0  0.62781  0.75129  0.62110  1.0000
  C   C376      1.0  0.64404  0.79613  0.66750  1.0000
  C   C377      1.0  0.95892  0.72056  0.91372  1.0000
  H   H377      1.0  0.70518  0.68238  0.64508  1.0000
  H   H378      1.0  0.80496  0.85165  0.90740  1.0000
  H   H379      1.0  0.82288  0.73358  0.85650  1.0000
  Fe  Fe63      1.0  0.98691  0.88602  0.94550  1.0000
  C   C378      1.0  0.86727  0.76475  0.84126  1.0000
  C   C379      1.0  0.57045  0.71246  0.61988  1.0000
  H   H380      1.0  0.66254  0.81765  0.67947  1.0000
  H   H381      1.0  0.87297  0.70230  0.76236  1.0000
  C   C380      1.0  0.97823  0.74988  0.92117  1.0000
  C   C381      1.0  0.50461  0.80555  0.59242  1.0000
  H   H382      1.0  0.56311  0.79776  0.52732  1.0000
  C   C382      1.0  0.53967  0.87448  0.82186  1.0000
  C   C383      1.0  0.52353  0.86746  0.88676  1.0000
  H   H383      1.0  0.53746  0.86611  0.79045  1.0000
  C   C384      1.0  0.99812  0.70894  0.86661  1.0000
  H   H384      1.0  0.50484  0.83519  0.83275  1.0000
  S   S128      1.0  0.50052  0.82944  0.63306  1.0000
  Fe  Fe64      1.0  0.50006  0.85568  0.98252  1.0000
