data_image0
_chemical_formula_structural       FeS2FeS2FeSFeS3CHCFeS2FeSCFeSCFe2S3CNH2C6H4C6H4CHCNC2H3C2H4S2C2H2C2H5C4H2CH4CHC2HCH2CHNHCH2FeC2H3CHCNHFeH2CH2SH3CHCFeSCFeS2FeS2FeSFeS3FeS2CHCHFeC6H2C6H4C2SC3H2CH2SH2CHSHC2HCHC5H3C4H7CHCHNH2CSCH2C3HC2NC3H2CHCHCH4NC3H2CHC4HNC2H4NCH3C2HNHC2HCFeS2FeS2FeSFeS3FeS2FeS2FeSFeS3CFeS2CH3CHCH2C2HCHC6H4C6H2NHC6H4C6H4C5H8CHCHC2FeHCHNCHC2NSHCHCSCNC6HCH3CHCNC4HCH3CSHC2H3C2H4C2FeCHCSCH2C2FeSHC3SCHCHC2SCHCNC3H3CH2CH2CHCSHNH3SCHCH3NH3SH2FeH3CFeSH6CHFeS2CNHCFeSHSFeS2FeS2FeSFeS3H2CHCH2C7H4NH5C2H2SC6H3C6H4C2FeHCNC3H3CH2C2H4SH3C2H2C3HC2SC2HSH4FeSCFeSCFeSFeSCSFeSFeS2FeCFeS3Fe2S2FeCFeS3C6H4C6H4C2HCHC2HCH2C6H4C2H2CHCH2SH2CHCSC2H2C2H2SH2C3H2C2H2N2H7NHCH2SC4NC3H2CNCHSHCHCSCSH2CHSCH3FeS2FeS2FeSFeS3FeS2FeSHFeSFeS4HFeS2C4HCH2C6H4C3H3C2H2C3H2CHC6H4C5H5CNC5H2C2HNH3FeCNC6H4SH3CH2CNCH2FeH2CSCH4CHCH2CH2CSCH2C2SH2CHCHSH3CH2C2H2CHNC2NCHFeH2CHSCH2C2SHCH2CHCFeSCFeS2FeSFeS3FeS2FeS2FeSFeS3HSHCHCH2C6H4CSCH2C6H3C7H5C7H4C6H3C2HC3H2SHCH2SCHFeC2H2CHC2NCN2HCH2CH4CH2SNHCHSHCSNC2HC2H2CSCHCH4NC6H4CHCH3CH2CNC3H5CHFeCHCNCH2FeH2CHCHSH2SCHFeS2FeHS2HSCH2FeSNSFe2S2FeS2FeSFeS3FeS2FeS2C6SHCHC6H3SC6H4C5H3CHC7H4C2H2CFeCH2NC6HCH3CH2NC6H8CH2CHCH3CHNCH7CHSC4H3CH2C3HSFeNH2CH2CFeCHSFeS2FeSHFeSFeS3FeS2FeSCFeHFeS3C2HC3H3SC6H2CHC3H3CHC2HC4H2C6H4C2H2C2H4SHC4NC2HCH4CNH4CH3N2HCHCSCHCH2CHCFeS2FeS2FeSFeS3FeS2FeS2FeSFeS4C2HC2HCNC3HC2NHC7H4C6H4C6H4C4H3CH2C3HC2HSH2C4H5CH3SCH2FeNHCH2C2HC3SCSHC3HC2H2CH2SH2NC4HSH5C4HC3HCHC7N2C3HCSH8CHNCHC3H4CHCH2FeHNH3CFeH2CHCH4CHC2H4CH3CFeS2H3CS2FeS2FeS2Fe3S3H2FeS2FeCFeHS2CS2HSHC6H5SHC6H4C3HC6H8C2HFeHC3FeS2CSC3H4CHFeHCH2C2NHC3H3NC6H7NC2H3CH3SC2SC2FeHS2CH2CSCHFe2SCFeS2FeSFeS3NCFeS2FeSHCSHFeCH3C2HC6H4C6H5NCH3C3H2CHNC5H8C3HC2H2C2HCHCHFeSH2SCH2NH3C
_chemical_formula_sum              "Fe128 S256 C768 H768 N64"
_cell_length_a       55.2965
_cell_length_b       54.1118
_cell_length_c       26.0051
_cell_angle_alpha    90.0962
_cell_angle_beta     90.0981
_cell_angle_gamma    88.9174

_space_group_name_H-M_alt    "P 1"
_space_group_IT_number       1

loop_
  _space_group_symop_operation_xyz
  'x, y, z'

loop_
  _atom_site_type_symbol
  _atom_site_label
  _atom_site_symmetry_multiplicity
  _atom_site_fract_x
  _atom_site_fract_y
  _atom_site_fract_z
  _atom_site_occupancy
  Fe  Fe1       1.0  0.09317  0.15020  0.71516  1.0000
  S   S1        1.0  0.08668  0.15238  0.80125  1.0000
  S   S2        1.0  0.07480  0.18010  0.66455  1.0000
  Fe  Fe2       1.0  0.11026  0.09548  0.72452  1.0000
  S   S3        1.0  0.10370  0.09402  0.80925  1.0000
  S   S4        1.0  0.12137  0.06073  0.68170  1.0000
  Fe  Fe3       1.0  0.06965  0.11535  0.79213  1.0000
  S   S5        1.0  0.03497  0.10039  0.82328  1.0000
  Fe  Fe4       1.0  0.12181  0.13056  0.81050  1.0000
  S   S6        1.0  0.15191  0.13698  0.86926  1.0000
  S   S7        1.0  0.07453  0.11376  0.70707  1.0000
  S   S8        1.0  0.12994  0.13150  0.72517  1.0000
  C   C1        1.0  0.15975  0.15629  0.03428  1.0000
  H   H1        1.0  0.01152  0.11267  0.67092  1.0000
  C   C2        1.0  0.01352  0.21668  0.25319  1.0000
  Fe  Fe5       1.0  0.21232  0.05639  0.10485  1.0000
  S   S9        1.0  0.17912  0.07629  0.07017  1.0000
  S   S10       1.0  0.22255  0.05552  0.18944  1.0000
  Fe  Fe6       1.0  0.06015  0.31074  0.34228  1.0000
  S   S11       1.0  0.05452  0.30356  0.42751  1.0000
  C   C3        1.0  0.19774  0.01070  0.85519  1.0000
  Fe  Fe7       1.0  0.04512  0.25933  0.31430  1.0000
  S   S12       1.0  0.03817  0.24742  0.39499  1.0000
  C   C4        1.0  0.13191  0.30882  0.38565  1.0000
  Fe  Fe8       1.0  0.02034  0.28476  0.40351  1.0000
  Fe  Fe9       1.0  0.07249  0.26629  0.41474  1.0000
  S   S13       1.0  0.09981  0.24751  0.46916  1.0000
  S   S14       1.0  0.02411  0.29490  0.32030  1.0000
  S   S15       1.0  0.08140  0.27525  0.33183  1.0000
  C   C5        1.0  0.19740  0.04954  0.90096  1.0000
  N   N1        1.0  0.12163  0.14803  0.99373  1.0000
  H   H2        1.0  0.08639  0.15772  0.96659  1.0000
  H   H3        1.0  0.19071  0.04618  0.81952  1.0000
  C   C6        1.0  0.08236  0.19756  0.60860  1.0000
  C   C7        1.0  0.10609  0.19954  0.59055  1.0000
  C   C8        1.0  0.11110  0.21470  0.54769  1.0000
  C   C9        1.0  0.09249  0.22783  0.52183  1.0000
  C   C10       1.0  0.06874  0.22554  0.53940  1.0000
  C   C11       1.0  0.06377  0.21064  0.58252  1.0000
  H   H4        1.0  0.12064  0.18972  0.61005  1.0000
  H   H5        1.0  0.12956  0.21626  0.53455  1.0000
  H   H6        1.0  0.05421  0.23553  0.52021  1.0000
  H   H7        1.0  0.04534  0.20931  0.59570  1.0000
  C   C12       1.0  0.17464  0.08862  0.00743  1.0000
  C   C13       1.0  0.15265  0.08440  0.98182  1.0000
  C   C14       1.0  0.14627  0.09763  0.93692  1.0000
  C   C15       1.0  0.16150  0.11586  0.91798  1.0000
  C   C16       1.0  0.18394  0.11933  0.94233  1.0000
  C   C17       1.0  0.19061  0.10563  0.98645  1.0000
  H   H8        1.0  0.14005  0.07147  0.99795  1.0000
  H   H9        1.0  0.12896  0.09469  0.91874  1.0000
  H   H10       1.0  0.19585  0.13343  0.92817  1.0000
  H   H11       1.0  0.20739  0.10943  0.00613  1.0000
  C   C18       1.0  0.07953  0.01593  0.83994  1.0000
  H   H12       1.0  0.17693  0.16563  0.03415  1.0000
  C   C19       1.0  0.01216  0.19427  0.22678  1.0000
  N   N2        1.0  0.11628  0.31272  0.47158  1.0000
  C   C20       1.0  0.13140  0.03542  0.71913  1.0000
  C   C21       1.0  0.13421  0.01205  0.69624  1.0000
  H   H13       1.0  0.13686  0.28151  0.44463  1.0000
  H   H14       1.0  0.13107  0.00991  0.65539  1.0000
  H   H15       1.0  0.06425  0.05190  0.82382  1.0000
  C   C22       1.0  0.13592  0.03805  0.77175  1.0000
  C   C23       1.0  0.01142  0.14567  0.81641  1.0000
  H   H16       1.0  0.10257  0.13449  0.92904  1.0000
  H   H17       1.0  0.00464  0.20923  0.73063  1.0000
  H   H18       1.0  0.13492  0.05601  0.78939  1.0000
  H   H19       1.0  0.19518  0.06951  0.90135  1.0000
  S   S16       1.0  0.03982  0.23392  0.24763  1.0000
  S   S17       1.0  0.20922  0.01515  0.09994  1.0000
  C   C24       1.0  0.19503  0.03647  0.85499  1.0000
  C   C25       1.0  0.11247  0.30242  0.52301  1.0000
  H   H20       1.0  0.07078  0.05439  0.69291  1.0000
  H   H21       1.0  0.11052  0.16620  0.92399  1.0000
  C   C26       1.0  0.14208  0.01738  0.80174  1.0000
  C   C27       1.0  0.14290  0.16056  0.99490  1.0000
  H   H22       1.0  0.14740  0.17322  0.96419  1.0000
  H   H23       1.0  0.10481  0.32266  0.24349  1.0000
  H   H24       1.0  0.04097  0.04183  0.70178  1.0000
  H   H25       1.0  0.03174  0.19068  0.73394  1.0000
  H   H26       1.0  0.08176  0.01955  0.88068  1.0000
  C   C28       1.0  0.01446  0.15157  0.68748  1.0000
  C   C29       1.0  0.15480  0.13894  0.07229  1.0000
  C   C30       1.0  0.10437  0.15188  0.95144  1.0000
  C   C31       1.0  0.11655  0.13115  0.03114  1.0000
  H   H27       1.0  0.20415  0.04666  0.98257  1.0000
  H   H28       1.0  0.09996  0.12081  0.02956  1.0000
  C   C32       1.0  0.00928  0.11997  0.81858  1.0000
  H   H29       1.0  0.16815  0.13458  0.10177  1.0000
  H   H30       1.0  0.03400  0.15055  0.69083  1.0000
  H   H31       1.0  0.14167  0.29811  0.35683  1.0000
  H   H32       1.0  0.02749  0.18752  0.20465  1.0000
  C   C33       1.0  0.13307  0.12631  0.07088  1.0000
  H   H33       1.0  0.00750  0.26164  0.16967  1.0000
  C   C34       1.0  0.12911  0.29954  0.43544  1.0000
  C   C35       1.0  0.01596  0.19557  0.70908  1.0000
  H   H34       1.0  0.14476  0.01951  0.84271  1.0000
  C   C36       1.0  0.20484  0.01099  0.94526  1.0000
  H   H35       1.0  0.12954  0.11218  0.09933  1.0000
  H   H36       1.0  0.12512  0.28665  0.53106  1.0000
  C   C37       1.0  0.20237  0.03676  0.94646  1.0000
  H   H37       1.0  0.02910  0.15385  0.81793  1.0000
  N   N3        1.0  0.06745  0.02986  0.75586  1.0000
  H   H38       1.0  0.01159  0.17514  0.41591  1.0000
  C   C38       1.0  0.05714  0.04893  0.72190  1.0000
  H   H39       1.0  0.05152  0.06581  0.74348  1.0000
  H   H40       1.0  0.07352  0.00453  0.69411  1.0000
  Fe  Fe10      1.0  0.22235  0.01404  0.18120  1.0000
  C   C39       1.0  0.00182  0.13011  0.67590  1.0000
  C   C40       1.0  0.06979  0.03420  0.80749  1.0000
  H   H41       1.0  0.02291  0.20429  0.67358  1.0000
  H   H42       1.0  0.01394  0.20059  0.37140  1.0000
  H   H43       1.0  0.11525  0.31665  0.55315  1.0000
  C   C41       1.0  0.00233  0.18523  0.38413  1.0000
  H   H44       1.0  0.09378  0.29529  0.52586  1.0000
  C   C42       1.0  0.07469  0.00766  0.73525  1.0000
  N   N4        1.0  0.00233  0.17347  0.69583  1.0000
  H   H45       1.0  0.07392  0.33260  0.13159  1.0000
  Fe  Fe11      1.0  0.24838  0.01516  0.07924  1.0000
  H   H46       1.0  0.02907  0.33365  0.03731  1.0000
  H   H47       1.0  0.20846  0.00118  0.98088  1.0000
  C   C43       1.0  0.12143  0.33165  0.37293  1.0000
  H   H48       1.0  0.19368  0.57632  0.98202  1.0000
  H   H49       1.0  0.17092  0.53822  0.59954  1.0000
  S   S18       1.0  0.06899  0.34881  0.30865  1.0000
  H   H50       1.0  0.03789  0.60736  0.05094  1.0000
  H   H51       1.0  0.22424  0.48044  0.60427  1.0000
  H   H52       1.0  0.20204  0.65094  0.76075  1.0000
  C   C44       1.0  0.04163  0.47171  0.03735  1.0000
  H   H53       1.0  0.20582  0.51009  0.68565  1.0000
  C   C45       1.0  0.04688  0.33807  0.02286  1.0000
  Fe  Fe12      1.0  0.18606  0.64885  0.54260  1.0000
  S   S19       1.0  0.18211  0.61114  0.57680  1.0000
  C   C46       1.0  0.19432  0.55661  0.98987  1.0000
  Fe  Fe13      1.0  0.10391  0.42619  0.96316  1.0000
  S   S20       1.0  0.09652  0.43581  0.04551  1.0000
  S   S21       1.0  0.07406  0.41141  0.91292  1.0000
  Fe  Fe14      1.0  0.15699  0.44152  0.96870  1.0000
  S   S22       1.0  0.15310  0.45085  0.05336  1.0000
  S   S23       1.0  0.19434  0.45034  0.93526  1.0000
  Fe  Fe15      1.0  0.13150  0.41595  0.06174  1.0000
  S   S24       1.0  0.13436  0.38395  0.11963  1.0000
  Fe  Fe16      1.0  0.11819  0.46943  0.02919  1.0000
  S   S25       1.0  0.10306  0.50626  0.05664  1.0000
  S   S26       1.0  0.13841  0.40501  0.97907  1.0000
  S   S27       1.0  0.12276  0.46162  0.94516  1.0000
  Fe  Fe17      1.0  0.12581  0.63815  0.95801  1.0000
  S   S28       1.0  0.08971  0.64147  0.91932  1.0000
  S   S29       1.0  0.14578  0.60150  0.95172  1.0000
  C   C47       1.0  0.01857  0.46247  0.04685  1.0000
  H   H54       1.0  0.09940  0.36226  0.39959  1.0000
  C   C48       1.0  0.08586  0.35745  0.25313  1.0000
  H   H55       1.0  0.17572  0.56031  0.06185  1.0000
  Fe  Fe18      1.0  0.07981  0.66596  0.98589  1.0000
  C   C49       1.0  0.18469  0.52694  0.58066  1.0000
  C   C50       1.0  0.20528  0.45453  0.87122  1.0000
  C   C51       1.0  0.22930  0.46210  0.86410  1.0000
  C   C52       1.0  0.22476  0.46104  0.77078  1.0000
  C   C53       1.0  0.20070  0.45361  0.77789  1.0000
  C   C54       1.0  0.19095  0.45052  0.82768  1.0000
  H   H56       1.0  0.18955  0.44990  0.74466  1.0000
  H   H57       1.0  0.17251  0.44460  0.83232  1.0000
  C   C55       1.0  0.13144  0.57544  0.97731  1.0000
  C   C56       1.0  0.13800  0.55187  0.95904  1.0000
  C   C57       1.0  0.12912  0.53058  0.98269  1.0000
  C   C58       1.0  0.11327  0.53273  0.02434  1.0000
  C   C59       1.0  0.10599  0.55632  0.04153  1.0000
  C   C60       1.0  0.11502  0.57767  0.01802  1.0000
  H   H58       1.0  0.15043  0.55003  0.92712  1.0000
  H   H59       1.0  0.13490  0.51256  0.96909  1.0000
  H   H60       1.0  0.09385  0.55809  0.07395  1.0000
  H   H61       1.0  0.10995  0.59579  0.03252  1.0000
  C   C61       1.0  0.20803  0.59306  0.56460  1.0000
  C   C62       1.0  0.21966  0.59445  0.51706  1.0000
  S   S30       1.0  0.11506  0.66026  0.02814  1.0000
  C   C63       1.0  0.11707  0.34978  0.18852  1.0000
  C   C64       1.0  0.23629  0.56063  0.59099  1.0000
  C   C65       1.0  0.21642  0.57627  0.60168  1.0000
  H   H62       1.0  0.21308  0.60725  0.48811  1.0000
  H   H63       1.0  0.18238  0.49624  0.10530  1.0000
  C   C66       1.0  0.05059  0.47161  0.98725  1.0000
  H   H64       1.0  0.20743  0.57519  0.63850  1.0000
  H   H65       1.0  0.15366  0.50832  0.08262  1.0000
  S   S31       1.0  0.19280  0.66108  0.46124  1.0000
  H   H66       1.0  0.24067  0.46507  0.89733  1.0000
  H   H67       1.0  0.21142  0.54693  0.91793  1.0000
  C   C67       1.0  0.02151  0.64949  0.94048  1.0000
  H   H68       1.0  0.10878  0.35748  0.96972  1.0000
  S   S32       1.0  0.04462  0.66417  0.02921  1.0000
  H   H69       1.0  0.18202  0.54776  0.50994  1.0000
  C   C68       1.0  0.20938  0.51891  0.50583  1.0000
  C   C69       1.0  0.03646  0.46242  0.94734  1.0000
  H   H70       1.0  0.06340  0.36426  0.12623  1.0000
  C   C70       1.0  0.22135  0.50002  0.53264  1.0000
  H   H71       1.0  0.19019  0.64854  0.66861  1.0000
  C   C71       1.0  0.10256  0.34137  0.22941  1.0000
  C   C72       1.0  0.11471  0.37414  0.16978  1.0000
  C   C73       1.0  0.09741  0.38995  0.19231  1.0000
  C   C74       1.0  0.08333  0.38172  0.23405  1.0000
  C   C75       1.0  0.05055  0.33850  0.96962  1.0000
  H   H72       1.0  0.09543  0.40876  0.17872  1.0000
  H   H73       1.0  0.07058  0.39440  0.25216  1.0000
  H   H74       1.0  0.18919  0.48323  0.66724  1.0000
  C   C76       1.0  0.02680  0.39333  0.02503  1.0000
  C   C77       1.0  0.04777  0.40013  0.99912  1.0000
  C   C78       1.0  0.04802  0.40177  0.94554  1.0000
  C   C79       1.0  0.02720  0.39569  0.91774  1.0000
  H   H75       1.0  0.09803  0.63875  0.73891  1.0000
  H   H76       1.0  0.17277  0.52698  0.12257  1.0000
  H   H77       1.0  0.06392  0.40316  0.02078  1.0000
  H   H78       1.0  0.02731  0.39659  0.87615  1.0000
  H   H79       1.0  0.05273  0.47861  0.06858  1.0000
  H   H80       1.0  0.06863  0.47830  0.97956  1.0000
  H   H81       1.0  0.14798  0.63984  0.64520  1.0000
  C   C80       1.0  0.00606  0.38729  0.99742  1.0000
  H   H82       1.0  0.07575  0.34694  0.90915  1.0000
  C   C81       1.0  0.19091  0.50344  0.66072  1.0000
  H   H83       1.0  0.17116  0.64367  0.82862  1.0000
  N   N5        1.0  0.19654  0.50835  0.60667  1.0000
  H   H84       1.0  0.10877  0.61256  0.70129  1.0000
  H   H85       1.0  0.03809  0.65330  0.92033  1.0000
  C   C82       1.0  0.19083  0.53241  0.52979  1.0000
  S   S33       1.0  0.23615  0.46407  0.70680  1.0000
  C   C83       1.0  0.18419  0.54742  0.03509  1.0000
  H   H86       1.0  0.21512  0.52367  0.46726  1.0000
  H   H87       1.0  0.17371  0.51255  0.67298  1.0000
  C   C84       1.0  0.20402  0.54013  0.95371  1.0000
  C   C85       1.0  0.18354  0.64686  0.75026  1.0000
  C   C86       1.0  0.23894  0.46550  0.81434  1.0000
  H   H88       1.0  0.21068  0.50172  0.93507  1.0000
  C   C87       1.0  0.21464  0.49493  0.58332  1.0000
  C   C88       1.0  0.03944  0.59413  0.01827  1.0000
  N   N6        1.0  0.13592  0.63765  0.72299  1.0000
  C   C89       1.0  0.14238  0.63813  0.77382  1.0000
  C   C90       1.0  0.15292  0.64084  0.68554  1.0000
  C   C91       1.0  0.16625  0.64284  0.78825  1.0000
  H   H89       1.0  0.00937  0.57501  0.08663  1.0000
  H   H90       1.0  0.04366  0.46144  0.90854  1.0000
  C   C92       1.0  0.11088  0.63263  0.70835  1.0000
  H   H91       1.0  0.12894  0.63550  0.80360  1.0000
  C   C93       1.0  0.08718  0.35089  0.03729  1.0000
  H   H92       1.0  0.12298  0.33889  0.33418  1.0000
  C   C94       1.0  0.17691  0.64568  0.69857  1.0000
  H   H93       1.0  0.00308  0.63666  0.87248  1.0000
  H   H94       1.0  0.01791  0.58873  0.92651  1.0000
  H   H95       1.0  0.10571  0.64306  0.67307  1.0000
  H   H96       1.0  0.02684  0.39221  0.06659  1.0000
  N   N7        1.0  0.18414  0.52253  0.04442  1.0000
  C   C95       1.0  0.19346  0.50625  0.00898  1.0000
  C   C96       1.0  0.20358  0.51479  0.96323  1.0000
  C   C97       1.0  0.17270  0.51309  0.09106  1.0000
  H   H97       1.0  0.19293  0.48647  0.01567  1.0000
  H   H98       1.0  0.23628  0.48993  0.51479  1.0000
  C   C98       1.0  0.07295  0.34548  0.95034  1.0000
  H   H99       1.0  0.05317  0.57956  0.02766  1.0000
  C   C99       1.0  0.00770  0.58112  0.95814  1.0000
  C   C100      1.0  0.01981  0.65382  0.99342  1.0000
  C   C101      1.0  0.01341  0.45353  0.95812  1.0000
  C   C102      1.0  0.09144  0.35159  0.98432  1.0000
  H   H100      1.0  0.09493  0.34510  0.48729  1.0000
  N   N8        1.0  0.01599  0.58292  0.00761  1.0000
  C   C103      1.0  0.10828  0.34487  0.40986  1.0000
  C   C104      1.0  0.24761  0.56154  0.54301  1.0000
  H   H101      1.0  0.04611  0.60486  0.98490  1.0000
  H   H102      1.0  0.01179  0.46239  0.08597  1.0000
  H   H103      1.0  0.10154  0.35601  0.06342  1.0000
  H   H104      1.0  0.24747  0.57883  0.46837  1.0000
  N   N9        1.0  0.06506  0.34443  0.05590  1.0000
  C   C105      1.0  0.00621  0.38839  0.94366  1.0000
  H   H105      1.0  0.13042  0.33737  0.17159  1.0000
  H   H106      1.0  0.24167  0.65486  0.40196  1.0000
  H   H107      1.0  0.24229  0.54742  0.61933  1.0000
  C   C106      1.0  0.06088  0.34517  0.11156  1.0000
  C   C107      1.0  0.23919  0.57842  0.50600  1.0000
  H   H108      1.0  0.04228  0.33957  0.12192  1.0000
  N   N10       1.0  0.00485  0.45341  0.00748  1.0000
  H   H109      1.0  0.00271  0.44609  0.92692  1.0000
  C   C108      1.0  0.00163  0.64020  0.91335  1.0000
  C   C109      1.0  0.00283  0.57357  0.04741  1.0000
  H   H110      1.0  0.03580  0.33447  0.94350  1.0000
  C   C110      1.0  0.10579  0.33504  0.45925  1.0000
  Fe  Fe19      1.0  0.17602  0.85193  0.24485  1.0000
  S   S34       1.0  0.19110  0.81778  0.28405  1.0000
  S   S35       1.0  0.19657  0.87518  0.18805  1.0000
  Fe  Fe20      1.0  0.12644  0.84618  0.29079  1.0000
  S   S36       1.0  0.13713  0.81199  0.33333  1.0000
  S   S37       1.0  0.08888  0.86109  0.30293  1.0000
  Fe  Fe21      1.0  0.17081  0.83205  0.35331  1.0000
  S   S38       1.0  0.18363  0.82740  0.43543  1.0000
  Fe  Fe22      1.0  0.15604  0.80050  0.26080  1.0000
  S   S39       1.0  0.15140  0.76009  0.24121  1.0000
  S   S40       1.0  0.15859  0.86752  0.31596  1.0000
  S   S41       1.0  0.14245  0.83339  0.21606  1.0000
  Fe  Fe23      1.0  0.17506  0.88192  0.76521  1.0000
  S   S42       1.0  0.17874  0.91816  0.72431  1.0000
  S   S43       1.0  0.21017  0.86015  0.77441  1.0000
  Fe  Fe24      1.0  0.11978  0.88602  0.76434  1.0000
  S   S44       1.0  0.11954  0.92227  0.72288  1.0000
  S   S45       1.0  0.08437  0.86751  0.78125  1.0000
  Fe  Fe25      1.0  0.14865  0.90490  0.67420  1.0000
  S   S46       1.0  0.14862  0.91164  0.58894  1.0000
  Fe  Fe26      1.0  0.14951  0.93177  0.77707  1.0000
  S   S47       1.0  0.15136  0.96835  0.81816  1.0000
  S   S48       1.0  0.14671  0.86773  0.71114  1.0000
  S   S49       1.0  0.14797  0.89652  0.82267  1.0000
  C   C111      1.0  0.22465  0.85830  0.83488  1.0000
  Fe  Fe27      1.0  0.12714  0.69337  0.98332  1.0000
  S   S50       1.0  0.09095  0.70076  0.94676  1.0000
  S   S51       1.0  0.14695  0.72778  0.00688  1.0000
  C   C112      1.0  0.18335  0.79220  0.89050  1.0000
  H   H111      1.0  0.04305  0.71007  0.26645  1.0000
  H   H112      1.0  0.17472  0.76667  0.95134  1.0000
  H   H113      1.0  0.19177  0.85817  0.87912  1.0000
  C   C113      1.0  0.11825  0.69724  0.70980  1.0000
  H   H114      1.0  0.19837  0.80036  0.91101  1.0000
  C   C114      1.0  0.05855  0.71156  0.46284  1.0000
  H   H115      1.0  0.10929  0.77530  0.80765  1.0000
  H   H116      1.0  0.11685  0.74462  0.82997  1.0000
  C   C115      1.0  0.21014  0.76352  0.40806  1.0000
  C   C116      1.0  0.20627  0.95700  0.22654  1.0000
  H   H117      1.0  0.19861  0.94665  0.30471  1.0000
  C   C117      1.0  0.22552  0.74296  0.40206  1.0000
  H   H118      1.0  0.05326  0.72503  0.38568  1.0000
  C   C118      1.0  0.01872  0.92021  0.78821  1.0000
  C   C119      1.0  0.01551  0.89465  0.78644  1.0000
  C   C120      1.0  0.03575  0.87850  0.78710  1.0000
  C   C121      1.0  0.05925  0.88785  0.78815  1.0000
  C   C122      1.0  0.06237  0.91339  0.79144  1.0000
  C   C123      1.0  0.04217  0.92951  0.79160  1.0000
  H   H119      1.0  0.12530  0.77209  0.40678  1.0000
  H   H120      1.0  0.03318  0.85875  0.78548  1.0000
  H   H121      1.0  0.08034  0.92075  0.79404  1.0000
  H   H122      1.0  0.04471  0.94925  0.79377  1.0000
  C   C124      1.0  0.06881  0.83743  0.28842  1.0000
  C   C125      1.0  0.07478  0.82026  0.25011  1.0000
  C   C126      1.0  0.05937  0.80068  0.23966  1.0000
  C   C127      1.0  0.03850  0.79749  0.26898  1.0000
  C   C128      1.0  0.03240  0.81468  0.30730  1.0000
  C   C129      1.0  0.04740  0.83491  0.31649  1.0000
  H   H123      1.0  0.09109  0.82228  0.22788  1.0000
  H   H124      1.0  0.08157  0.80447  0.37582  1.0000
  N   N11       1.0  0.13695  0.91969  0.20300  1.0000
  H   H125      1.0  0.04271  0.84822  0.34611  1.0000
  C   C130      1.0  0.14873  0.73621  0.07226  1.0000
  C   C131      1.0  0.14448  0.71916  0.11144  1.0000
  C   C132      1.0  0.14569  0.72662  0.16321  1.0000
  C   C133      1.0  0.15089  0.75118  0.17602  1.0000
  C   C134      1.0  0.15507  0.76821  0.13684  1.0000
  C   C135      1.0  0.15416  0.76068  0.08512  1.0000
  H   H126      1.0  0.14037  0.70023  0.10189  1.0000
  H   H127      1.0  0.14240  0.71337  0.19339  1.0000
  H   H128      1.0  0.15913  0.78715  0.14637  1.0000
  H   H129      1.0  0.15746  0.77396  0.05501  1.0000
  C   C136      1.0  0.17192  0.85001  0.47793  1.0000
  C   C137      1.0  0.16497  0.87338  0.45982  1.0000
  C   C138      1.0  0.15724  0.89186  0.49423  1.0000
  C   C139      1.0  0.15643  0.88716  0.54710  1.0000
  C   C140      1.0  0.16305  0.86366  0.56541  1.0000
  C   C141      1.0  0.17079  0.84511  0.53084  1.0000
  H   H130      1.0  0.16625  0.87757  0.41949  1.0000
  H   H131      1.0  0.15229  0.91003  0.47987  1.0000
  H   H132      1.0  0.16264  0.85990  0.60611  1.0000
  H   H133      1.0  0.17618  0.82707  0.54514  1.0000
  C   C142      1.0  0.20094  0.90646  0.20386  1.0000
  C   C143      1.0  0.19839  0.91494  0.25437  1.0000
  C   C144      1.0  0.20101  0.94013  0.26565  1.0000
  C   C145      1.0  0.20953  0.94844  0.17619  1.0000
  C   C146      1.0  0.20673  0.92323  0.16488  1.0000
  H   H134      1.0  0.19444  0.90214  0.28487  1.0000
  H   H135      1.0  0.21359  0.96133  0.14579  1.0000
  H   H136      1.0  0.20869  0.91679  0.12569  1.0000
  H   H137      1.0  0.05737  0.90692  0.61830  1.0000
  H   H138      1.0  0.21445  0.88543  0.67279  1.0000
  H   H139      1.0  0.10930  0.91146  0.31751  1.0000
  H   H140      1.0  0.21868  0.96474  0.92793  1.0000
  H   H141      1.0  0.07022  0.70887  0.06453  1.0000
  C   C147      1.0  0.14313  0.70205  0.78564  1.0000
  H   H142      1.0  0.01924  0.71938  0.22297  1.0000
  C   C148      1.0  0.09995  0.69966  0.48505  1.0000
  H   H143      1.0  0.20955  0.83377  0.66013  1.0000
  C   C149      1.0  0.12339  0.90882  0.24029  1.0000
  C   C150      1.0  0.22644  0.85826  0.55922  1.0000
  Fe  Fe28      1.0  0.16552  0.69136  0.47963  1.0000
  H   H144      1.0  0.21012  0.91630  0.52114  1.0000
  C   C151      1.0  0.21466  0.90098  0.54648  1.0000
  H   H145      1.0  0.14293  0.97340  0.70815  1.0000
  N   N12       1.0  0.19507  0.72276  0.35207  1.0000
  C   C152      1.0  0.21759  0.72255  0.37402  1.0000
  H   H146      1.0  0.20997  0.96400  0.86147  1.0000
  C   C153      1.0  0.20472  0.97128  0.89996  1.0000
  C   C154      1.0  0.14448  0.99399  0.77908  1.0000
  N   N13       1.0  0.22391  0.86108  0.61129  1.0000
  S   S52       1.0  0.14134  0.67074  0.91698  1.0000
  H   H147      1.0  0.17922  0.71510  0.77203  1.0000
  C   C155      1.0  0.04140  0.85972  0.67020  1.0000
  H   H148      1.0  0.03211  0.68836  0.22029  1.0000
  C   C156      1.0  0.18703  0.76329  0.38659  1.0000
  S   S53       1.0  0.15643  0.67660  0.55769  1.0000
  C   C157      1.0  0.08670  0.99312  0.81931  1.0000
  N   N14       1.0  0.08817  0.77525  0.42845  1.0000
  C   C158      1.0  0.07162  0.77274  0.46707  1.0000
  C   C159      1.0  0.11219  0.77035  0.43739  1.0000
  C   C160      1.0  0.07887  0.76435  0.51567  1.0000
  C   C161      1.0  0.12010  0.76211  0.48563  1.0000
  C   C162      1.0  0.10328  0.75897  0.52488  1.0000
  C   C163      1.0  0.08027  0.78401  0.37772  1.0000
  H   H149      1.0  0.05255  0.77638  0.46002  1.0000
  C   C164      1.0  0.02398  0.84131  0.67264  1.0000
  H   H150      1.0  0.06547  0.76119  0.54525  1.0000
  H   H151      1.0  0.13904  0.75739  0.49192  1.0000
  H   H152      1.0  0.10907  0.75177  0.56191  1.0000
  C   C165      1.0  0.12116  0.69544  0.76318  1.0000
  H   H153      1.0  0.06126  0.77882  0.36962  1.0000
  C   C166      1.0  0.16221  0.71009  0.75462  1.0000
  N   N15       1.0  0.14480  0.77145  0.83797  1.0000
  C   C167      1.0  0.15078  0.76315  0.88614  1.0000
  C   C168      1.0  0.15763  0.78996  0.81560  1.0000
  C   C169      1.0  0.17013  0.77335  0.91308  1.0000
  C   C170      1.0  0.17711  0.80056  0.84141  1.0000
  H   H154      1.0  0.12956  0.75534  0.77098  1.0000
  C   C171      1.0  0.12410  0.76119  0.81039  1.0000
  H   H155      1.0  0.14057  0.74859  0.90423  1.0000
  H   H156      1.0  0.15278  0.79669  0.77759  1.0000
  H   H157      1.0  0.18724  0.81525  0.82349  1.0000
  C   C172      1.0  0.06619  0.71777  0.41329  1.0000
  S   S54       1.0  0.02847  0.71679  0.48287  1.0000
  H   H158      1.0  0.20556  0.92108  0.61555  1.0000
  C   C173      1.0  0.03623  0.70816  0.22641  1.0000
  C   C174      1.0  0.09076  0.71511  0.39990  1.0000
  H   H159      1.0  0.09668  0.72029  0.36185  1.0000
  H   H160      1.0  0.21596  0.77953  0.42968  1.0000
  H   H161      1.0  0.17489  0.77907  0.39144  1.0000
  C   C175      1.0  0.24576  0.84972  0.11737  1.0000
  C   C176      1.0  0.21685  0.88339  0.63159  1.0000
  H   H162      1.0  0.10117  0.69253  0.69230  1.0000
  H   H163      1.0  0.06027  0.85470  0.67651  1.0000
  H   H164      1.0  0.23118  0.84039  0.54275  1.0000
  H   H165      1.0  0.11278  0.69291  0.51313  1.0000
  C   C177      1.0  0.22322  0.85201  0.92728  1.0000
  C   C178      1.0  0.01081  0.89025  0.65478  1.0000
  Fe  Fe29      1.0  0.18611  0.70054  0.58628  1.0000
  C   C179      1.0  0.10776  0.70630  0.43599  1.0000
  H   H166      1.0  0.09156  0.77572  0.34661  1.0000
  C   C180      1.0  0.18686  0.70118  0.32323  1.0000
  S   S55       1.0  0.13877  0.70537  0.41987  1.0000
  C   C181      1.0  0.14628  0.94265  0.21083  1.0000
  H   H167      1.0  0.09822  0.75889  0.17761  1.0000
  H   H168      1.0  0.22957  0.70653  0.37016  1.0000
  C   C182      1.0  0.12988  0.94351  0.29676  1.0000
  C   C183      1.0  0.15954  0.71106  0.70104  1.0000
  Fe  Fe30      1.0  0.10434  0.67586  0.88376  1.0000
  S   S56       1.0  0.19315  0.71778  0.50944  1.0000
  H   H169      1.0  0.22316  0.87565  0.48472  1.0000
  C   C184      1.0  0.13744  0.70485  0.67877  1.0000
  C   C185      1.0  0.22739  0.83991  0.64580  1.0000
  C   C186      1.0  0.11974  0.92047  0.28779  1.0000
  S   S57       1.0  0.21529  0.67171  0.57661  1.0000
  C   C187      1.0  0.08419  0.98889  0.76669  1.0000
  H   H170      1.0  0.17723  0.68853  0.34948  1.0000
  C   C188      1.0  0.14311  0.95480  0.25795  1.0000
  H   H171      1.0  0.17425  0.70693  0.29182  1.0000
  C   C189      1.0  0.14063  0.90692  0.15379  1.0000
  C   C190      1.0  0.07545  0.70224  0.49839  1.0000
  S   S58       1.0  0.18385  0.72029  0.66259  1.0000
  C   C191      1.0  0.21209  0.90366  0.59955  1.0000
  H   H172      1.0  0.21276  0.84991  0.96207  1.0000
  C   C192      1.0  0.24856  0.84977  0.92934  1.0000
  N   N16       1.0  0.20283  0.99834  0.89991  1.0000
  C   C193      1.0  0.21131  0.85669  0.88035  1.0000
  C   C194      1.0  0.06946  0.73519  0.20248  1.0000
  C   C195      1.0  0.05405  0.70750  0.14006  1.0000
  H   H173      1.0  0.15659  0.91405  0.13299  1.0000
  H   H174      1.0  0.09482  0.97894  0.84369  1.0000
  H   H175      1.0  0.12754  0.95256  0.33374  1.0000
  C   C196      1.0  0.08582  0.74445  0.16667  1.0000
  H   H176      1.0  0.06962  0.69741  0.53673  1.0000
  H   H177      1.0  0.06901  0.74302  0.24094  1.0000
  C   C197      1.0  0.17967  0.74257  0.35891  1.0000
  H   H178      1.0  0.15140  0.97259  0.26456  1.0000
  H   H179      1.0  0.06376  0.78793  0.20902  1.0000
  C   C198      1.0  0.07011  0.71641  0.10324  1.0000
  H   H180      1.0  0.04164  0.69311  0.12906  1.0000
  C   C199      1.0  0.08597  0.73510  0.11665  1.0000
  S   S59       1.0  0.09721  0.68420  0.80028  1.0000
  H   H181      1.0  0.16152  0.74233  0.34302  1.0000
  N   N17       1.0  0.05397  0.71684  0.18903  1.0000
  H   H182      1.0  0.14544  0.70107  0.82679  1.0000
  H   H183      1.0  0.20229  0.69104  0.30512  1.0000
  H   H184      1.0  0.01603  0.81258  0.32943  1.0000
  S   S60       1.0  0.02100  0.77132  0.25817  1.0000
  C   C200      1.0  0.22199  0.87819  0.52607  1.0000
  H   H185      1.0  0.07001  0.89709  0.67916  1.0000
  C   C201      1.0  0.14085  0.99136  0.72611  1.0000
  H   H186      1.0  0.18692  0.96343  0.91010  1.0000
  H   H187      1.0  0.09032  0.97145  0.75017  1.0000
  H   H188      1.0  0.15684  0.95147  0.18119  1.0000
  N   N18       1.0  0.03465  0.88387  0.66203  1.0000
  H   H189      1.0  0.23668  0.82408  0.62639  1.0000
  H   H190      1.0  0.02929  0.82230  0.68040  1.0000
  H   H191      1.0  0.13495  0.70637  0.63770  1.0000
  S   S61       1.0  0.20666  0.98877  0.24105  1.0000
  H   H192      1.0  0.09838  0.74230  0.08834  1.0000
  H   H193      1.0  0.11552  0.89087  0.23365  1.0000
  Fe  Fe31      1.0  0.21986  0.68645  0.49679  1.0000
  H   H194      1.0  0.12430  0.90919  0.12925  1.0000
  H   H195      1.0  0.14436  0.88688  0.16022  1.0000
  H   H196      1.0  0.04657  0.92022  0.67834  1.0000
  C   C202      1.0  0.05306  0.90297  0.65912  1.0000
  Fe  Fe32      1.0  0.00224  0.73302  0.42516  1.0000
  S   S62       1.0  0.00359  0.77338  0.40689  1.0000
  H   H197      1.0  0.23214  0.84804  0.08613  1.0000
  H   H198      1.0  0.00538  0.90938  0.64848  1.0000
  H   H199      1.0  0.24877  0.88433  0.04495  1.0000
  H   H200      1.0  0.23741  0.84219  0.15276  1.0000
  H   H201      1.0  0.24338  0.74263  0.41951  1.0000
  H   H202      1.0  0.23857  0.84518  0.67957  1.0000
  C   C203      1.0  0.24999  0.85633  0.83703  1.0000
  H   H203      1.0  0.19534  0.00061  0.81948  1.0000
  Fe  Fe33      1.0  0.46572  0.22502  0.82930  1.0000
  S   S63       1.0  0.47239  0.23168  0.91447  1.0000
  S   S64       1.0  0.43386  0.20215  0.80034  1.0000
  C   C204      1.0  0.35008  0.16753  0.49027  1.0000
  N   N19       1.0  0.33746  0.02684  0.09472  1.0000
  H   H204      1.0  0.28036  0.05158  0.29334  1.0000
  C   C205      1.0  0.35185  0.15823  0.54015  1.0000
  Fe  Fe34      1.0  0.47675  0.27192  0.89459  1.0000
  S   S65       1.0  0.46256  0.30742  0.93393  1.0000
  H   H205      1.0  0.41812  0.01138  0.40088  1.0000
  S   S66       1.0  0.46705  0.26566  0.81091  1.0000
  Fe  Fe35      1.0  0.43145  0.10594  0.44765  1.0000
  S   S67       1.0  0.44114  0.09414  0.52774  1.0000
  S   S68       1.0  0.45958  0.12273  0.39667  1.0000
  Fe  Fe36      1.0  0.38039  0.08503  0.45159  1.0000
  S   S69       1.0  0.38650  0.07234  0.53352  1.0000
  S   S70       1.0  0.34365  0.07356  0.41812  1.0000
  Fe  Fe37      1.0  0.40433  0.10904  0.54821  1.0000
  S   S71       1.0  0.39451  0.13141  0.62057  1.0000
  Fe  Fe38      1.0  0.42282  0.05892  0.50610  1.0000
  S   S72       1.0  0.44271  0.02264  0.51903  1.0000
  S   S73       1.0  0.39524  0.12288  0.46837  1.0000
  S   S74       1.0  0.41602  0.06952  0.42416  1.0000
  H   H206      1.0  0.30914  0.09990  0.56523  1.0000
  H   H207      1.0  0.41115  0.22217  0.99100  1.0000
  C   C206      1.0  0.32769  0.13150  0.46562  1.0000
  H   H208      1.0  0.31881  0.12088  0.43583  1.0000
  C   C207      1.0  0.34140  0.13557  0.55177  1.0000
  H   H209      1.0  0.32067  0.00856  0.95556  1.0000
  H   H210      1.0  0.35861  0.18481  0.48056  1.0000
  C   C208      1.0  0.48404  0.13574  0.42985  1.0000
  C   C209      1.0  0.33130  0.07221  0.35457  1.0000
  C   C210      1.0  0.34283  0.08239  0.31189  1.0000
  C   C211      1.0  0.33172  0.08172  0.26285  1.0000
  C   C212      1.0  0.30908  0.07067  0.25554  1.0000
  C   C213      1.0  0.29777  0.06010  0.29807  1.0000
  C   C214      1.0  0.30875  0.06101  0.34719  1.0000
  H   H211      1.0  0.36010  0.09118  0.31673  1.0000
  H   H212      1.0  0.34065  0.09010  0.23045  1.0000
  H   H213      1.0  0.30594  0.09249  0.49816  1.0000
  H   H214      1.0  0.29955  0.05311  0.37977  1.0000
  N   N20       1.0  0.32926  0.12268  0.51486  1.0000
  H   H215      1.0  0.34351  0.12816  0.59034  1.0000
  H   H216      1.0  0.39110  0.01321  0.52575  1.0000
  H   H217      1.0  0.33357  0.08452  0.53083  1.0000
  H   H218      1.0  0.36051  0.02520  0.16133  1.0000
  H   H219      1.0  0.47966  0.32889  0.33717  1.0000
  C   C215      1.0  0.31891  0.09876  0.52800  1.0000
  C   C216      1.0  0.33798  0.15408  0.45263  1.0000
  H   H220      1.0  0.40919  0.21233  0.89754  1.0000
  H   H221      1.0  0.33701  0.16080  0.41337  1.0000
  S   S75       1.0  0.29569  0.07088  0.19281  1.0000
  C   C217      1.0  0.45772  0.31608  0.99949  1.0000
  C   C218      1.0  0.45617  0.29866  0.03902  1.0000
  C   C219      1.0  0.45015  0.30630  0.08949  1.0000
  C   C220      1.0  0.40987  0.28038  0.94190  1.0000
  C   C221      1.0  0.32576  0.01414  0.99415  1.0000
  C   C222      1.0  0.31183  0.03177  0.02056  1.0000
  H   H222      1.0  0.45913  0.27927  0.03053  1.0000
  H   H223      1.0  0.44850  0.29259  0.11945  1.0000
  H   H224      1.0  0.36193  0.16806  0.56943  1.0000
  C   C223      1.0  0.42522  0.18260  0.74785  1.0000
  C   C224      1.0  0.40140  0.17421  0.74796  1.0000
  C   C225      1.0  0.39283  0.15877  0.70878  1.0000
  C   C226      1.0  0.40779  0.15102  0.66820  1.0000
  C   C227      1.0  0.43183  0.15930  0.66740  1.0000
  C   C228      1.0  0.44052  0.17511  0.70712  1.0000
  H   H225      1.0  0.38935  0.17966  0.77885  1.0000
  H   H226      1.0  0.37434  0.15264  0.71025  1.0000
  H   H227      1.0  0.44367  0.15358  0.63635  1.0000
  H   H228      1.0  0.45896  0.18135  0.70632  1.0000
  C   C229      1.0  0.48260  0.14049  0.48263  1.0000
  C   C230      1.0  0.34560  0.00290  0.01846  1.0000
  Fe  Fe39      1.0  0.26145  0.05191  0.16344  1.0000
  H   H229      1.0  0.46586  0.13773  0.50288  1.0000
  C   C231      1.0  0.31801  0.03798  0.07111  1.0000
  N   N21       1.0  0.40945  0.27477  0.89059  1.0000
  C   C232      1.0  0.34285  0.03309  0.14837  1.0000
  C   C233      1.0  0.40869  0.25068  0.87468  1.0000
  C   C234      1.0  0.41023  0.23696  0.96290  1.0000
  H   H230      1.0  0.41162  0.26620  0.01937  1.0000
  H   H231      1.0  0.34072  0.00629  0.40255  1.0000
  H   H232      1.0  0.32838  0.02608  0.17388  1.0000
  C   C235      1.0  0.40912  0.23143  0.91054  1.0000
  H   H233      1.0  0.40819  0.24612  0.83402  1.0000
  H   H234      1.0  0.41050  0.29949  0.95453  1.0000
  C   C236      1.0  0.40891  0.29484  0.85275  1.0000
  C   C237      1.0  0.41051  0.26160  0.97881  1.0000
  H   H235      1.0  0.37742  0.03171  0.40567  1.0000
  H   H236      1.0  0.47674  0.05527  0.45969  1.0000
  H   H237      1.0  0.30699  0.05153  0.09168  1.0000
  H   H238      1.0  0.34348  0.05350  0.15327  1.0000
  S   S76       1.0  0.26154  0.01041  0.16032  1.0000
  H   H239      1.0  0.29594  0.04006  0.00250  1.0000
  H   H240      1.0  0.39044  0.30314  0.85042  1.0000
  H   H241      1.0  0.42189  0.30941  0.86382  1.0000
  C   C238      1.0  0.35114  0.00939  0.06920  1.0000
  C   C239      1.0  0.49387  0.32571  0.30905  1.0000
  H   H242      1.0  0.41442  0.28818  0.81395  1.0000
  H   H243      1.0  0.48377  0.05012  0.55341  1.0000
  C   C240      1.0  0.49221  0.06375  0.47788  1.0000
  C   C241      1.0  0.49612  0.06094  0.53058  1.0000
  C   C242      1.0  0.37913  0.01181  0.40134  1.0000
  H   H244      1.0  0.49410  0.31765  0.14910  1.0000
  C   C243      1.0  0.48971  0.33099  0.25714  1.0000
  C   C244      1.0  0.44619  0.33147  0.10156  1.0000
  S   S77       1.0  0.25113  0.05641  0.07919  1.0000
  C   C245      1.0  0.29011  0.62853  0.51795  1.0000
  C   C246      1.0  0.31216  0.59130  0.54125  1.0000
  H   H245      1.0  0.41079  0.62980  0.00563  1.0000
  S   S78       1.0  0.33383  0.65057  0.72764  1.0000
  H   H246      1.0  0.28800  0.59397  0.47647  1.0000
  H   H247      1.0  0.40449  0.47946  0.51175  1.0000
  H   H248      1.0  0.49937  0.48304  0.26398  1.0000
  H   H249      1.0  0.36603  0.58927  0.01649  1.0000
  Fe  Fe40      1.0  0.35240  0.62870  0.28257  1.0000
  S   S79       1.0  0.36325  0.59514  0.23564  1.0000
  C   C247      1.0  0.37150  0.66098  0.08377  1.0000
  Fe  Fe41      1.0  0.40438  0.64604  0.28969  1.0000
  S   S80       1.0  0.41858  0.61382  0.24475  1.0000
  C   C248      1.0  0.34174  0.62026  0.00412  1.0000
  Fe  Fe42      1.0  0.38711  0.62103  0.19252  1.0000
  S   S81       1.0  0.39648  0.61791  0.10814  1.0000
  Fe  Fe43      1.0  0.39374  0.59129  0.29183  1.0000
  S   S82       1.0  0.40634  0.55566  0.32852  1.0000
  C   C249      1.0  0.46236  0.61312  0.15806  1.0000
  S   S83       1.0  0.38162  0.62297  0.34201  1.0000
  Fe  Fe44      1.0  0.28429  0.51559  0.59065  1.0000
  S   S84       1.0  0.27626  0.52054  0.67458  1.0000
  Fe  Fe45      1.0  0.31732  0.47034  0.60610  1.0000
  S   S85       1.0  0.31125  0.47119  0.69229  1.0000
  S   S86       1.0  0.34632  0.44415  0.57245  1.0000
  Fe  Fe46      1.0  0.27176  0.47929  0.67537  1.0000
  C   C250      1.0  0.36321  0.51660  0.22609  1.0000
  Fe  Fe47      1.0  0.31582  0.51232  0.68521  1.0000
  S   S87       1.0  0.34154  0.53351  0.73561  1.0000
  S   S88       1.0  0.27755  0.47484  0.58942  1.0000
  S   S89       1.0  0.32429  0.51092  0.60117  1.0000
  Fe  Fe48      1.0  0.43711  0.37615  0.21211  1.0000
  Fe  Fe49      1.0  0.44394  0.43188  0.22739  1.0000
  S   S90       1.0  0.44237  0.42956  0.31318  1.0000
  S   S91       1.0  0.44750  0.46917  0.18896  1.0000
  Fe  Fe50      1.0  0.46553  0.39550  0.30297  1.0000
  C   C251      1.0  0.36024  0.59653  0.93566  1.0000
  Fe  Fe51      1.0  0.41052  0.40545  0.30095  1.0000
  S   S92       1.0  0.37475  0.41700  0.33976  1.0000
  S   S93       1.0  0.47012  0.39976  0.21801  1.0000
  S   S94       1.0  0.41107  0.40888  0.21420  1.0000
  C   C252      1.0  0.35447  0.43825  0.50708  1.0000
  C   C253      1.0  0.33890  0.44380  0.46607  1.0000
  C   C254      1.0  0.34544  0.43716  0.41531  1.0000
  C   C255      1.0  0.36790  0.42557  0.40453  1.0000
  C   C256      1.0  0.38385  0.42082  0.44534  1.0000
  C   C257      1.0  0.37700  0.42679  0.49628  1.0000
  H   H250      1.0  0.32143  0.45237  0.47362  1.0000
  H   H251      1.0  0.33285  0.44076  0.38420  1.0000
  H   H252      1.0  0.40108  0.41172  0.43788  1.0000
  H   H253      1.0  0.38910  0.42202  0.52758  1.0000
  C   C258      1.0  0.42103  0.53389  0.28864  1.0000
  C   C259      1.0  0.42053  0.53596  0.23498  1.0000
  C   C260      1.0  0.42971  0.51647  0.20430  1.0000
  C   C261      1.0  0.43922  0.49491  0.22726  1.0000
  C   C262      1.0  0.44110  0.49377  0.28078  1.0000
  C   C263      1.0  0.43191  0.51307  0.31134  1.0000
  H   H254      1.0  0.41220  0.55206  0.21720  1.0000
  H   H255      1.0  0.42850  0.51765  0.16284  1.0000
  H   H256      1.0  0.44967  0.47809  0.29891  1.0000
  H   H257      1.0  0.43284  0.51165  0.35280  1.0000
  C   C264      1.0  0.29603  0.60368  0.50857  1.0000
  C   C265      1.0  0.46057  0.63209  0.34027  1.0000
  H   H258      1.0  0.44350  0.62381  0.34985  1.0000
  C   C266      1.0  0.37103  0.49855  0.19116  1.0000
  H   H259      1.0  0.36763  0.48861  0.70569  1.0000
  C   C267      1.0  0.39767  0.64366  0.01799  1.0000
  C   C268      1.0  0.38840  0.64294  0.06809  1.0000
  H   H260      1.0  0.49102  0.57028  0.22570  1.0000
  C   C269      1.0  0.38103  0.47636  0.20930  1.0000
  H   H261      1.0  0.27720  0.63790  0.49294  1.0000
  H   H262      1.0  0.37200  0.58149  0.92274  1.0000
  C   C270      1.0  0.33618  0.61807  0.73058  1.0000
  C   C271      1.0  0.31704  0.60386  0.71218  1.0000
  C   C272      1.0  0.31865  0.57791  0.71290  1.0000
  C   C273      1.0  0.33919  0.56602  0.73324  1.0000
  C   C274      1.0  0.35820  0.58023  0.75226  1.0000
  C   C275      1.0  0.35682  0.60619  0.75043  1.0000
  H   H263      1.0  0.30090  0.61292  0.69719  1.0000
  H   H264      1.0  0.30383  0.56714  0.69842  1.0000
  H   H265      1.0  0.37420  0.57113  0.76778  1.0000
  H   H266      1.0  0.37186  0.61695  0.76386  1.0000
  C   C276      1.0  0.48602  0.64977  0.14701  1.0000
  C   C277      1.0  0.33093  0.63577  0.96737  1.0000
  H   H267      1.0  0.33930  0.62391  0.04487  1.0000
  H   H268      1.0  0.25750  0.47105  0.80971  1.0000
  C   C278      1.0  0.39148  0.52889  0.58851  1.0000
  H   H269      1.0  0.39473  0.45767  0.59217  1.0000
  C   C279      1.0  0.37978  0.47728  0.68062  1.0000
  H   H270      1.0  0.33535  0.59462  0.60756  1.0000
  H   H271      1.0  0.39056  0.54894  0.58805  1.0000
  S   S95       1.0  0.43360  0.37056  0.29817  1.0000
  H   H272      1.0  0.39129  0.47106  0.36033  1.0000
  H   H273      1.0  0.38033  0.52630  0.66732  1.0000
  C   C280      1.0  0.35673  0.60073  0.98812  1.0000
  H   H274      1.0  0.36975  0.50188  0.15014  1.0000
  C   C281      1.0  0.45382  0.34123  0.01159  1.0000
  S   S96       1.0  0.45123  0.66043  0.80153  1.0000
  C   C282      1.0  0.27298  0.64403  0.35709  1.0000
  C   C283      1.0  0.39947  0.48999  0.54579  1.0000
  H   H275      1.0  0.31630  0.57182  0.53509  1.0000
  H   H276      1.0  0.30283  0.64800  0.88332  1.0000
  C   C284      1.0  0.39821  0.51576  0.54437  1.0000
  C   C285      1.0  0.38320  0.47259  0.26228  1.0000
  H   H277      1.0  0.45486  0.35490  0.98139  1.0000
  H   H278      1.0  0.36973  0.46026  0.67078  1.0000
  S   S97       1.0  0.31198  0.63028  0.29823  1.0000
  H   H279      1.0  0.49062  0.35006  0.16373  1.0000
  H   H280      1.0  0.38766  0.46236  0.18260  1.0000
  C   C286      1.0  0.47397  0.58132  0.22157  1.0000
  C   C287      1.0  0.36571  0.51222  0.27885  1.0000
  C   C288      1.0  0.38567  0.51597  0.63328  1.0000
  H   H281      1.0  0.36022  0.52659  0.30581  1.0000
  H   H282      1.0  0.39632  0.47210  0.70261  1.0000
  C   C289      1.0  0.34874  0.61209  0.89989  1.0000
  C   C290      1.0  0.32274  0.60404  0.58190  1.0000
  H   H283      1.0  0.40245  0.52552  0.50917  1.0000
  H   H284      1.0  0.35584  0.53414  0.21256  1.0000
  N   N22       1.0  0.37588  0.49055  0.29626  1.0000
  N   N23       1.0  0.30033  0.64082  0.55828  1.0000
  H   H285      1.0  0.39125  0.45542  0.27595  1.0000
  H   H286      1.0  0.36055  0.48191  0.36836  1.0000
  H   H287      1.0  0.38535  0.50339  0.37075  1.0000
  H   H288      1.0  0.48173  0.60034  0.36445  1.0000
  H   H289      1.0  0.35162  0.60870  0.85922  1.0000
  H   H290      1.0  0.39670  0.66204  0.94459  1.0000
  H   H291      1.0  0.32017  0.65159  0.98019  1.0000
  N   N24       1.0  0.33442  0.63151  0.91602  1.0000
  H   H292      1.0  0.45270  0.64282  0.10626  1.0000
  C   C291      1.0  0.39380  0.47772  0.59138  1.0000
  H   H293      1.0  0.44646  0.60265  0.14809  1.0000
  H   H294      1.0  0.26343  0.63016  0.33546  1.0000
  S   S98       1.0  0.43808  0.33979  0.16588  1.0000
  C   C292      1.0  0.37838  0.48653  0.35174  1.0000
  C   C293      1.0  0.26060  0.65806  0.39465  1.0000
  C   C294      1.0  0.48226  0.61882  0.34871  1.0000
  C   C295      1.0  0.29760  0.64786  0.34711  1.0000
  N   N25       1.0  0.38629  0.49068  0.63383  1.0000
  C   C296      1.0  0.46582  0.63592  0.13412  1.0000
  C   C297      1.0  0.44841  0.34894  0.06233  1.0000
  C   C298      1.0  0.31675  0.62902  0.58964  1.0000
  H   H295      1.0  0.46672  0.58542  0.26061  1.0000
  H   H296      1.0  0.48767  0.45213  0.26402  1.0000
  C   C299      1.0  0.29395  0.66692  0.56683  1.0000
  N   N26       1.0  0.47840  0.60451  0.19432  1.0000
  C   C300      1.0  0.32277  0.64813  0.87859  1.0000
  H   H297      1.0  0.44535  0.36833  0.07073  1.0000
  S   S99       1.0  0.27133  0.54089  0.52723  1.0000
  H   H298      1.0  0.36411  0.66047  0.12220  1.0000
  C   C301      1.0  0.30983  0.66579  0.37526  1.0000
  H   H299      1.0  0.48898  0.66752  0.12896  1.0000
  C   C302      1.0  0.48329  0.66673  0.30896  1.0000
  S   S100      1.0  0.38254  0.65820  0.83715  1.0000
  C   C303      1.0  0.38955  0.66182  0.98320  1.0000
  S   S101      1.0  0.37410  0.65500  0.23438  1.0000
  H   H300      1.0  0.32690  0.64264  0.83825  1.0000
  H   H301      1.0  0.32515  0.63881  0.62121  1.0000
  C   C304      1.0  0.46099  0.65614  0.32074  1.0000
  H   H302      1.0  0.46072  0.56970  0.20087  1.0000
  S   S102      1.0  0.49626  0.38813  0.35816  1.0000
  C   C305      1.0  0.49814  0.61805  0.20734  1.0000
  H   H303      1.0  0.47194  0.33762  0.24545  1.0000
  H   H304      1.0  0.49194  0.66076  0.73432  1.0000
  H   H305      1.0  0.32924  0.66728  0.88425  1.0000
  Fe  Fe52      1.0  0.35556  0.83323  0.98057  1.0000
  S   S103      1.0  0.32671  0.81369  0.02481  1.0000
  S   S104      1.0  0.37956  0.81050  0.92739  1.0000
  Fe  Fe53      1.0  0.34181  0.88275  0.02614  1.0000
  S   S105      1.0  0.31219  0.86739  0.07413  1.0000
  S   S106      1.0  0.34979  0.92282  0.03695  1.0000
  Fe  Fe54      1.0  0.33865  0.83681  0.09166  1.0000
  S   S107      1.0  0.34158  0.82101  0.17182  1.0000
  Fe  Fe55      1.0  0.30268  0.84599  0.00316  1.0000
  S   S108      1.0  0.26259  0.84157  0.98808  1.0000
  S   S109      1.0  0.36922  0.85382  0.04913  1.0000
  S   S110      1.0  0.33044  0.86383  0.95317  1.0000
  Fe  Fe56      1.0  0.42309  0.86011  0.40009  1.0000
  S   S111      1.0  0.38853  0.85941  0.44447  1.0000
  S   S112      1.0  0.42501  0.86229  0.31387  1.0000
  Fe  Fe57      1.0  0.45405  0.86187  0.49666  1.0000
  S   S113      1.0  0.42194  0.86144  0.54933  1.0000
  H   H306      1.0  0.39709  0.70551  0.36884  1.0000
  Fe  Fe58      1.0  0.40821  0.83225  0.49586  1.0000
  S   S114      1.0  0.39325  0.79488  0.51608  1.0000
  Fe  Fe59      1.0  0.40561  0.88869  0.49340  1.0000
  S   S115      1.0  0.38406  0.92316  0.51438  1.0000
  S   S116      1.0  0.44170  0.83072  0.44713  1.0000
  S   S117      1.0  0.43891  0.89138  0.44501  1.0000
  S   S118      1.0  0.40686  0.71332  0.84498  1.0000
  H   H307      1.0  0.35598  0.98845  0.99894  1.0000
  Fe  Fe60      1.0  0.38540  0.72346  0.77459  1.0000
  S   S119      1.0  0.38952  0.76318  0.75037  1.0000
  S   S120      1.0  0.39527  0.68907  0.73055  1.0000
  C   C306      1.0  0.46149  0.81676  0.94594  1.0000
  C   C307      1.0  0.45204  0.80064  0.90920  1.0000
  C   C308      1.0  0.47341  0.68266  0.79165  1.0000
  C   C309      1.0  0.25357  0.89094  0.08292  1.0000
  H   H308      1.0  0.34479  0.96065  0.39414  1.0000
  C   C310      1.0  0.29737  0.68005  0.41242  1.0000
  H   H309      1.0  0.48374  0.68529  0.29365  1.0000
  H   H310      1.0  0.34967  0.69255  0.06073  1.0000
  C   C311      1.0  0.39204  0.78630  0.58132  1.0000
  C   C312      1.0  0.39553  0.80359  0.62050  1.0000
  C   C313      1.0  0.39466  0.79621  0.67221  1.0000
  C   C314      1.0  0.39031  0.77153  0.68505  1.0000
  C   C315      1.0  0.38693  0.75417  0.64596  1.0000
  C   C316      1.0  0.38771  0.76159  0.59419  1.0000
  H   H311      1.0  0.39868  0.82269  0.61103  1.0000
  H   H312      1.0  0.39733  0.80972  0.70233  1.0000
  H   H313      1.0  0.38356  0.73510  0.65557  1.0000
  H   H314      1.0  0.38495  0.74813  0.56404  1.0000
  C   C317      1.0  0.42576  0.95025  0.51630  1.0000
  C   C318      1.0  0.40049  0.95069  0.51848  1.0000
  C   C319      1.0  0.38806  0.97347  0.52232  1.0000
  H   H315      1.0  0.42585  0.80593  0.32522  1.0000
  H   H316      1.0  0.43552  0.93280  0.51462  1.0000
  H   H317      1.0  0.29290  0.98705  0.09261  1.0000
  C   C320      1.0  0.32315  0.94045  0.03146  1.0000
  C   C321      1.0  0.30850  0.93838  0.98785  1.0000
  H   H318      1.0  0.31313  0.92504  0.95822  1.0000
  H   H319      1.0  0.44024  0.74828  0.67533  1.0000
  C   C322      1.0  0.25922  0.88374  0.17222  1.0000
  C   C323      1.0  0.45937  0.78707  0.63368  1.0000
  C   C324      1.0  0.38557  0.93383  0.38518  1.0000
  H   H320      1.0  0.40373  0.72761  0.97727  1.0000
  H   H321      1.0  0.28144  0.85148  0.88568  1.0000
  C   C325      1.0  0.43851  0.97244  0.51725  1.0000
  H   H322      1.0  0.38888  0.80427  0.13183  1.0000
  C   C326      1.0  0.36385  0.83375  0.21222  1.0000
  C   C327      1.0  0.38170  0.84891  0.19214  1.0000
  C   C328      1.0  0.40022  0.85762  0.22386  1.0000
  C   C329      1.0  0.40073  0.85183  0.27630  1.0000
  C   C330      1.0  0.38252  0.83725  0.29700  1.0000
  C   C331      1.0  0.36430  0.82795  0.26483  1.0000
  H   H323      1.0  0.38154  0.85373  0.15204  1.0000
  H   H324      1.0  0.41421  0.86895  0.20768  1.0000
  H   H325      1.0  0.38263  0.83288  0.33751  1.0000
  H   H326      1.0  0.35050  0.81630  0.28072  1.0000
  C   C332      1.0  0.41108  0.81436  0.93184  1.0000
  C   C333      1.0  0.42073  0.83106  0.96693  1.0000
  C   C334      1.0  0.44578  0.83208  0.97432  1.0000
  C   C335      1.0  0.48910  0.78271  0.69922  1.0000
  C   C336      1.0  0.42681  0.79943  0.90224  1.0000
  H   H327      1.0  0.40895  0.84297  0.98911  1.0000
  H   H328      1.0  0.45298  0.84465  0.00266  1.0000
  H   H329      1.0  0.41948  0.78659  0.87457  1.0000
  H   H330      1.0  0.42876  0.80560  0.08791  1.0000
  H   H331      1.0  0.32848  0.95916  0.10353  1.0000
  C   C337      1.0  0.42790  0.74319  0.33568  1.0000
  N   N27       1.0  0.40169  0.76278  0.01350  1.0000
  C   C338      1.0  0.37968  0.76198  0.03733  1.0000
  C   C339      1.0  0.41932  0.77792  0.03175  1.0000
  C   C340      1.0  0.37480  0.77679  0.08045  1.0000
  C   C341      1.0  0.41496  0.79314  0.07441  1.0000
  C   C342      1.0  0.39256  0.79250  0.09884  1.0000
  H   H332      1.0  0.44448  0.76883  0.28332  1.0000
  H   H333      1.0  0.36576  0.74993  0.02275  1.0000
  C   C343      1.0  0.26092  0.91538  0.08867  1.0000
  C   C344      1.0  0.26740  0.92400  0.13724  1.0000
  H   H334      1.0  0.44358  0.76438  0.73548  1.0000
  N   N28       1.0  0.38334  0.96069  0.39210  1.0000
  H   H335      1.0  0.26198  0.83834  0.10711  1.0000
  H   H336      1.0  0.42575  0.70503  0.40186  1.0000
  H   H337      1.0  0.30686  0.69414  0.43351  1.0000
  Fe  Fe61      1.0  0.36261  0.67262  0.76801  1.0000
  C   C345      1.0  0.26656  0.90812  0.17938  1.0000
  N   N29       1.0  0.34006  0.79748  0.84188  1.0000
  C   C346      1.0  0.34577  0.77379  0.85637  1.0000
  C   C347      1.0  0.32030  0.80949  0.86234  1.0000
  C   C348      1.0  0.33190  0.76170  0.89320  1.0000
  C   C349      1.0  0.30597  0.79792  0.89917  1.0000
  C   C350      1.0  0.31192  0.77391  0.91478  1.0000
  C   C351      1.0  0.35513  0.80983  0.80375  1.0000
  H   H338      1.0  0.36159  0.76443  0.84059  1.0000
  H   H339      1.0  0.31580  0.82826  0.85091  1.0000
  H   H340      1.0  0.33683  0.74310  0.90527  1.0000
  H   H341      1.0  0.29056  0.80762  0.91611  1.0000
  S   S121      1.0  0.49085  0.86211  0.53322  1.0000
  H   H342      1.0  0.35232  0.83020  0.80433  1.0000
  H   H343      1.0  0.37462  0.80634  0.81237  1.0000
  H   H344      1.0  0.35123  0.80260  0.76465  1.0000
  C   C352      1.0  0.27272  0.67628  0.42211  1.0000
  H   H345      1.0  0.43604  0.72702  0.31727  1.0000
  H   H346      1.0  0.49230  0.87606  0.42519  1.0000
  C   C353      1.0  0.45361  0.75641  0.70216  1.0000
  N   N30       1.0  0.25260  0.87554  0.12451  1.0000
  C   C354      1.0  0.40696  0.78455  0.38182  1.0000
  H   H347      1.0  0.49406  0.92048  0.58790  1.0000
  H   H348      1.0  0.27292  0.94299  0.14225  1.0000
  Fe  Fe62      1.0  0.37348  0.69498  0.87263  1.0000
  H   H349      1.0  0.30119  0.76489  0.94388  1.0000
  H   H350      1.0  0.39088  0.75881  0.43345  1.0000
  C   C355      1.0  0.40264  0.76080  0.40039  1.0000
  S   S122      1.0  0.35955  0.70035  0.95344  1.0000
  C   C356      1.0  0.26195  0.85264  0.88428  1.0000
  H   H351      1.0  0.36852  0.97391  0.52436  1.0000
  H   H352      1.0  0.44237  0.78171  0.61653  1.0000
  H   H353      1.0  0.27133  0.91469  0.21741  1.0000
  H   H354      1.0  0.42149  0.96589  0.39183  1.0000
  C   C357      1.0  0.36325  0.67908  0.04881  1.0000
  H   H355      1.0  0.30094  0.67383  0.60420  1.0000
  C   C358      1.0  0.40602  0.74745  0.96780  1.0000
  H   H356      1.0  0.48454  0.91889  0.49500  1.0000
  H   H357      1.0  0.40227  0.92648  0.40387  1.0000
  C   C359      1.0  0.49169  0.67794  0.75571  1.0000
  H   H358      1.0  0.26158  0.92750  0.05562  1.0000
  H   H359      1.0  0.39869  0.80055  0.40050  1.0000
  C   C360      1.0  0.36091  0.97174  0.39498  1.0000
  S   S123      1.0  0.43364  0.67275  0.31059  1.0000
  C   C361      1.0  0.28276  0.97196  0.01928  1.0000
  H   H360      1.0  0.45805  0.97197  0.51559  1.0000
  H   H361      1.0  0.42453  0.74970  0.95209  1.0000
  C   C362      1.0  0.47316  0.70492  0.81932  1.0000
  C   C363      1.0  0.29691  0.97333  0.06374  1.0000
  S   S124      1.0  0.25780  0.69448  0.46924  1.0000
  H   H362      1.0  0.46591  0.81495  0.57588  1.0000
  H   H363      1.0  0.30143  0.67836  0.53539  1.0000
  C   C364      1.0  0.43267  0.76672  0.31622  1.0000
  H   H364      1.0  0.46409  0.78877  0.88707  1.0000
  C   C365      1.0  0.28846  0.95436  0.98147  1.0000
  H   H365      1.0  0.27753  0.95320  0.94702  1.0000
  S   S125      1.0  0.35096  0.70826  0.80611  1.0000
  H   H366      1.0  0.37032  0.92417  0.40379  1.0000
  H   H367      1.0  0.35729  0.77637  0.09930  1.0000
  H   H368      1.0  0.43672  0.77879  0.01265  1.0000
  C   C366      1.0  0.42217  0.78752  0.33963  1.0000
  H   H369      1.0  0.49861  0.85604  0.87728  1.0000
  H   H370      1.0  0.46556  0.74101  0.71590  1.0000
  C   C367      1.0  0.47259  0.80583  0.61046  1.0000
  C   C368      1.0  0.37195  0.67925  0.99820  1.0000
  H   H371      1.0  0.25849  0.87150  0.20513  1.0000
  H   H372      1.0  0.45936  0.70843  0.84789  1.0000
  C   C369      1.0  0.40847  0.71564  0.39686  1.0000
  H   H373      1.0  0.48411  0.87237  0.92917  1.0000
  N   N31       1.0  0.46782  0.77562  0.67726  1.0000
  C   C370      1.0  0.31717  0.95768  0.06970  1.0000
  C   C371      1.0  0.42607  0.99523  0.52020  1.0000
  N   N32       1.0  0.41322  0.74052  0.37756  1.0000
  C   C372      1.0  0.40371  0.97467  0.39334  1.0000
  H   H374      1.0  0.38609  0.92905  0.34363  1.0000
  Fe  Fe63      1.0  0.41422  0.67777  0.80352  1.0000
  H   H375      1.0  0.39913  0.71606  0.43466  1.0000
  H   H376      1.0  0.39296  0.75281  0.93704  1.0000
  C   C373      1.0  0.40081  0.99572  0.52305  1.0000
  H   H377      1.0  0.49556  0.77394  0.73422  1.0000
  S   S126      1.0  0.49255  0.81769  0.96005  1.0000
  C   C374      1.0  0.40192  0.00041  0.39815  1.0000
  H   H378      1.0  0.49626  0.88949  0.87624  1.0000
  H   H379      1.0  0.36614  0.99995  0.08822  1.0000
  C   C375      1.0  0.35846  0.99746  0.39973  1.0000
  C   C376      1.0  0.49122  0.72239  0.81102  1.0000
  S   S127      1.0  0.25837  0.99255  0.00964  1.0000
  H   H380      1.0  0.26042  0.85764  0.80201  1.0000
  C   C377      1.0  0.49454  0.81284  0.63210  1.0000
  H   H381      1.0  0.49109  0.73949  0.83263  1.0000
  H   H382      1.0  0.27396  0.66958  0.56708  1.0000
  C   C378      1.0  0.49927  0.87308  0.90119  1.0000
  H   H383      1.0  0.32876  0.66893  0.36773  1.0000
  C   C379      1.0  0.49923  0.93022  0.50859  1.0000
  Fe  Fe64      1.0  0.73318  0.21132  0.98190  1.0000
  S   S128      1.0  0.70545  0.19812  0.92585  1.0000
  C   C380      1.0  0.69950  0.26953  0.89221  1.0000
  Fe  Fe65      1.0  0.70234  0.19733  0.07503  1.0000
  S   S129      1.0  0.67249  0.18204  0.02644  1.0000
  S   S130      1.0  0.70474  0.19640  0.16176  1.0000
  Fe  Fe66      1.0  0.70269  0.16564  0.97878  1.0000
  S   S131      1.0  0.70778  0.12726  0.94752  1.0000
  Fe  Fe67      1.0  0.67785  0.21602  0.97812  1.0000
  S   S132      1.0  0.64873  0.24171  0.94559  1.0000
  S   S133      1.0  0.73203  0.17777  0.03168  1.0000
  S   S134      1.0  0.70604  0.23244  0.02999  1.0000
  Fe  Fe68      1.0  0.58540  0.16111  0.47637  1.0000
  S   S135      1.0  0.61877  0.15772  0.52553  1.0000
  S   S136      1.0  0.54998  0.16215  0.51880  1.0000
  Fe  Fe69      1.0  0.61430  0.16645  0.37722  1.0000
  S   S137      1.0  0.64965  0.16377  0.41882  1.0000
  S   S138      1.0  0.61106  0.17338  0.29176  1.0000
  Fe  Fe70      1.0  0.63238  0.13275  0.46204  1.0000
  S   S139      1.0  0.65319  0.09665  0.47063  1.0000
  Fe  Fe71      1.0  0.63242  0.18893  0.47750  1.0000
  S   S140      1.0  0.64899  0.22540  0.49914  1.0000
  S   S141      1.0  0.59787  0.13378  0.41657  1.0000
  S   S142      1.0  0.59807  0.19390  0.43262  1.0000
  H   H384      1.0  0.58362  0.18290  0.97890  1.0000
  S   S143      1.0  0.65943  0.26162  0.73010  1.0000
  H   H385      1.0  0.62621  0.19640  0.98123  1.0000
  C   C381      1.0  0.54609  0.29559  0.74634  1.0000
  H   H386      1.0  0.60432  0.25560  0.30062  1.0000
  C   C382      1.0  0.56764  0.29969  0.71990  1.0000
  H   H387      1.0  0.70638  0.23468  0.33138  1.0000
  H   H388      1.0  0.57331  0.28732  0.68941  1.0000
  C   C383      1.0  0.65172  0.23499  0.56371  1.0000
  C   C384      1.0  0.64743  0.21893  0.60463  1.0000
  C   C385      1.0  0.64970  0.22735  0.65559  1.0000
  C   C386      1.0  0.65605  0.25188  0.66584  1.0000
  C   C387      1.0  0.65994  0.26802  0.62494  1.0000
  C   C388      1.0  0.65792  0.25954  0.57404  1.0000
  H   H389      1.0  0.64277  0.19994  0.59705  1.0000
  H   H390      1.0  0.64674  0.21475  0.68712  1.0000
  H   H391      1.0  0.66492  0.28693  0.63247  1.0000
  H   H392      1.0  0.66125  0.27206  0.54254  1.0000
  C   C389      1.0  0.52452  0.15324  0.48339  1.0000
  S   S144      1.0  0.64642  0.31295  0.82081  1.0000
  C   C390      1.0  0.52585  0.14921  0.43031  1.0000
  H   H393      1.0  0.55510  0.19164  0.82581  1.0000
  H   H394      1.0  0.54251  0.15253  0.40992  1.0000
  C   C391      1.0  0.61069  0.02870  0.51914  1.0000
  C   C392      1.0  0.59924  0.05204  0.51783  1.0000
  C   C393      1.0  0.61208  0.07299  0.50257  1.0000
  C   C394      1.0  0.63650  0.07069  0.48913  1.0000
  C   C395      1.0  0.64790  0.04732  0.49017  1.0000
  C   C396      1.0  0.63498  0.02632  0.50464  1.0000
  H   H395      1.0  0.58043  0.05380  0.52848  1.0000
  H   H396      1.0  0.60326  0.09096  0.50166  1.0000
  H   H397      1.0  0.66683  0.04546  0.48015  1.0000
  C   C397      1.0  0.50791  0.07806  0.44905  1.0000
  C   C398      1.0  0.71075  0.10626  0.99852  1.0000
  C   C399      1.0  0.70015  0.11169  0.04606  1.0000
  C   C400      1.0  0.70276  0.09505  0.08699  1.0000
  C   C401      1.0  0.71692  0.07349  0.08124  1.0000
  C   C402      1.0  0.72785  0.06818  0.03392  1.0000
  C   C403      1.0  0.72436  0.08435  0.99224  1.0000
  H   H398      1.0  0.68947  0.12848  0.05099  1.0000
  H   H399      1.0  0.69395  0.09907  0.12324  1.0000
  H   H400      1.0  0.73900  0.30193  0.93813  1.0000
  H   H401      1.0  0.56055  0.23438  0.79451  1.0000
  H   H402      1.0  0.59090  0.16632  0.85203  1.0000
  C   C404      1.0  0.50296  0.33367  0.16754  1.0000
  C   C405      1.0  0.67876  0.18762  0.19570  1.0000
  C   C406      1.0  0.68107  0.18044  0.24727  1.0000
  C   C407      1.0  0.66048  0.17537  0.27668  1.0000
  C   C408      1.0  0.63742  0.17744  0.25477  1.0000
  C   C409      1.0  0.63516  0.18407  0.20281  1.0000
  C   C410      1.0  0.65577  0.18914  0.17330  1.0000
  H   H403      1.0  0.69879  0.17923  0.26484  1.0000
  H   H404      1.0  0.66251  0.17013  0.31638  1.0000
  H   H405      1.0  0.61739  0.18559  0.18547  1.0000
  H   H406      1.0  0.65378  0.19474  0.13361  1.0000
  C   C411      1.0  0.56996  0.21637  0.94367  1.0000
  C   C412      1.0  0.57611  0.23967  0.92510  1.0000
  C   C413      1.0  0.60023  0.24732  0.92651  1.0000
  C   C414      1.0  0.61848  0.23180  0.94665  1.0000
  C   C415      1.0  0.61237  0.20860  0.96577  1.0000
  C   C416      1.0  0.58818  0.20096  0.96441  1.0000
  H   H407      1.0  0.56239  0.25172  0.90902  1.0000
  H   H408      1.0  0.60470  0.26516  0.91106  1.0000
  H   H409      1.0  0.60328  0.25958  0.74433  1.0000
  C   C417      1.0  0.66584  0.02457  0.35643  1.0000
  C   C418      1.0  0.53019  0.31943  0.23656  1.0000
  H   H410      1.0  0.52091  0.20513  0.61636  1.0000
  C   C419      1.0  0.57634  0.22317  0.80465  1.0000
  C   C420      1.0  0.55141  0.25713  0.60688  1.0000
  C   C421      1.0  0.73207  0.28351  0.94901  1.0000
  H   H411      1.0  0.68980  0.05455  0.23233  1.0000
  H   H412      1.0  0.63234  0.29763  0.92878  1.0000
  S   S145      1.0  0.54009  0.20544  0.93894  1.0000
  H   H413      1.0  0.53798  0.26981  0.62299  1.0000
  C   C422      1.0  0.73911  0.14038  0.18297  1.0000
  H   H414      1.0  0.52205  0.30884  0.80587  1.0000
  H   H415      1.0  0.74974  0.07312  0.25501  1.0000
  S   S146      1.0  0.52918  0.26948  0.73145  1.0000
  C   C423      1.0  0.67346  0.06108  0.30631  1.0000
  H   H416      1.0  0.58633  0.27038  0.80010  1.0000
  Fe  Fe72      1.0  0.66433  0.30234  0.74673  1.0000
  C   C424      1.0  0.61888  0.21890  0.81579  1.0000
  C   C425      1.0  0.53894  0.31161  0.78599  1.0000
  H   H417      1.0  0.67272  0.08104  0.30206  1.0000
  H   H418      1.0  0.65939  0.01591  0.39140  1.0000
  C   C426      1.0  0.52709  0.22226  0.63571  1.0000
  H   H419      1.0  0.71719  0.28653  0.97712  1.0000
  C   C427      1.0  0.50280  0.14918  0.50934  1.0000
  C   C428      1.0  0.67528  0.01008  0.31631  1.0000
  N   N33       1.0  0.50786  0.32820  0.22180  1.0000
  C   C429      1.0  0.57315  0.19896  0.82179  1.0000
  N   N34       1.0  0.68359  0.02085  0.27229  1.0000
  N   N35       1.0  0.53091  0.08674  0.52529  1.0000
  H   H420      1.0  0.73262  0.10183  0.17177  1.0000
  C   C430      1.0  0.66489  0.05024  0.35125  1.0000
  H   H421      1.0  0.61840  0.26664  0.80377  1.0000
  H   H422      1.0  0.63207  0.18390  0.84548  1.0000
  C   C431      1.0  0.60183  0.25865  0.78687  1.0000
  H   H423      1.0  0.63682  0.22664  0.81391  1.0000
  H   H424      1.0  0.60654  0.22757  0.26218  1.0000
  H   H425      1.0  0.60151  0.22527  0.32936  1.0000
  H   H426      1.0  0.59991  0.21247  0.55139  1.0000
  C   C432      1.0  0.68297  0.04602  0.26709  1.0000
  H   H427      1.0  0.67217  0.25700  0.83959  1.0000
  H   H428      1.0  0.65343  0.30813  0.06266  1.0000
  S   S147      1.0  0.69886  0.32160  0.76693  1.0000
  N   N36       1.0  0.59895  0.23299  0.80308  1.0000
  H   H429      1.0  0.71440  0.00454  0.23658  1.0000
  C   C433      1.0  0.69138  0.25787  0.84761  1.0000
  H   H430      1.0  0.54252  0.11549  0.57420  1.0000
  S   S148      1.0  0.59445  0.00278  0.53958  1.0000
  H   H431      1.0  0.74601  0.24087  0.79812  1.0000
  C   C434      1.0  0.64762  0.30072  0.02482  1.0000
  S   S149      1.0  0.51669  0.26811  0.87983  1.0000
  N   N37       1.0  0.54837  0.23213  0.60982  1.0000
  C   C435      1.0  0.61633  0.19466  0.83328  1.0000
  C   C436      1.0  0.55035  0.09995  0.55129  1.0000
  H   H432      1.0  0.59939  0.32177  0.71472  1.0000
  C   C437      1.0  0.74338  0.11522  0.19198  1.0000
  C   C438      1.0  0.58635  0.22517  0.56689  1.0000
  H   H433      1.0  0.54467  0.31730  0.20875  1.0000
  H   H434      1.0  0.66403  0.29907  0.00031  1.0000
  C   C439      1.0  0.70816  0.24752  0.81345  1.0000
  S   S150      1.0  0.72115  0.05382  0.13419  1.0000
  C   C440      1.0  0.73280  0.24890  0.82434  1.0000
  H   H435      1.0  0.68629  0.27779  0.91810  1.0000
  C   C441      1.0  0.57198  0.26675  0.58348  1.0000
  H   H436      1.0  0.53151  0.21817  0.67655  1.0000
  H   H437      1.0  0.70202  0.23860  0.77847  1.0000
  H   H438      1.0  0.55297  0.30788  0.29999  1.0000
  H   H439      1.0  0.73244  0.08004  0.95538  1.0000
  N   N38       1.0  0.63731  0.23537  0.30846  1.0000
  C   C442      1.0  0.64626  0.23241  0.35721  1.0000
  C   C443      1.0  0.65267  0.23873  0.26796  1.0000
  C   C444      1.0  0.67120  0.23209  0.36620  1.0000
  C   C445      1.0  0.67772  0.23862  0.27557  1.0000
  C   C446      1.0  0.68700  0.23515  0.32502  1.0000
  C   C447      1.0  0.61111  0.23618  0.29977  1.0000
  H   H440      1.0  0.63414  0.23013  0.38952  1.0000
  H   H441      1.0  0.64561  0.24087  0.22925  1.0000
  H   H442      1.0  0.67813  0.22940  0.40494  1.0000
  H   H443      1.0  0.68983  0.24048  0.24301  1.0000
  C   C448      1.0  0.59327  0.18475  0.83670  1.0000
  H   H444      1.0  0.53940  0.10059  0.45079  1.0000
  C   C449      1.0  0.62352  0.31259  0.94979  1.0000
  H   H445      1.0  0.60549  0.25776  0.54470  1.0000
  H   H446      1.0  0.57439  0.28658  0.58149  1.0000
  H   H447      1.0  0.56357  0.19638  0.59427  1.0000
  C   C450      1.0  0.56570  0.21619  0.59095  1.0000
  H   H448      1.0  0.74969  0.20108  0.87118  1.0000
  H   H449      1.0  0.65757  0.06174  0.38204  1.0000
  C   C451      1.0  0.58947  0.25061  0.56313  1.0000
  N   N39       1.0  0.72369  0.27062  0.90288  1.0000
  C   C452      1.0  0.51554  0.07281  0.55388  1.0000
  C   C453      1.0  0.51666  0.31710  0.32456  1.0000
  C   C454      1.0  0.52742  0.08932  0.47344  1.0000
  H   H450      1.0  0.56326  0.10795  0.52343  1.0000
  H   H451      1.0  0.72516  0.14639  0.15602  1.0000
  H   H452      1.0  0.64396  0.00840  0.50561  1.0000
  H   H453      1.0  0.73864  0.05144  0.02920  1.0000
  H   H454      1.0  0.74657  0.27259  0.96857  1.0000
  C   C455      1.0  0.69446  0.00552  0.23155  1.0000
  H   H455      1.0  0.64013  0.28197  0.03031  1.0000
  Fe  Fe73      1.0  0.51205  0.22778  0.89454  1.0000
  C   C456      1.0  0.53495  0.31382  0.28813  1.0000
  H   H456      1.0  0.56078  0.08735  0.57711  1.0000
  C   C457      1.0  0.58256  0.31909  0.73460  1.0000
  N   N40       1.0  0.62953  0.31688  0.99998  1.0000
  C   C458      1.0  0.74029  0.26065  0.86947  1.0000
  H   H457      1.0  0.50455  0.08107  0.40835  1.0000
  H   H458      1.0  0.52033  0.31364  0.36492  1.0000
  Fe  Fe74      1.0  0.50666  0.25841  0.79901  1.0000
  H   H459      1.0  0.69044  0.01336  0.19285  1.0000
  H   H460      1.0  0.60162  0.32435  0.88484  1.0000
  C   C459      1.0  0.55359  0.33148  0.79978  1.0000
  H   H461      1.0  0.51809  0.07106  0.59507  1.0000
  C   C460      1.0  0.50558  0.14050  0.40357  1.0000
  H   H462      1.0  0.50159  0.15254  0.55029  1.0000
  S   S151      1.0  0.69386  0.33172  0.91883  1.0000
  H   H463      1.0  0.50672  0.13708  0.36262  1.0000
  H   H464      1.0  0.51167  0.23577  0.63520  1.0000
  S   S152      1.0  0.50486  0.21764  0.81221  1.0000
  C   C461      1.0  0.60628  0.32760  0.92481  1.0000
  H   H465      1.0  0.75008  0.17731  0.20160  1.0000
  Fe  Fe75      1.0  0.59809  0.59323  0.22281  1.0000
  S   S153      1.0  0.59713  0.59536  0.30868  1.0000
  S   S154      1.0  0.60688  0.55831  0.17840  1.0000
  Fe  Fe76      1.0  0.56388  0.61924  0.29781  1.0000
  H   H466      1.0  0.55004  0.42431  0.37295  1.0000
  S   S155      1.0  0.62033  0.62717  0.21214  1.0000
  S   S156      1.0  0.56304  0.61383  0.21276  1.0000
  H   H467      1.0  0.62762  0.61767  0.57075  1.0000
  S   S157      1.0  0.66442  0.36962  0.80174  1.0000
  C   C462      1.0  0.56917  0.45014  0.26161  1.0000
  H   H468      1.0  0.58554  0.45324  0.23978  1.0000
  H   H469      1.0  0.56718  0.64370  0.41103  1.0000
  Fe  Fe77      1.0  0.68135  0.35505  0.72908  1.0000
  S   S158      1.0  0.69895  0.37999  0.67047  1.0000
  N   N41       1.0  0.59513  0.63553  0.46614  1.0000
  S   S159      1.0  0.59489  0.35847  0.79466  1.0000
  Fe  Fe78      1.0  0.63310  0.34643  0.77913  1.0000
  Fe  Fe79      1.0  0.64656  0.39694  0.16653  1.0000
  S   S160      1.0  0.65757  0.36225  0.20816  1.0000
  S   S161      1.0  0.63874  0.39937  0.08135  1.0000
  Fe  Fe80      1.0  0.64066  0.42669  0.26594  1.0000
  S   S162      1.0  0.65111  0.39429  0.31560  1.0000
  S   S163      1.0  0.62952  0.46168  0.30756  1.0000
  Fe  Fe81      1.0  0.68040  0.38722  0.25739  1.0000
  S   S164      1.0  0.72061  0.38203  0.27367  1.0000
  Fe  Fe82      1.0  0.62731  0.37275  0.26230  1.0000
  S   S165      1.0  0.59889  0.34643  0.28939  1.0000
  S   S166      1.0  0.67148  0.42143  0.21103  1.0000
  S   S167      1.0  0.61472  0.40561  0.21741  1.0000
  Fe  Fe83      1.0  0.71028  0.56101  0.59416  1.0000
  S   S168      1.0  0.71843  0.56108  0.67981  1.0000
  S   S169      1.0  0.67585  0.57782  0.55756  1.0000
  Fe  Fe84      1.0  0.72329  0.51982  0.67131  1.0000
  S   S170      1.0  0.70978  0.49287  0.73047  1.0000
  S   S171      1.0  0.71199  0.51952  0.58869  1.0000
  C   C463      1.0  0.52519  0.37835  0.33722  1.0000
  C   C464      1.0  0.53267  0.38042  0.28593  1.0000
  C   C465      1.0  0.55603  0.37216  0.27141  1.0000
  C   C466      1.0  0.57162  0.36122  0.30790  1.0000
  C   C467      1.0  0.56409  0.35941  0.35900  1.0000
  C   C468      1.0  0.54118  0.36832  0.37373  1.0000
  S   S172      1.0  0.53120  0.61153  0.34640  1.0000
  H   H470      1.0  0.56170  0.37340  0.23172  1.0000
  C   C469      1.0  0.63137  0.65913  0.47331  1.0000
  H   H471      1.0  0.53558  0.36681  0.41346  1.0000
  C   C470      1.0  0.67967  0.35155  0.96389  1.0000
  C   C471      1.0  0.66136  0.36808  0.94849  1.0000
  C   C472      1.0  0.64976  0.38338  0.98474  1.0000
  C   C473      1.0  0.65586  0.38181  0.03697  1.0000
  C   C474      1.0  0.67417  0.36526  0.05266  1.0000
  C   C475      1.0  0.68618  0.35027  0.01605  1.0000
  H   H472      1.0  0.65594  0.36902  0.90872  1.0000
  H   H473      1.0  0.63554  0.39607  0.97244  1.0000
  H   H474      1.0  0.67903  0.36400  0.09290  1.0000
  S   S173      1.0  0.65073  0.63541  0.34991  1.0000
  C   C476      1.0  0.70407  0.41098  0.68825  1.0000
  C   C477      1.0  0.71011  0.42827  0.65036  1.0000
  C   C478      1.0  0.71285  0.45335  0.66315  1.0000
  C   C479      1.0  0.70939  0.46128  0.71390  1.0000
  C   C480      1.0  0.70397  0.44390  0.75191  1.0000
  C   C481      1.0  0.70143  0.41885  0.73919  1.0000
  H   H475      1.0  0.71221  0.42242  0.61085  1.0000
  H   H476      1.0  0.71711  0.46660  0.63358  1.0000
  H   H477      1.0  0.70158  0.44985  0.79135  1.0000
  H   H478      1.0  0.69743  0.40568  0.76893  1.0000
  C   C482      1.0  0.68075  0.62121  0.42979  1.0000
  C   C483      1.0  0.68713  0.60804  0.47479  1.0000
  C   C484      1.0  0.67141  0.59063  0.49520  1.0000
  C   C485      1.0  0.64978  0.58583  0.46871  1.0000
  C   C486      1.0  0.64359  0.59870  0.42325  1.0000
  H   H479      1.0  0.69269  0.63524  0.41543  1.0000
  H   H480      1.0  0.70365  0.61224  0.49512  1.0000
  H   H481      1.0  0.63739  0.57255  0.48430  1.0000
  C   C487      1.0  0.50452  0.62922  0.33645  1.0000
  H   H482      1.0  0.66188  0.59394  0.27561  1.0000
  C   C488      1.0  0.61007  0.65322  0.44729  1.0000
  C   C489      1.0  0.61118  0.53077  0.21353  1.0000
  C   C490      1.0  0.60572  0.52972  0.26593  1.0000
  C   C491      1.0  0.61102  0.50823  0.29418  1.0000
  C   C492      1.0  0.62164  0.48757  0.27011  1.0000
  C   C493      1.0  0.62638  0.48820  0.21734  1.0000
  C   C494      1.0  0.62117  0.50981  0.18912  1.0000
  H   H483      1.0  0.59742  0.54542  0.28484  1.0000
  H   H484      1.0  0.60710  0.50772  0.33492  1.0000
  H   H485      1.0  0.63453  0.47227  0.19846  1.0000
  H   H486      1.0  0.62534  0.51045  0.14849  1.0000
  C   C495      1.0  0.73380  0.37025  0.33072  1.0000
  C   C496      1.0  0.56763  0.66347  0.98105  1.0000
  H   H487      1.0  0.65455  0.65011  0.53768  1.0000
  H   H488      1.0  0.72182  0.33674  0.43827  1.0000
  C   C497      1.0  0.60144  0.35131  0.00284  1.0000
  Fe  Fe85      1.0  0.61747  0.63022  0.29886  1.0000
  C   C498      1.0  0.73179  0.40990  0.44613  1.0000
  H   H489      1.0  0.62669  0.59504  0.40408  1.0000
  H   H490      1.0  0.51064  0.61136  0.23656  1.0000
  N   N42       1.0  0.67193  0.55777  0.30191  1.0000
  C   C499      1.0  0.68337  0.56613  0.34507  1.0000
  C   C500      1.0  0.66719  0.53319  0.29638  1.0000
  C   C501      1.0  0.68902  0.54999  0.38554  1.0000
  C   C502      1.0  0.67260  0.51650  0.33600  1.0000
  C   C503      1.0  0.68340  0.52504  0.38103  1.0000
  C   C504      1.0  0.66578  0.57505  0.26033  1.0000
  H   H491      1.0  0.68800  0.58544  0.34852  1.0000
  C   C505      1.0  0.50236  0.64077  0.18368  1.0000
  H   H492      1.0  0.69755  0.55681  0.42032  1.0000
  H   H493      1.0  0.66828  0.49709  0.33181  1.0000
  H   H494      1.0  0.68754  0.51235  0.41226  1.0000
  C   C506      1.0  0.65877  0.61694  0.40419  1.0000
  H   H495      1.0  0.64921  0.56925  0.23961  1.0000
  H   H496      1.0  0.54806  0.34379  0.83060  1.0000
  N   N43       1.0  0.64164  0.45516  0.73931  1.0000
  C   C507      1.0  0.64878  0.44326  0.69523  1.0000
  C   C508      1.0  0.62812  0.44321  0.77521  1.0000
  C   C509      1.0  0.64211  0.41883  0.68595  1.0000
  C   C510      1.0  0.62085  0.41890  0.76682  1.0000
  C   C511      1.0  0.62785  0.40671  0.72180  1.0000
  C   C512      1.0  0.64917  0.48054  0.74952  1.0000
  H   H497      1.0  0.66017  0.45242  0.66750  1.0000
  H   H498      1.0  0.62297  0.45242  0.81073  1.0000
  H   H499      1.0  0.64844  0.40917  0.65175  1.0000
  H   H500      1.0  0.61011  0.40942  0.79531  1.0000
  H   H501      1.0  0.62253  0.38775  0.71522  1.0000
  H   H502      1.0  0.63358  0.49224  0.76217  1.0000
  H   H503      1.0  0.66335  0.48055  0.77991  1.0000
  H   H504      1.0  0.65701  0.48933  0.71480  1.0000
  C   C513      1.0  0.59536  0.34719  0.95145  1.0000
  H   H505      1.0  0.58976  0.60829  0.52404  1.0000
  H   H506      1.0  0.54605  0.46853  0.20693  1.0000
  C   C514      1.0  0.52715  0.44271  0.31689  1.0000
  H   H507      1.0  0.55843  0.65152  0.00785  1.0000
  C   C515      1.0  0.54931  0.43412  0.33660  1.0000
  H   H508      1.0  0.57593  0.35084  0.38724  1.0000
  H   H509      1.0  0.70038  0.33756  0.02827  1.0000
  H   H510      1.0  0.65900  0.52639  0.26132  1.0000
  C   C516      1.0  0.71642  0.39713  0.47879  1.0000
  H   H511      1.0  0.57721  0.61188  0.41392  1.0000
  N   N44       1.0  0.52606  0.45448  0.27037  1.0000
  C   C517      1.0  0.57040  0.43767  0.30847  1.0000
  H   H512      1.0  0.70138  0.35438  0.36081  1.0000
  H   H513      1.0  0.69796  0.39360  0.46710  1.0000
  H   H514      1.0  0.52216  0.66133  0.30655  1.0000
  H   H515      1.0  0.60167  0.66101  0.02134  1.0000
  H   H516      1.0  0.51079  0.43953  0.33876  1.0000
  H   H517      1.0  0.58769  0.43081  0.32297  1.0000
  H   H518      1.0  0.68090  0.57591  0.23244  1.0000
  C   C518      1.0  0.50504  0.65316  0.31615  1.0000
  H   H519      1.0  0.58243  0.35930  0.93196  1.0000
  S   S174      1.0  0.74942  0.56575  0.57316  1.0000
  C   C519      1.0  0.54676  0.45865  0.24319  1.0000
  C   C520      1.0  0.62237  0.62829  0.53697  1.0000
  C   C521      1.0  0.72049  0.35719  0.36700  1.0000
  C   C522      1.0  0.72526  0.38824  0.52587  1.0000
  H   H520      1.0  0.51809  0.65145  0.19414  1.0000
  H   H521      1.0  0.62359  0.33957  0.06633  1.0000
  H   H522      1.0  0.55811  0.62490  0.46362  1.0000
  C   C523      1.0  0.63756  0.64650  0.51832  1.0000
  H   H523      1.0  0.71338  0.37796  0.55087  1.0000
  H   H524      1.0  0.52055  0.38838  0.25757  1.0000
  C   C524      1.0  0.57342  0.62870  0.43735  1.0000
  C   C525      1.0  0.60112  0.62296  0.51014  1.0000
  C   C526      1.0  0.73212  0.34719  0.41075  1.0000
  H   H525      1.0  0.59363  0.36692  0.02368  1.0000
  S   S175      1.0  0.58387  0.65482  0.29483  1.0000
  Fe  Fe86      1.0  0.58478  0.64857  0.20857  1.0000
  N   N45       1.0  0.74869  0.39222  0.54013  1.0000
  H   H526      1.0  0.72534  0.41630  0.40889  1.0000
  H   H527      1.0  0.50220  0.46337  0.20797  1.0000
  C   C527      1.0  0.61855  0.33576  0.02678  1.0000
  H   H528      1.0  0.74390  0.38374  0.61936  1.0000
  H   H529      1.0  0.60601  0.66238  0.41110  1.0000
  C   C528      1.0  0.50276  0.46376  0.25074  1.0000
  Fe  Fe87      1.0  0.67919  0.33488  0.83789  1.0000
  C   C529      1.0  0.57559  0.33499  0.77459  1.0000
  H   H530      1.0  0.51976  0.33790  0.14622  1.0000
  S   S176      1.0  0.64838  0.33452  0.70318  1.0000
  Fe  Fe88      1.0  0.63017  0.91457  0.54957  1.0000
  S   S177      1.0  0.63896  0.90456  0.46707  1.0000
  S   S178      1.0  0.63671  0.88375  0.60860  1.0000
  Fe  Fe89      1.0  0.61269  0.96663  0.51836  1.0000
  S   S179      1.0  0.61901  0.95994  0.43463  1.0000
  H   H531      1.0  0.55293  0.96878  0.55565  1.0000
  Fe  Fe90      1.0  0.60302  0.92285  0.44999  1.0000
  S   S180      1.0  0.57376  0.90797  0.39889  1.0000
  Fe  Fe91      1.0  0.65440  0.94271  0.45914  1.0000
  S   S181      1.0  0.68975  0.95753  0.42619  1.0000
  S   S182      1.0  0.59367  0.93103  0.53205  1.0000
  S   S183      1.0  0.64879  0.95130  0.54357  1.0000
  Fe  Fe92      1.0  0.56350  0.81508  0.84101  1.0000
  S   S184      1.0  0.55874  0.81232  0.92712  1.0000
  S   S185      1.0  0.57434  0.85177  0.80409  1.0000
  Fe  Fe93      1.0  0.53896  0.76594  0.82577  1.0000
  S   S186      1.0  0.53126  0.75935  0.90936  1.0000
  C   C530      1.0  0.73640  0.96936  0.30811  1.0000
  Fe  Fe94      1.0  0.52112  0.79973  0.90995  1.0000
  H   H532      1.0  0.53412  0.70502  0.87371  1.0000
  Fe  Fe95      1.0  0.56922  0.77199  0.92135  1.0000
  S   S187      1.0  0.59508  0.75177  0.97649  1.0000
  S   S188      1.0  0.52492  0.80505  0.82494  1.0000
  S   S189      1.0  0.57784  0.77588  0.83673  1.0000
  C   C531      1.0  0.51433  0.87206  0.49325  1.0000
  C   C532      1.0  0.59042  0.69548  0.91442  1.0000
  H   H533      1.0  0.54920  0.86335  0.04259  1.0000
  C   C533      1.0  0.54756  0.86840  0.00236  1.0000
  C   C534      1.0  0.70804  0.93399  0.59620  1.0000
  C   C535      1.0  0.54285  0.87963  0.89884  1.0000
  H   H534      1.0  0.64355  0.67256  0.45719  1.0000
  H   H535      1.0  0.70811  0.92002  0.25632  1.0000
  H   H536      1.0  0.55364  0.68778  0.83056  1.0000
  S   S190      1.0  0.53177  0.73917  0.76206  1.0000
  C   C536      1.0  0.58643  0.73156  0.02707  1.0000
  C   C537      1.0  0.56237  0.72487  0.03442  1.0000
  C   C538      1.0  0.55643  0.70760  0.07277  1.0000
  C   C539      1.0  0.57440  0.69665  0.10421  1.0000
  C   C540      1.0  0.59846  0.70350  0.09727  1.0000
  C   C541      1.0  0.60439  0.72089  0.05901  1.0000
  H   H537      1.0  0.54833  0.73289  0.01037  1.0000
  H   H538      1.0  0.53775  0.70257  0.07789  1.0000
  C   C542      1.0  0.55513  0.67433  0.93974  1.0000
  H   H539      1.0  0.62307  0.72593  0.05377  1.0000
  C   C543      1.0  0.68805  0.86847  0.51801  1.0000
  C   C544      1.0  0.50931  0.69561  0.74643  1.0000
  C   C545      1.0  0.71235  0.93445  0.28355  1.0000
  H   H540      1.0  0.68726  0.87097  0.47562  1.0000
  H   H541      1.0  0.56126  0.71854  0.85078  1.0000
  H   H542      1.0  0.53619  0.67019  0.93408  1.0000
  C   C546      1.0  0.69426  0.89197  0.59714  1.0000
  H   H543      1.0  0.51994  0.80653  0.69402  1.0000
  C   C547      1.0  0.51001  0.87854  0.44188  1.0000
  C   C548      1.0  0.50461  0.93112  0.56092  1.0000
  H   H544      1.0  0.51018  0.94099  0.43291  1.0000
  C   C549      1.0  0.72354  0.97100  0.35481  1.0000
  C   C550      1.0  0.70487  0.95455  0.36608  1.0000
  C   C551      1.0  0.69908  0.93646  0.32982  1.0000
  C   C552      1.0  0.54799  0.96917  0.45351  1.0000
  H   H545      1.0  0.68753  0.98636  0.23225  1.0000
  H   H546      1.0  0.68474  0.92369  0.33780  1.0000
  C   C553      1.0  0.61732  0.87427  0.65945  1.0000
  C   C554      1.0  0.60001  0.89027  0.68132  1.0000
  C   C555      1.0  0.58672  0.88284  0.72483  1.0000
  C   C556      1.0  0.59005  0.85913  0.74631  1.0000
  C   C557      1.0  0.60681  0.84284  0.72345  1.0000
  C   C558      1.0  0.62055  0.85050  0.68074  1.0000
  H   H547      1.0  0.59742  0.90866  0.66578  1.0000
  H   H548      1.0  0.57395  0.89569  0.74227  1.0000
  H   H549      1.0  0.60978  0.82464  0.73968  1.0000
  H   H550      1.0  0.63393  0.83796  0.66438  1.0000
  C   C559      1.0  0.55147  0.89251  0.43405  1.0000
  C   C560      1.0  0.52859  0.88878  0.41233  1.0000
  H   H551      1.0  0.52319  0.69200  0.71795  1.0000
  H   H552      1.0  0.61249  0.69535  0.12121  1.0000
  C   C561      1.0  0.53743  0.87490  0.51421  1.0000
  C   C562      1.0  0.55598  0.88490  0.48456  1.0000
  H   H553      1.0  0.52510  0.89425  0.37296  1.0000
  H   H554      1.0  0.69837  0.91438  0.66516  1.0000
  H   H555      1.0  0.54098  0.86960  0.55366  1.0000
  H   H556      1.0  0.57385  0.88649  0.50081  1.0000
  S   S191      1.0  0.56562  0.67405  0.15000  1.0000
  H   H557      1.0  0.70399  0.91045  0.47566  1.0000
  C   C563      1.0  0.73110  0.95087  0.27241  1.0000
  C   C564      1.0  0.60350  0.68476  0.95499  1.0000
  C   C565      1.0  0.70027  0.91350  0.62368  1.0000
  C   C566      1.0  0.70978  0.93267  0.54275  1.0000
  N   N46       1.0  0.69532  0.89107  0.54462  1.0000
  C   C567      1.0  0.70319  0.91098  0.51736  1.0000
  C   C568      1.0  0.51370  0.94289  0.47375  1.0000
  H   H558      1.0  0.71235  0.95098  0.61613  1.0000
  C   C569      1.0  0.52396  0.94517  0.57798  1.0000
  H   H559      1.0  0.56238  0.95608  0.44028  1.0000
  H   H560      1.0  0.58165  0.88311  0.89850  1.0000
  H   H561      1.0  0.62217  0.68973  0.96164  1.0000
  H   H562      1.0  0.54130  0.88339  0.85796  1.0000
  C   C570      1.0  0.53772  0.95811  0.54219  1.0000
  N   N47       1.0  0.52281  0.87421  0.92706  1.0000
  H   H563      1.0  0.66962  0.86318  0.53070  1.0000
  H   H564      1.0  0.52855  0.94571  0.61852  1.0000
  H   H565      1.0  0.72820  0.98506  0.38255  1.0000
  H   H566      1.0  0.59934  0.70857  0.88960  1.0000
  C   C571      1.0  0.55328  0.70086  0.86353  1.0000
  H   H567      1.0  0.70096  0.85311  0.52694  1.0000
  H   H568      1.0  0.55673  0.98560  0.47065  1.0000
  H   H569      1.0  0.68781  0.87624  0.61871  1.0000
  N   N48       1.0  0.56652  0.69027  0.90738  1.0000
  N   N49       1.0  0.53247  0.95685  0.49081  1.0000
  H   H570      1.0  0.50914  0.86366  0.00042  1.0000
  C   C572      1.0  0.56577  0.87959  0.92170  1.0000
  H   H571      1.0  0.67587  0.99016  0.32074  1.0000
  C   C573      1.0  0.56811  0.87388  0.97377  1.0000
  S   S192      1.0  0.74823  0.94692  0.21495  1.0000
  C   C574      1.0  0.52492  0.86863  0.97823  1.0000
  H   H572      1.0  0.53746  0.97557  0.41951  1.0000
  C   C575      1.0  0.50919  0.71774  0.77422  1.0000
  H   H573      1.0  0.71548  0.94860  0.52085  1.0000
  H   H574      1.0  0.58586  0.87315  0.99160  1.0000
  C   C576      1.0  0.59197  0.66872  0.98856  1.0000
  H   H575      1.0  0.50501  0.82729  0.61424  1.0000
  C   C577      1.0  0.50288  0.80124  0.67681  1.0000
  Fe  Fe96      1.0  0.85680  0.18229  0.24800  1.0000
  S   S193      1.0  0.84580  0.21684  0.29126  1.0000
  S   S194      1.0  0.82911  0.16067  0.20317  1.0000
  Fe  Fe97      1.0  0.90960  0.18882  0.27186  1.0000
  S   S195      1.0  0.90350  0.22359  0.31657  1.0000
  S   S196      1.0  0.94572  0.17039  0.26060  1.0000
  Fe  Fe98      1.0  0.87228  0.20376  0.35115  1.0000
  S   S197      1.0  0.86480  0.21106  0.43506  1.0000
  Fe  Fe99      1.0  0.87771  0.23404  0.25341  1.0000
  S   S198      1.0  0.87652  0.27441  0.23195  1.0000
  S   S199      1.0  0.88054  0.16773  0.31151  1.0000
  S   S200      1.0  0.88665  0.20085  0.20486  1.0000
  Fe  Fe100     1.0  0.88633  0.13167  0.67603  1.0000
  S   S201      1.0  0.88460  0.16816  0.71660  1.0000
  S   S202      1.0  0.89242  0.12536  0.59152  1.0000
  Fe  Fe101     1.0  0.88006  0.10246  0.77512  1.0000
  S   S203      1.0  0.87794  0.13661  0.82441  1.0000
  S   S204      1.0  0.87372  0.06508  0.81000  1.0000
  Fe  Fe102     1.0  0.85412  0.15196  0.76182  1.0000
  S   S205      1.0  0.81662  0.16882  0.76833  1.0000
  Fe  Fe103     1.0  0.90872  0.14943  0.77502  1.0000
  S   S206      1.0  0.94179  0.16960  0.80148  1.0000
  S   S207      1.0  0.85399  0.11673  0.71613  1.0000
  S   S208      1.0  0.91270  0.11398  0.73088  1.0000
  S   S209      1.0  0.76630  0.01702  0.20428  1.0000
  C   C578      1.0  0.78364  0.20842  0.90801  1.0000
  C   C579      1.0  0.88108  0.04009  0.76936  1.0000
  H   H576      1.0  0.91499  0.02758  0.85518  1.0000
  C   C580      1.0  0.89301  0.04374  0.72267  1.0000
  C   C581      1.0  0.77377  0.11872  0.93964  1.0000
  H   H577      1.0  0.89792  0.06213  0.71112  1.0000
  C   C582      1.0  0.77454  0.12441  0.25152  1.0000
  N   N50       1.0  0.85423  0.04718  0.61504  1.0000
  C   C583      1.0  0.96756  0.15039  0.81048  1.0000
  C   C584      1.0  0.96549  0.12471  0.81308  1.0000
  C   C585      1.0  0.84140  0.30701  0.34757  1.0000
  H   H578      1.0  0.94785  0.11650  0.81256  1.0000
  C   C586      1.0  0.97117  0.18906  0.25717  1.0000
  C   C587      1.0  0.97224  0.21176  0.28302  1.0000
  N   N51       1.0  0.76105  0.10753  0.22545  1.0000
  H   H579      1.0  0.95686  0.21853  0.30477  1.0000
  C   C588      1.0  0.95847  0.18077  0.39329  1.0000
  C   C589      1.0  0.88127  0.28348  0.16779  1.0000
  C   C590      1.0  0.88301  0.30870  0.15638  1.0000
  C   C591      1.0  0.88498  0.31668  0.10517  1.0000
  C   C592      1.0  0.88473  0.29946  0.06506  1.0000
  C   C593      1.0  0.88356  0.27416  0.07660  1.0000
  C   C594      1.0  0.88220  0.26615  0.12788  1.0000
  H   H580      1.0  0.99281  0.22755  0.43420  1.0000
  H   H581      1.0  0.83435  0.25706  0.42235  1.0000
  H   H582      1.0  0.88329  0.26077  0.04564  1.0000
  H   H583      1.0  0.88097  0.24665  0.13623  1.0000
  C   C595      1.0  0.87202  0.18699  0.47827  1.0000
  C   C596      1.0  0.87115  0.19158  0.53130  1.0000
  C   C597      1.0  0.87712  0.17276  0.56656  1.0000
  C   C598      1.0  0.88427  0.14932  0.54878  1.0000
  C   C599      1.0  0.88520  0.14478  0.49574  1.0000
  C   C600      1.0  0.87892  0.16350  0.46061  1.0000
  H   H584      1.0  0.86598  0.20977  0.54504  1.0000
  H   H585      1.0  0.87633  0.17645  0.60730  1.0000
  H   H586      1.0  0.89061  0.12666  0.48175  1.0000
  H   H587      1.0  0.87925  0.15959  0.41995  1.0000
  C   C601      1.0  0.83116  0.12799  0.20368  1.0000
  C   C602      1.0  0.84555  0.11532  0.23961  1.0000
  C   C603      1.0  0.84550  0.08934  0.24159  1.0000
  C   C604      1.0  0.83108  0.07575  0.20774  1.0000
  C   C605      1.0  0.81699  0.08842  0.17115  1.0000
  C   C606      1.0  0.81700  0.11442  0.16922  1.0000
  H   H588      1.0  0.85648  0.12547  0.26646  1.0000
  H   H589      1.0  0.85652  0.07971  0.26988  1.0000
  H   H590      1.0  0.80595  0.07824  0.14459  1.0000
  H   H591      1.0  0.80577  0.12406  0.14134  1.0000
  C   C607      1.0  0.77959  0.18717  0.82638  1.0000
  C   C608      1.0  0.80473  0.18384  0.82311  1.0000
  C   C609      1.0  0.81945  0.19297  0.86232  1.0000
  C   C610      1.0  0.80892  0.20571  0.90424  1.0000
  H   H592      1.0  0.76811  0.18040  0.79589  1.0000
  H   H593      1.0  0.83889  0.19061  0.85996  1.0000
  H   H594      1.0  0.88237  0.07320  0.61640  1.0000
  C   C611      1.0  0.81750  0.31592  0.34565  1.0000
  H   H595      1.0  0.76127  0.12100  0.97154  1.0000
  H   H596      1.0  0.81303  0.33280  0.32495  1.0000
  C   C612      1.0  0.93583  0.18909  0.41075  1.0000
  C   C613      1.0  0.95450  0.22550  0.44504  1.0000
  C   C614      1.0  0.93388  0.21159  0.43683  1.0000
  H   H597      1.0  0.79929  0.09663  0.98251  1.0000
  C   C615      1.0  0.83360  0.08783  0.91138  1.0000
  C   C616      1.0  0.76814  0.12916  0.89202  1.0000
  H   H598      1.0  0.90758  0.02633  0.65434  1.0000
  S   S210      1.0  0.77042  0.22461  0.96013  1.0000
  H   H599      1.0  0.78210  0.16305  0.26278  1.0000
  H   H600      1.0  0.95972  0.16340  0.37240  1.0000
  C   C617      1.0  0.87744  0.32433  0.68860  1.0000
  C   C618      1.0  0.91963  0.31358  0.46270  1.0000
  C   C619      1.0  0.99054  0.16086  0.81327  1.0000
  C   C620      1.0  0.96450  0.15388  0.67858  1.0000
  H   H601      1.0  0.81829  0.11059  0.82651  1.0000
  H   H602      1.0  0.92630  0.30166  0.22819  1.0000
  H   H603      1.0  0.82724  0.21692  0.18400  1.0000
  H   H604      1.0  0.86680  0.07110  0.55561  1.0000
  H   H605      1.0  0.79176  0.27226  0.42038  1.0000
  C   C621      1.0  0.83277  0.02398  0.67850  1.0000
  H   H606      1.0  0.84913  0.09761  0.89412  1.0000
  H   H607      1.0  0.83806  0.08441  0.95248  1.0000
  H   H608      1.0  0.95651  0.02092  0.82217  1.0000
  S   S211      1.0  0.88266  0.30905  0.00050  1.0000
  C   C622      1.0  0.86443  0.07058  0.59804  1.0000
  H   H609      1.0  0.98451  0.08973  0.81997  1.0000
  H   H610      1.0  0.83185  0.06971  0.89162  1.0000
  Fe  Fe104     1.0  0.84934  0.33224  0.57365  1.0000
  N   N52       1.0  0.86594  0.24192  0.72796  1.0000
  H   H611      1.0  0.81666  0.18837  0.11318  1.0000
  C   C623      1.0  0.84900  0.22380  0.72898  1.0000
  H   H612      1.0  0.86507  0.01336  0.81944  1.0000
  H   H613      1.0  0.88352  0.28457  0.34669  1.0000
  C   C624      1.0  0.82563  0.24947  0.13572  1.0000
  C   C625      1.0  0.85106  0.00317  0.60585  1.0000
  H   H614      1.0  0.91989  0.17824  0.40360  1.0000
  C   C626      1.0  0.84126  0.04644  0.65977  1.0000
  C   C627      1.0  0.75303  0.15773  0.20872  1.0000
  C   C628      1.0  0.94011  0.25224  0.20046  1.0000
  S   S212      1.0  0.83052  0.04316  0.21358  1.0000
  C   C629      1.0  0.87247  0.27784  0.37931  1.0000
  S   S213      1.0  0.98712  0.28368  0.45385  1.0000
  H   H615      1.0  0.87396  0.25739  0.37994  1.0000
  C   C630      1.0  0.80557  0.28187  0.39907  1.0000
  C   C631      1.0  0.76509  0.08097  0.23347  1.0000
  C   C632      1.0  0.95233  0.23504  0.16929  1.0000
  H   H616      1.0  0.82038  0.21327  0.93383  1.0000
  C   C633      1.0  0.81807  0.20805  0.10591  1.0000
  C   C634      1.0  0.82399  0.22414  0.14571  1.0000
  H   H617      1.0  0.92127  0.24933  0.20946  1.0000
  H   H618      1.0  0.91640  0.21827  0.45045  1.0000
  C   C635      1.0  0.97665  0.23855  0.15771  1.0000
  H   H619      1.0  0.92734  0.28021  0.28122  1.0000
  H   H620      1.0  0.80878  0.20504  0.02580  1.0000
  S   S214      1.0  0.83990  0.31648  0.49621  1.0000
  H   H621      1.0  0.87060  0.02630  0.55422  1.0000
  H   H622      1.0  0.86748  0.24670  0.80935  1.0000
  N   N53       1.0  0.95184  0.27222  0.22004  1.0000
  C   C636      1.0  0.87123  0.25359  0.68285  1.0000
  C   C637      1.0  0.83642  0.21742  0.68428  1.0000
  C   C638      1.0  0.85887  0.24779  0.63753  1.0000
  C   C639      1.0  0.84132  0.22962  0.63838  1.0000
  H   H623      1.0  0.80451  0.29321  0.07404  1.0000
  S   S215      1.0  0.85581  0.31121  0.64746  1.0000
  H   H624      1.0  0.89495  0.23492  0.77961  1.0000
  H   H625      1.0  0.82294  0.20311  0.68529  1.0000
  H   H626      1.0  0.86263  0.25774  0.60229  1.0000
  H   H627      1.0  0.75947  0.26159  0.87787  1.0000
  H   H628      1.0  0.88232  0.32222  0.18711  1.0000
  C   C640      1.0  0.97562  0.27597  0.20838  1.0000
  C   C641      1.0  0.87931  0.24795  0.77495  1.0000
  C   C642      1.0  0.97770  0.17492  0.69072  1.0000
  C   C643      1.0  0.82965  0.27344  0.40012  1.0000
  H   H629      1.0  0.81210  0.24990  0.00966  1.0000
  C   C644      1.0  0.95713  0.31143  0.39016  1.0000
  C   C645      1.0  0.97665  0.13130  0.67164  1.0000
  C   C646      1.0  0.81570  0.24279  0.04797  1.0000
  H   H630      1.0  0.95083  0.30222  0.27404  1.0000
  C   C647      1.0  0.79536  0.10509  0.94556  1.0000
  H   H631      1.0  0.90529  0.31440  0.49093  1.0000
  C   C648      1.0  0.80581  0.11268  0.85849  1.0000
  C   C649      1.0  0.93850  0.28999  0.25242  1.0000
  C   C650      1.0  0.96028  0.30001  0.43798  1.0000
  C   C651      1.0  0.92529  0.01131  0.86722  1.0000
  C   C652      1.0  0.83776  0.00223  0.65130  1.0000
  C   C653      1.0  0.89849  0.02348  0.69060  1.0000
  C   C654      1.0  0.99121  0.18029  0.22953  1.0000
  N   N54       1.0  0.81119  0.10249  0.90535  1.0000
  N   N55       1.0  0.84717  0.28599  0.37448  1.0000
  C   C655      1.0  0.82302  0.28504  0.07698  1.0000
  C   C656      1.0  0.78415  0.12598  0.85103  1.0000
  C   C657      1.0  0.85939  0.02591  0.58839  1.0000
  H   H632      1.0  0.78217  0.07692  0.25480  1.0000
  C   C658      1.0  0.76908  0.19889  0.86913  1.0000
  S   S216      1.0  0.78927  0.03432  0.09271  1.0000
  H   H633      1.0  0.82321  0.02333  0.71485  1.0000
  H   H634      1.0  0.96800  0.19219  0.69781  1.0000
  H   H635      1.0  0.99046  0.16269  0.20978  1.0000
  H   H636      1.0  0.76661  0.07141  0.19571  1.0000
  H   H637      1.0  0.85540  0.31719  0.32803  1.0000
  H   H638      1.0  0.88470  0.26792  0.68179  1.0000
  H   H639      1.0  0.88610  0.26719  0.77375  1.0000
  H   H640      1.0  0.84512  0.21414  0.76445  1.0000
  C   C659      1.0  0.81381  0.21739  0.05677  1.0000
  H   H641      1.0  0.88911  0.33267  0.81650  1.0000
  N   N56       1.0  0.82177  0.25843  0.08711  1.0000
  C   C660      1.0  0.87472  0.32262  0.74211  1.0000
  H   H642      1.0  0.83811  0.06312  0.68214  1.0000
  C   C661      1.0  0.94880  0.00770  0.84849  1.0000
  C   C662      1.0  0.94143  0.30100  0.47401  1.0000
  C   C663      1.0  0.97689  0.21660  0.42724  1.0000
  H   H643      1.0  0.94316  0.21878  0.15525  1.0000
  H   H644      1.0  0.83301  0.29484  0.10780  1.0000
  H   H645      1.0  0.94492  0.15497  0.67608  1.0000
  H   H646      1.0  0.97165  0.31087  0.36238  1.0000
  C   C664      1.0  0.98838  0.25919  0.17711  1.0000
  H   H647      1.0  0.88014  0.28520  0.41559  1.0000
  C   C665      1.0  0.87482  0.01617  0.78401  1.0000
  H   H648      1.0  0.83029  0.26183  0.16699  1.0000
  H   H649      1.0  0.94381  0.29227  0.51112  1.0000
  Fe  Fe105     1.0  0.80294  0.02127  0.16923  1.0000
  H   H650      1.0  0.95323  0.24313  0.46501  1.0000
  N   N57       1.0  0.97862  0.19459  0.40132  1.0000
  H   H651      1.0  0.96653  0.11477  0.66340  1.0000
  H   H652      1.0  0.83153  0.22501  0.60356  1.0000
  H   H653      1.0  0.83293  0.28848  0.04050  1.0000
  C   C666      1.0  0.99365  0.22537  0.28189  1.0000
  Fe  Fe106     1.0  0.75267  0.02733  0.12616  1.0000
  H   H654      1.0  0.85249  0.08659  0.60835  1.0000
  H   H655      1.0  0.77993  0.13394  0.81374  1.0000
  C   C667      1.0  0.98628  0.10957  0.81757  1.0000
  H   H656      1.0  0.78884  0.11837  0.27752  1.0000
  C   C668      1.0  0.79951  0.30322  0.37157  1.0000
  H   H657      1.0  0.78095  0.31011  0.37106  1.0000
  H   H658      1.0  0.85936  0.31316  0.75792  1.0000
  H   H659      1.0  0.99465  0.24277  0.30228  1.0000
  H   H660      1.0  0.93274  0.33271  0.34170  1.0000
  C   C669      1.0  0.93515  0.32375  0.37854  1.0000
  H   H661      1.0  0.99220  0.18073  0.81222  1.0000
  C   C670      1.0  0.91643  0.32496  0.41490  1.0000
  C   C671      1.0  0.77081  0.14975  0.24335  1.0000
  H   H662      1.0  0.98503  0.29172  0.22399  1.0000
  H   H663      1.0  0.88507  0.01793  0.91862  1.0000
  H   H664      1.0  0.98658  0.22495  0.13496  1.0000
  H   H665      1.0  0.00057  0.17268  0.35044  1.0000
  C   C672      1.0  0.89146  0.33375  0.77531  1.0000
  H   H666      1.0  0.75132  0.13959  0.88693  1.0000
  H   H667      1.0  0.95460  0.55228  0.98042  1.0000
  H   H668      1.0  0.81110  0.48983  0.95358  1.0000
  C   C673      1.0  0.89744  0.33638  0.66849  1.0000
  Fe  Fe107     1.0  0.84232  0.38500  0.53822  1.0000
  S   S217      1.0  0.81737  0.35806  0.57374  1.0000
  S   S218      1.0  0.84186  0.42177  0.57770  1.0000
  H   H669      1.0  0.99647  0.65309  0.05960  1.0000
  H   H670      1.0  0.90019  0.33708  0.62742  1.0000
  H   H671      1.0  0.97401  0.43197  0.98734  1.0000
  C   C674      1.0  0.91122  0.34624  0.75498  1.0000
  S   S219      1.0  0.87500  0.36011  0.54304  1.0000
  S   S220      1.0  0.83265  0.37472  0.45724  1.0000
  Fe  Fe108     1.0  0.92428  0.61029  0.95358  1.0000
  S   S221      1.0  0.93028  0.60294  0.03728  1.0000
  S   S222      1.0  0.95561  0.62263  0.90485  1.0000
  Fe  Fe109     1.0  0.87037  0.59756  0.95754  1.0000
  S   S223      1.0  0.87282  0.59137  0.04377  1.0000
  S   S224      1.0  0.83414  0.58657  0.92095  1.0000
  Fe  Fe110     1.0  0.89621  0.62525  0.04876  1.0000
  Fe  Fe111     1.0  0.86319  0.34669  0.46538  1.0000
  Fe  Fe112     1.0  0.90692  0.57006  0.02429  1.0000
  S   S225      1.0  0.91886  0.53282  0.05595  1.0000
  S   S226      1.0  0.89052  0.63337  0.96414  1.0000
  S   S227      1.0  0.90403  0.57531  0.93922  1.0000
  H   H672      1.0  0.93493  0.64318  0.26817  1.0000
  H   H673      1.0  0.76242  0.36204  0.58336  1.0000
  Fe  Fe113     1.0  0.90001  0.39999  0.95478  1.0000
  S   S228      1.0  0.93678  0.39886  0.91929  1.0000
  S   S229      1.0  0.87944  0.43634  0.94776  1.0000
  Fe  Fe114     1.0  0.92424  0.36453  0.87955  1.0000
  C   C675      1.0  0.77015  0.36401  0.38310  1.0000
  Fe  Fe115     1.0  0.94671  0.37380  0.98455  1.0000
  H   H674      1.0  0.76904  0.38365  0.31098  1.0000
  S   S230      1.0  0.88665  0.36714  0.91063  1.0000
  S   S231      1.0  0.91067  0.37742  0.02414  1.0000
  C   C676      1.0  0.82105  0.50013  0.98221  1.0000
  S   S232      1.0  0.98047  0.37828  0.03159  1.0000
  S   S233      1.0  0.76775  0.50356  0.50570  1.0000
  H   H675      1.0  0.92973  0.35652  0.68564  1.0000
  S   S234      1.0  0.78890  0.58507  0.69292  1.0000
  H   H676      1.0  0.83122  0.45253  0.98504  1.0000
  C   C677      1.0  0.82267  0.58542  0.85655  1.0000
  C   C678      1.0  0.83430  0.59658  0.81507  1.0000
  C   C679      1.0  0.82378  0.59616  0.76542  1.0000
  C   C680      1.0  0.80171  0.58428  0.75620  1.0000
  C   C681      1.0  0.79042  0.57256  0.79739  1.0000
  C   C682      1.0  0.80070  0.57336  0.84719  1.0000
  H   H677      1.0  0.85109  0.60605  0.82144  1.0000
  H   H678      1.0  0.83269  0.60539  0.73404  1.0000
  H   H679      1.0  0.77340  0.56345  0.79120  1.0000
  H   H680      1.0  0.79134  0.56485  0.87882  1.0000
  H   H681      1.0  0.91868  0.63094  0.18270  1.0000
  S   S235      1.0  0.89698  0.66058  0.09845  1.0000
  H   H682      1.0  0.79953  0.54852  0.52053  1.0000
  C   C683      1.0  0.90928  0.50615  0.02294  1.0000
  C   C684      1.0  0.91721  0.48271  0.03975  1.0000
  C   C685      1.0  0.90898  0.46113  0.01554  1.0000
  C   C686      1.0  0.89246  0.46291  0.97485  1.0000
  C   C687      1.0  0.88480  0.48633  0.95761  1.0000
  C   C688      1.0  0.89331  0.50788  0.98126  1.0000
  H   H683      1.0  0.92940  0.48123  0.07223  1.0000
  H   H684      1.0  0.91479  0.44313  0.02944  1.0000
  H   H685      1.0  0.87198  0.48786  0.92623  1.0000
  H   H686      1.0  0.88692  0.52578  0.96811  1.0000
  C   C689      1.0  0.76397  0.40445  0.50807  1.0000
  C   C690      1.0  0.97814  0.64045  0.99157  1.0000
  C   C691      1.0  0.83275  0.46105  0.02385  1.0000
  H   H687      1.0  0.96127  0.63816  0.01120  1.0000
  C   C692      1.0  0.81829  0.44094  0.55562  1.0000
  C   C693      1.0  0.80215  0.45154  0.59102  1.0000
  C   C694      1.0  0.78530  0.46957  0.57500  1.0000
  C   C695      1.0  0.78498  0.47750  0.52390  1.0000
  C   C696      1.0  0.80015  0.46582  0.48784  1.0000
  C   C697      1.0  0.81675  0.44741  0.50366  1.0000
  H   H688      1.0  0.80306  0.44629  0.63113  1.0000
  H   H689      1.0  0.77296  0.47771  0.60253  1.0000
  H   H690      1.0  0.79978  0.47175  0.44811  1.0000
  H   H691      1.0  0.82919  0.43916  0.47618  1.0000
  H   H692      1.0  0.83856  0.49501  0.53629  1.0000
  H   H693      1.0  0.81710  0.45553  0.04762  1.0000
  H   H694      1.0  0.84918  0.47667  0.62032  1.0000
  H   H695      1.0  0.96997  0.55516  0.06974  1.0000
  C   C698      1.0  0.75695  0.35065  0.41901  1.0000
  C   C699      1.0  0.98551  0.57014  0.94763  1.0000
  H   H696      1.0  0.83132  0.55291  0.50699  1.0000
  Fe  Fe116     1.0  0.81011  0.34542  0.49327  1.0000
  H   H697      1.0  0.83470  0.37255  0.75168  1.0000
  C   C700      1.0  0.92878  0.65731  0.24156  1.0000
  C   C701      1.0  0.97200  0.56058  0.98793  1.0000
  C   C702      1.0  0.81764  0.53926  0.51852  1.0000
  Fe  Fe117     1.0  0.75798  0.56243  0.65846  1.0000
  S   S236      1.0  0.77108  0.33736  0.47362  1.0000
  S   S237      1.0  0.93210  0.36138  0.79475  1.0000
  C   C703      1.0  0.83637  0.50841  0.66358  1.0000
  S   S238      1.0  0.76301  0.52124  0.65508  1.0000
  C   C704      1.0  0.84121  0.49516  0.61856  1.0000
  C   C705      1.0  0.91949  0.65027  0.19305  1.0000
  C   C706      1.0  0.99803  0.64945  0.01879  1.0000
  H   H698      1.0  0.98031  0.43350  0.05430  1.0000
  H   H699      1.0  0.85632  0.49158  0.08636  1.0000
  H   H700      1.0  0.82190  0.54248  0.69525  1.0000
  H   H701      1.0  0.99028  0.38344  0.92204  1.0000
  C   C707      1.0  0.84608  0.50111  0.05654  1.0000
  H   H702      1.0  0.84969  0.45325  0.04101  1.0000
  Fe  Fe118     1.0  0.90117  0.34421  0.97641  1.0000
  H   H703      1.0  0.81139  0.56005  0.61027  1.0000
  C   C708      1.0  0.98047  0.44451  0.01819  1.0000
  H   H704      1.0  0.84750  0.37610  0.66053  1.0000
  H   H705      1.0  0.84062  0.50041  0.70080  1.0000
  C   C709      1.0  0.82582  0.53198  0.66051  1.0000
  C   C710      1.0  0.97997  0.63531  0.93901  1.0000
  N   N58       1.0  0.83360  0.48806  0.02035  1.0000
  H   H706      1.0  0.88563  0.33622  0.09661  1.0000
  C   C711      1.0  0.82103  0.52595  0.97928  1.0000
  C   C712      1.0  0.84640  0.52694  0.05477  1.0000
  C   C713      1.0  0.83364  0.53936  0.01604  1.0000
  H   H707      1.0  0.81144  0.53563  0.94860  1.0000
  H   H708      1.0  0.85684  0.53723  0.08267  1.0000
  H   H709      1.0  0.83356  0.55937  0.01414  1.0000
  N   N59       1.0  0.88502  0.40639  0.76819  1.0000
  C   C714      1.0  0.89227  0.40821  0.71809  1.0000
  C   C715      1.0  0.86449  0.39395  0.78045  1.0000
  C   C716      1.0  0.87875  0.39756  0.67862  1.0000
  C   C717      1.0  0.85069  0.38285  0.74195  1.0000
  C   C718      1.0  0.85787  0.38479  0.69076  1.0000
  C   C719      1.0  0.89904  0.41866  0.80840  1.0000
  H   H710      1.0  0.90873  0.41772  0.70847  1.0000
  H   H711      1.0  0.85879  0.39236  0.82016  1.0000
  H   H712      1.0  0.88449  0.39893  0.63884  1.0000
  H   H713      1.0  0.81626  0.52483  0.48819  1.0000
  H   H714      1.0  0.89670  0.43902  0.80538  1.0000
  H   H715      1.0  0.89325  0.41312  0.84752  1.0000
  H   H716      1.0  0.91853  0.41354  0.80484  1.0000
  N   N60       1.0  0.82407  0.52845  0.56847  1.0000
  C   C720      1.0  0.81983  0.54181  0.61232  1.0000
  C   C721      1.0  0.83504  0.50560  0.57101  1.0000
  H   H717      1.0  0.78926  0.36674  0.38891  1.0000
  H   H718      1.0  0.96752  0.46035  0.02167  1.0000
  H   H719      1.0  0.77398  0.39187  0.60246  1.0000
  C   C722      1.0  0.91431  0.34720  0.70157  1.0000
  H   H720      1.0  0.76793  0.42325  0.43545  1.0000
  H   H721      1.0  0.97850  0.56971  0.90861  1.0000
  H   H722      1.0  0.78274  0.40687  0.51864  1.0000
  S   S239      1.0  0.93810  0.33916  0.94150  1.0000
  C   C723      1.0  0.75865  0.37359  0.33899  1.0000
  C   C724      1.0  0.75778  0.38196  0.58869  1.0000
  S   S240      1.0  0.88886  0.33998  0.39919  1.0000
  C   C725      1.0  0.98067  0.56225  0.03819  1.0000
  C   C726      1.0  0.75571  0.41368  0.46087  1.0000
  Fe  Fe119     1.0  0.75128  0.52426  0.57265  1.0000
  H   H723      1.0  0.91333  0.68105  0.99926  1.0000
  S   S241      1.0  0.80609  0.98086  0.14650  1.0000
  S   S242      1.0  0.80184  0.98248  0.98905  1.0000
  C   C727      1.0  0.91038  0.66821  0.15904  1.0000
  H   H724      1.0  0.89394  0.68394  0.38641  1.0000
  H   H725      1.0  0.98556  0.70703  0.00067  1.0000
  C   C728      1.0  0.90037  0.69406  0.42097  1.0000
  S   S243      1.0  0.99401  0.94115  0.78530  1.0000
  C   C729      1.0  0.92794  0.97339  0.91304  1.0000
  H   H726      1.0  0.97410  0.87724  0.65069  1.0000
  Fe  Fe120     1.0  0.76737  0.97841  0.17448  1.0000
  Fe  Fe121     1.0  0.95701  0.92640  0.76672  1.0000
  S   S244      1.0  0.94496  0.92026  0.68551  1.0000
  C   C730      1.0  0.92964  0.68605  0.97882  1.0000
  Fe  Fe122     1.0  0.90666  0.91649  0.81270  1.0000
  S   S245      1.0  0.89076  0.90811  0.73438  1.0000
  S   S246      1.0  0.89031  0.91899  0.89408  1.0000
  Fe  Fe123     1.0  0.92583  0.88710  0.71634  1.0000
  S   S247      1.0  0.93281  0.84851  0.68057  1.0000
  Fe  Fe124     1.0  0.91142  0.94145  0.70882  1.0000
  S   S248      1.0  0.89803  0.97444  0.66386  1.0000
  S   S249      1.0  0.93989  0.89240  0.79761  1.0000
  S   S250      1.0  0.92520  0.95063  0.78688  1.0000
  N   N61       1.0  0.94906  0.69499  0.00513  1.0000
  C   C731      1.0  0.80996  0.90510  0.07652  1.0000
  Fe  Fe125     1.0  0.96304  0.77278  0.41343  1.0000
  S   S251      1.0  0.95743  0.76357  0.32877  1.0000
  S   S252      1.0  0.94287  0.80606  0.45000  1.0000
  Fe  Fe126     1.0  0.95986  0.72342  0.35127  1.0000
  S   S253      1.0  0.93918  0.69006  0.32007  1.0000
  H   H727      1.0  0.83225  0.98453  0.66643  1.0000
  C   C732      1.0  0.94780  0.69697  0.06125  1.0000
  S   S254      1.0  0.96189  0.73262  0.43644  1.0000
  H   H728      1.0  0.91553  0.67500  0.90487  1.0000
  Fe  Fe127     1.0  0.79035  0.99383  0.07097  1.0000
  C   C733      1.0  0.79213  0.90793  0.16293  1.0000
  H   H729      1.0  0.85604  0.98620  0.58586  1.0000
  H   H730      1.0  0.96241  0.70850  0.07727  1.0000
  H   H731      1.0  0.78887  0.92650  0.96176  1.0000
  C   C734      1.0  0.92147  0.70033  0.22153  1.0000
  C   C735      1.0  0.91140  0.69325  0.17383  1.0000
  H   H732      1.0  0.92177  0.71964  0.23231  1.0000
  C   C736      1.0  0.93651  0.83761  0.61586  1.0000
  C   C737      1.0  0.93065  0.85215  0.57296  1.0000
  C   C738      1.0  0.93301  0.84229  0.52272  1.0000
  C   C739      1.0  0.94180  0.81798  0.51433  1.0000
  C   C740      1.0  0.94822  0.80364  0.55719  1.0000
  C   C741      1.0  0.94535  0.81331  0.60746  1.0000
  H   H733      1.0  0.92374  0.87080  0.57846  1.0000
  H   H734      1.0  0.92787  0.85359  0.49006  1.0000
  H   H735      1.0  0.95486  0.78489  0.55170  1.0000
  H   H736      1.0  0.94983  0.80178  0.64018  1.0000
  C   C742      1.0  0.86606  0.93754  0.91935  1.0000
  C   C743      1.0  0.86439  0.94102  0.97298  1.0000
  C   C744      1.0  0.84536  0.95529  0.99495  1.0000
  C   C745      1.0  0.82741  0.96593  0.96357  1.0000
  C   C746      1.0  0.82913  0.96252  0.90996  1.0000
  C   C747      1.0  0.84834  0.94853  0.88793  1.0000
  H   H737      1.0  0.87793  0.93257  0.99776  1.0000
  H   H738      1.0  0.84434  0.95768  0.03621  1.0000
  H   H739      1.0  0.81535  0.97057  0.88522  1.0000
  H   H740      1.0  0.84924  0.94597  0.84669  1.0000
  H   H741      1.0  0.90398  0.70733  0.14856  1.0000
  N   N62       1.0  0.79099  0.91221  0.10731  1.0000
  C   C748      1.0  0.99300  0.87225  0.65636  1.0000
  H   H742      1.0  0.87561  0.97745  0.76384  1.0000
  H   H743      1.0  0.89793  0.79184  0.39610  1.0000
  H   H744      1.0  0.82439  0.90427  0.99919  1.0000
  C   C749      1.0  0.92994  0.68236  0.25615  1.0000
  C   C750      1.0  0.97155  0.69762  0.92637  1.0000
  C   C751      1.0  0.95184  0.68846  0.89924  1.0000
  H   H745      1.0  0.88942  0.68810  0.45431  1.0000
  H   H746      1.0  0.80543  0.89308  0.17307  1.0000
  C   C752      1.0  0.77136  0.92447  0.08688  1.0000
  H   H747      1.0  0.96134  0.95229  0.90480  1.0000
  N   N63       1.0  0.89848  0.72091  0.41400  1.0000
  C   C753      1.0  0.90049  0.73607  0.45592  1.0000
  C   C754      1.0  0.89616  0.73073  0.36570  1.0000
  C   C755      1.0  0.89997  0.76176  0.45013  1.0000
  C   C756      1.0  0.89560  0.75635  0.35853  1.0000
  C   C757      1.0  0.89755  0.77191  0.40109  1.0000
  H   H748      1.0  0.98007  0.98324  0.84771  1.0000
  H   H749      1.0  0.90313  0.72833  0.49401  1.0000
  H   H750      1.0  0.89525  0.71875  0.33223  1.0000
  H   H751      1.0  0.90229  0.77382  0.48318  1.0000
  H   H752      1.0  0.89432  0.76406  0.32013  1.0000
  H   H753      1.0  0.91964  0.68854  0.42721  1.0000
  H   H754      1.0  0.93023  0.70555  0.07297  1.0000
  H   H755      1.0  0.77421  0.90227  0.17780  1.0000
  C   C758      1.0  0.95157  0.96928  0.89529  1.0000
  C   C759      1.0  0.80924  0.90963  0.02357  1.0000
  C   C760      1.0  0.77021  0.92959  0.03422  1.0000
  H   H756      1.0  0.79719  0.92525  0.18299  1.0000
  C   C761      1.0  0.93071  0.68271  0.92550  1.0000
  C   C762      1.0  0.96986  0.70073  0.97968  1.0000
  H   H757      1.0  0.82586  0.89605  0.09279  1.0000
  H   H758      1.0  0.91959  0.95939  0.93662  1.0000
  C   C763      1.0  0.88071  0.99587  0.75249  1.0000
  C   C764      1.0  0.78923  0.92198  0.00243  1.0000
  H   H759      1.0  0.98582  0.83374  0.66797  1.0000
  C   C765      1.0  0.96203  0.98660  0.86289  1.0000
  H   H760      1.0  0.75498  0.93998  0.01831  1.0000
  C   C766      1.0  0.89241  0.99951  0.70551  1.0000
  H   H761      1.0  0.75657  0.93062  0.11145  1.0000
  Fe  Fe128     1.0  0.99797  0.76103  0.32551  1.0000
  S   S255      1.0  0.75176  0.98841  0.09721  1.0000
  H   H762      1.0  0.94912  0.67823  0.07866  1.0000
  H   H763      1.0  0.88789  0.99035  0.95656  1.0000
  S   S256      1.0  0.00017  0.72064  0.34340  1.0000
  C   C767      1.0  0.99963  0.84770  0.66576  1.0000
  H   H764      1.0  0.95316  0.68508  0.85818  1.0000
  H   H765      1.0  0.99747  0.88732  0.78444  1.0000
  N   N64       1.0  0.91531  0.99441  0.89963  1.0000
  H   H766      1.0  0.87796  0.98841  0.89069  1.0000
  H   H767      1.0  0.98829  0.70147  0.90649  1.0000
  H   H768      1.0  0.75093  0.98195  0.30049  1.0000
  C   C768      1.0  0.89035  0.99801  0.91730  1.0000
