data_image0
_chemical_formula_structural       HC2HSH2SHC3FeCNSHCSH3CSC2HC4HC4H2NH2FeH2C2HC4HNHCH4CNH5CFeH2FeC4H3SHSCHC2HSHCFeH2SH2S2CSCHCH2C2H2C2HCHCHCFeN2HCH4C4H3C3H5C2HCSNCNH2CHC2H2C2SC2HCH2S2HSCHC3H2NFeHFeC2HSCFeH2CHS3HFeC2HCHFeCSCSC2Fe2CFeH2SHFeHC2HC2HFeCS2NCSHC2HCHC2H2SHC2SCH2C2H2C2SHC2HCHC2H3FeHCFeSH3S2H2C2H2C3FeNH2CHFeC3S2HCH3C2HCSC2SCHSHC2FeH2C2HFeSCHSHNC2SHCSHSFeSHCFeSHNCHFeNH2C2HSH4CHFeH4C2SHSC2SNCSHSH2FeHC2HC6HCHSCHSCHFeHFeC3HC3HFeSH3C2HC2SC2SC2SCFeH2SCH2CHCH2CFeHNS2HCHCHCHC4H2SC2H2C2HCH3CNH2C2HCSH2C2SHFeH3FeSHFeC2HSC3HSCSFeSCHCH2CHCHC2HFeHCHFeHCHCFeCHC3HCH2CH3CHNC2HCFeCSHCHCH3C2HSC2SHCSCS2HC2SC7H5C2HFeCHSCHC2HNHCHSCH3SHNCHCH2CSH6S2C2HC2H2S2CHC2FeH2FeCSHCNFeCHCFeHC5HCH2C2NSHSH2CH2C2NS2FeC2H2FeSHCHFeCSC5SC2SFeHCHC2HFeSH2CH4NCHCH2S2CSHCHSCH3CHC3HSHCSHCHFeNHC2H3FeNCHCFeCHCHSCH4CSH2CHC3NH2C2S2C4H5CSHCH2S2HC2H4C3NHSCSHC2HFe2S2H3FeHC3HC3HC4SH2SCHCH3CH4C2HCH3CHSCSCH2CH3C2H3NCSC2HCHNCHC2HC2HCH2CHCSCNCHC2HC3H3SCSC3HC4H4C2FeH2S2CHC2SFeH3FeS2H2CFeH4C3HNHC3HCFeC3S2FeSFe2CSHCS
_chemical_formula_sum              "H384 C384 S128 Fe64 N32"
_cell_length_a       25.9761
_cell_length_b       26.6469
_cell_length_c       25.5769
_cell_angle_alpha    99.8448
_cell_angle_beta     59.2343
_cell_angle_gamma    104.592

_space_group_name_H-M_alt    "P 1"
_space_group_IT_number       1

loop_
  _space_group_symop_operation_xyz
  'x, y, z'

loop_
  _atom_site_type_symbol
  _atom_site_label
  _atom_site_symmetry_multiplicity
  _atom_site_fract_x
  _atom_site_fract_y
  _atom_site_fract_z
  _atom_site_occupancy
  H   H1        1.0  0.08693  0.36267  0.08013  1.0000
  C   C1        1.0  0.23717  0.44712  0.96806  1.0000
  C   C2        1.0  0.09054  0.66155  0.00251  1.0000
  H   H2        1.0  0.85077  0.38006  0.88812  1.0000
  S   S1        1.0  0.03251  0.67946  0.94571  1.0000
  H   H3        1.0  0.93744  0.41675  0.02681  1.0000
  H   H4        1.0  0.92335  0.54480  0.06929  1.0000
  S   S2        1.0  0.79321  0.28380  0.99564  1.0000
  H   H5        1.0  0.24959  0.45114  0.86109  1.0000
  C   C3        1.0  0.88796  0.63177  0.06996  1.0000
  C   C4        1.0  0.95343  0.25529  0.06893  1.0000
  C   C5        1.0  0.17656  0.40404  0.06280  1.0000
  Fe  Fe1       1.0  0.20518  0.58519  0.05985  1.0000
  C   C6        1.0  0.86388  0.66661  0.05741  1.0000
  N   N1        1.0  0.27416  0.64092  0.89080  1.0000
  S   S3        1.0  0.25450  0.27640  0.05224  1.0000
  H   H6        1.0  0.04856  0.46159  0.85659  1.0000
  C   C7        1.0  0.80382  0.29253  0.84869  1.0000
  S   S4        1.0  0.23155  0.67110  0.07610  1.0000
  H   H7        1.0  0.98681  0.39249  0.95193  1.0000
  H   H8        1.0  0.03855  0.57050  0.92098  1.0000
  H   H9        1.0  0.13734  0.64790  0.04617  1.0000
  C   C8        1.0  0.13867  0.39738  0.99266  1.0000
  S   S5        1.0  0.15118  0.54115  0.01458  1.0000
  C   C9        1.0  0.06302  0.64011  0.96681  1.0000
  C   C10       1.0  0.18592  0.24564  0.93672  1.0000
  H   H10       1.0  0.90472  0.37056  0.98660  1.0000
  C   C11       1.0  0.92913  0.33969  0.08156  1.0000
  C   C12       1.0  0.97126  0.25384  0.00733  1.0000
  C   C13       1.0  0.21207  0.27193  0.97259  1.0000
  C   C14       1.0  0.11455  0.57863  0.99915  1.0000
  H   H11       1.0  0.22519  0.31382  0.97300  1.0000
  C   C15       1.0  0.23019  0.43558  0.02288  1.0000
  C   C16       1.0  0.23312  0.65003  0.87690  1.0000
  C   C17       1.0  0.06022  0.58747  0.94813  1.0000
  C   C18       1.0  0.22146  0.24401  0.00767  1.0000
  H   H12       1.0  0.95503  0.22262  0.08766  1.0000
  H   H13       1.0  0.93497  0.64203  0.06032  1.0000
  N   N2        1.0  0.94749  0.33827  0.02083  1.0000
  H   H14       1.0  0.08454  0.51616  0.94928  1.0000
  H   H15       1.0  0.98626  0.21977  0.97817  1.0000
  Fe  Fe2       1.0  0.80138  0.21075  0.02058  1.0000
  H   H16       1.0  0.26588  0.45150  0.03471  1.0000
  H   H17       1.0  0.17827  0.26737  0.91026  1.0000
  C   C19       1.0  0.12990  0.38543  0.04824  1.0000
  C   C20       1.0  0.08600  0.55672  0.96435  1.0000
  H   H18       1.0  0.10209  0.38347  0.98184  1.0000
  C   C21       1.0  0.11596  0.63084  0.01892  1.0000
  C   C22       1.0  0.94400  0.38166  0.99519  1.0000
  C   C23       1.0  0.88626  0.35738  0.85512  1.0000
  C   C24       1.0  0.80280  0.65431  0.07152  1.0000
  H   H19       1.0  0.24947  0.55866  0.88739  1.0000
  N   N3        1.0  0.85817  0.30326  0.84876  1.0000
  H   H20       1.0  0.91891  0.36018  0.87180  1.0000
  C   C25       1.0  0.20046  0.43911  0.89498  1.0000
  H   H21       1.0  0.17678  0.47126  0.90284  1.0000
  H   H22       1.0  0.21156  0.61914  0.85668  1.0000
  H   H23       1.0  0.18158  0.40472  0.87430  1.0000
  H   H24       1.0  0.97945  0.29340  0.93643  1.0000
  C   C26       1.0  0.96734  0.29568  0.98399  1.0000
  N   N4        1.0  0.19244  0.42687  0.95278  1.0000
  H   H25       1.0  0.06686  0.20465  0.08088  1.0000
  H   H26       1.0  0.27821  0.47295  0.93825  1.0000
  H   H27       1.0  0.78322  0.68149  0.06323  1.0000
  H   H28       1.0  0.08692  0.55780  0.28610  1.0000
  H   H29       1.0  0.87302  0.29286  0.33240  1.0000
  C   C27       1.0  0.87860  0.55051  0.10899  1.0000
  Fe  Fe3       1.0  0.21623  0.65110  0.16503  1.0000
  H   H30       1.0  0.07281  0.39759  0.19355  1.0000
  H   H31       1.0  0.06052  0.48930  0.27621  1.0000
  Fe  Fe4       1.0  0.90261  0.46052  0.23746  1.0000
  C   C28       1.0  0.91691  0.31468  0.30122  1.0000
  C   C29       1.0  0.10338  0.67412  0.29371  1.0000
  C   C30       1.0  0.00790  0.62929  0.29850  1.0000
  C   C31       1.0  0.97694  0.37668  0.22207  1.0000
  H   H32       1.0  0.14075  0.45839  0.27359  1.0000
  H   H33       1.0  0.02172  0.22778  0.15844  1.0000
  H   H34       1.0  0.25758  0.59489  0.31794  1.0000
  S   S6        1.0  0.79943  0.39440  0.11329  1.0000
  H   H35       1.0  0.98206  0.61324  0.27564  1.0000
  S   S7        1.0  0.78464  0.24155  0.11448  1.0000
  C   C32       1.0  0.11190  0.21410  0.18498  1.0000
  H   H36       1.0  0.06654  0.33912  0.26365  1.0000
  C   C33       1.0  0.06122  0.52125  0.31023  1.0000
  C   C34       1.0  0.02586  0.34134  0.26298  1.0000
  H   H37       1.0  0.87952  0.35064  0.26238  1.0000
  S   S8        1.0  0.80637  0.43883  0.25429  1.0000
  H   H38       1.0  0.17127  0.39475  0.10514  1.0000
  C   C35       1.0  0.02963  0.37374  0.22276  1.0000
  Fe  Fe5       1.0  0.80658  0.52450  0.27090  1.0000
  H   H39       1.0  0.09039  0.65372  0.21546  1.0000
  H   H40       1.0  0.09891  0.26205  0.11039  1.0000
  S   S9        1.0  0.87519  0.45658  0.33518  1.0000
  H   H41       1.0  0.88508  0.56732  0.14843  1.0000
  H   H42       1.0  0.24793  0.56622  0.22571  1.0000
  S   S10       1.0  0.18076  0.56638  0.15297  1.0000
  S   S11       1.0  0.98010  0.41939  0.17513  1.0000
  C   C36       1.0  0.06863  0.22323  0.12251  1.0000
  S   S12       1.0  0.90594  0.54630  0.24429  1.0000
  C   C37       1.0  0.92056  0.34750  0.26174  1.0000
  H   H43       1.0  0.11176  0.25477  0.19951  1.0000
  C   C38       1.0  0.12955  0.47749  0.31813  1.0000
  H   H44       1.0  0.91767  0.29967  0.15449  1.0000
  H   H45       1.0  0.78820  0.29926  0.24887  1.0000
  C   C39       1.0  0.93219  0.29839  0.10641  1.0000
  C   C40       1.0  0.79244  0.57355  0.10958  1.0000
  H   H46       1.0  0.84798  0.51175  0.12130  1.0000
  H   H47       1.0  0.85597  0.63533  0.24312  1.0000
  C   C41       1.0  0.82763  0.65508  0.23756  1.0000
  C   C42       1.0  0.96953  0.31125  0.30159  1.0000
  H   H48       1.0  0.91173  0.37281  0.11126  1.0000
  C   C43       1.0  0.06936  0.65257  0.26443  1.0000
  H   H49       1.0  0.18993  0.44212  0.32865  1.0000
  C   C44       1.0  0.27317  0.54698  0.23638  1.0000
  H   H50       1.0  0.14884  0.20258  0.23982  1.0000
  C   C45       1.0  0.27843  0.56310  0.28872  1.0000
  Fe  Fe6       1.0  0.27790  0.55823  0.10935  1.0000
  N   N5        1.0  0.85249  0.58562  0.09496  1.0000
  N   N6        1.0  0.08967  0.51104  0.34322  1.0000
  H   H51       1.0  0.01309  0.52554  0.34207  1.0000
  C   C46       1.0  0.89655  0.46246  0.47699  1.0000
  H   H52       1.0  0.93073  0.49228  0.48256  1.0000
  H   H53       1.0  0.25396  0.62071  0.52214  1.0000
  H   H54       1.0  0.89044  0.67619  0.50499  1.0000
  H   H55       1.0  0.87005  0.33558  0.43737  1.0000
  C   C47       1.0  0.98052  0.62708  0.36162  1.0000
  C   C48       1.0  0.95830  0.19995  0.46568  1.0000
  C   C49       1.0  0.12363  0.47682  0.56122  1.0000
  C   C50       1.0  0.90261  0.59597  0.57613  1.0000
  H   H56       1.0  0.99346  0.64794  0.43966  1.0000
  H   H57       1.0  0.16760  0.48769  0.42915  1.0000
  H   H58       1.0  0.99476  0.39947  0.39511  1.0000
  C   C51       1.0  0.21537  0.65320  0.45785  1.0000
  C   C52       1.0  0.86304  0.37523  0.45112  1.0000
  C   C53       1.0  0.03925  0.24304  0.48755  1.0000
  H   H59       1.0  0.95480  0.35999  0.46019  1.0000
  H   H60       1.0  0.15210  0.44785  0.54160  1.0000
  H   H61       1.0  0.09683  0.54986  0.47293  1.0000
  H   H62       1.0  0.83544  0.51537  0.50238  1.0000
  H   H63       1.0  0.20389  0.68391  0.44336  1.0000
  C   C54       1.0  0.07345  0.19967  0.53780  1.0000
  C   C55       1.0  0.14403  0.52514  0.58368  1.0000
  H   H64       1.0  0.07289  0.27747  0.48583  1.0000
  C   C56       1.0  0.07592  0.67288  0.35689  1.0000
  S   S13       1.0  0.96480  0.26822  0.34914  1.0000
  N   N7        1.0  0.03280  0.19968  0.51392  1.0000
  C   C57       1.0  0.84275  0.47579  0.48846  1.0000
  N   N8        1.0  0.90578  0.41255  0.45913  1.0000
  H   H65       1.0  0.18810  0.53332  0.58131  1.0000
  H   H66       1.0  0.17925  0.64548  0.50578  1.0000
  C   C58       1.0  0.01432  0.64974  0.39092  1.0000
  H   H67       1.0  0.06777  0.23085  0.57415  1.0000
  C   C59       1.0  0.10589  0.52900  0.42962  1.0000
  C   C60       1.0  0.15761  0.46813  0.34894  1.0000
  H   H68       1.0  0.98551  0.42685  0.46882  1.0000
  H   H69       1.0  0.10287  0.68795  0.37914  1.0000
  C   C61       1.0  0.07847  0.53734  0.39772  1.0000
  C   C62       1.0  0.14553  0.49404  0.40510  1.0000
  S   S14       1.0  0.04054  0.40584  0.53633  1.0000
  C   C63       1.0  0.79878  0.43785  0.48078  1.0000
  C   C64       1.0  0.00257  0.24363  0.46246  1.0000
  H   H70       1.0  0.12163  0.20574  0.50042  1.0000
  C   C65       1.0  0.96319  0.39935  0.44504  1.0000
  H   H71       1.0  0.00787  0.27792  0.44132  1.0000
  H   H72       1.0  0.21423  0.61713  0.42919  1.0000
  S   S15       1.0  0.02581  0.63110  0.52490  1.0000
  S   S16       1.0  0.89075  0.30345  0.57683  1.0000
  H   H73       1.0  0.91143  0.57828  0.53176  1.0000
  S   S17       1.0  0.90575  0.59309  0.40380  1.0000
  C   C66       1.0  0.80911  0.38735  0.46161  1.0000
  H   H74       1.0  0.04856  0.56533  0.41665  1.0000
  C   C67       1.0  0.06601  0.46570  0.56516  1.0000
  C   C68       1.0  0.95133  0.62168  0.58567  1.0000
  C   C69       1.0  0.02953  0.50330  0.59029  1.0000
  H   H75       1.0  0.98568  0.49561  0.59228  1.0000
  H   H76       1.0  0.92906  0.20026  0.44715  1.0000
  N   N9        1.0  0.27591  0.66959  0.45295  1.0000
  Fe  Fe7       1.0  0.87327  0.54079  0.34349  1.0000
  H   H77       1.0  0.04775  0.61356  0.83601  1.0000
  Fe  Fe8       1.0  0.20695  0.64083  0.65751  1.0000
  C   C70       1.0  0.98200  0.63234  0.75899  1.0000
  C   C71       1.0  0.88699  0.26395  0.84137  1.0000
  H   H78       1.0  0.26132  0.43414  0.72244  1.0000
  S   S18       1.0  0.04736  0.35097  0.82928  1.0000
  C   C72       1.0  0.84249  0.59725  0.62255  1.0000
  Fe  Fe9       1.0  0.86200  0.27489  0.66667  1.0000
  H   H79       1.0  0.02310  0.21574  0.71024  1.0000
  H   H80       1.0  0.97983  0.66281  0.73748  1.0000
  C   C73       1.0  0.83150  0.62417  0.67820  1.0000
  H   H81       1.0  0.99535  0.52308  0.83003  1.0000
  S   S19       1.0  0.91869  0.34400  0.68910  1.0000
  S   S20       1.0  0.17897  0.64416  0.75649  1.0000
  S   S21       1.0  0.13177  0.62490  0.63403  1.0000
  H   H82       1.0  0.80497  0.57876  0.61453  1.0000
  Fe  Fe10      1.0  0.25937  0.60793  0.72551  1.0000
  C   C74       1.0  0.09482  0.45580  0.82621  1.0000
  C   C75       1.0  0.21495  0.44042  0.75079  1.0000
  H   H83       1.0  0.02372  0.58173  0.62718  1.0000
  C   C76       1.0  0.10622  0.40567  0.80406  1.0000
  H   H84       1.0  0.17530  0.36074  0.74454  1.0000
  Fe  Fe11      1.0  0.83638  0.38102  0.73065  1.0000
  C   C77       1.0  0.10763  0.56292  0.60804  1.0000
  S   S22       1.0  0.14163  0.26088  0.69368  1.0000
  C   C78       1.0  0.16610  0.39858  0.76442  1.0000
  S   S23       1.0  0.05272  0.20261  0.82336  1.0000
  C   C79       1.0  0.02060  0.60484  0.81342  1.0000
  C   C80       1.0  0.99068  0.55364  0.81058  1.0000
  Fe  Fe12      1.0  0.80977  0.34177  0.62721  1.0000
  Fe  Fe13      1.0  0.22083  0.25643  0.70436  1.0000
  C   C81       1.0  0.88012  0.64694  0.68891  1.0000
  Fe  Fe14      1.0  0.13840  0.20099  0.82345  1.0000
  H   H85       1.0  0.13564  0.53710  0.82781  1.0000
  H   H86       1.0  0.87181  0.66811  0.73171  1.0000
  S   S24       1.0  0.86330  0.41667  0.64444  1.0000
  H   H87       1.0  0.94662  0.24567  0.69902  1.0000
  Fe  Fe15      1.0  0.94197  0.37498  0.60193  1.0000
  H   H88       1.0  0.97806  0.66650  0.64895  1.0000
  C   C82       1.0  0.05096  0.55206  0.61033  1.0000
  C   C83       1.0  0.20394  0.49016  0.77395  1.0000
  H   H89       1.0  0.93043  0.27230  0.84068  1.0000
  C   C84       1.0  0.80533  0.20099  0.83477  1.0000
  C   C85       1.0  0.94005  0.64613  0.64231  1.0000
  H   H90       1.0  0.92429  0.57304  0.73261  1.0000
  Fe  Fe16      1.0  0.09615  0.28385  0.79334  1.0000
  C   C86       1.0  0.95065  0.58175  0.75611  1.0000
  S   S25       1.0  0.26601  0.54064  0.76064  1.0000
  S   S26       1.0  0.17756  0.28454  0.80278  1.0000
  N   N10       1.0  0.01608  0.64334  0.78766  1.0000
  C   C87       1.0  0.94992  0.20517  0.69038  1.0000
  S   S27       1.0  0.81104  0.43057  0.81764  1.0000
  H   H91       1.0  0.93240  0.50254  0.77860  1.0000
  C   C88       1.0  0.95546  0.54213  0.78171  1.0000
  C   C89       1.0  0.14392  0.49837  0.81017  1.0000
  H   H92       1.0  0.91124  0.37534  0.81037  1.0000
  C   C90       1.0  0.86047  0.21220  0.83534  1.0000
  H   H93       1.0  0.20662  0.88562  0.88748  1.0000
  C   C91       1.0  0.20900  0.00707  0.87136  1.0000
  C   C92       1.0  0.20536  0.18986  0.00628  1.0000
  H   H94       1.0  0.19936  0.02298  0.91670  1.0000
  H   H95       1.0  0.22905  0.77537  0.93035  1.0000
  S   S28       1.0  0.96663  0.80743  0.02322  1.0000
  H   H96       1.0  0.09482  0.70242  0.01547  1.0000
  C   C93       1.0  0.99968  0.99332  0.07926  1.0000
  C   C94       1.0  0.21729  0.69884  0.88989  1.0000
  S   S29       1.0  0.84681  0.93570  0.98016  1.0000
  C   C95       1.0  0.90992  0.03548  0.96338  1.0000
  H   H97       1.0  0.27150  0.93336  0.88474  1.0000
  H   H98       1.0  0.02663  0.83454  0.84770  1.0000
  C   C96       1.0  0.16885  0.91909  0.08575  1.0000
  C   C97       1.0  0.80715  0.02247  0.98015  1.0000
  H   H99       1.0  0.21360  0.16812  0.03242  1.0000
  H   H100      1.0  0.18372  0.70565  0.87993  1.0000
  C   C98       1.0  0.16938  0.19141  0.93579  1.0000
  C   C99       1.0  0.19471  0.97204  0.08430  1.0000
  S   S30       1.0  0.13654  0.15711  0.89170  1.0000
  H   H101      1.0  0.19441  0.93901  0.94248  1.0000
  C   C100      1.0  0.85469  0.00228  0.97449  1.0000
  C   C101      1.0  0.87055  0.10896  0.96367  1.0000
  H   H102      1.0  0.96133  0.11386  0.94795  1.0000
  C   C102      1.0  0.22383  0.92752  0.89396  1.0000
  H   H103      1.0  0.07116  0.04264  0.93952  1.0000
  C   C103      1.0  0.97679  0.07772  0.08671  1.0000
  C   C104      1.0  0.17906  0.16361  0.97068  1.0000
  H   H104      1.0  0.19042  0.99708  0.05815  1.0000
  H   H105      1.0  0.89233  0.70306  0.03748  1.0000
  H   H106      1.0  0.14523  0.90359  0.06025  1.0000
  Fe  Fe17      1.0  0.04311  0.87133  0.01952  1.0000
  H   H107      1.0  0.87897  0.00083  0.07459  1.0000
  C   C105      1.0  0.81484  0.07597  0.97539  1.0000
  Fe  Fe18      1.0  0.02787  0.75299  0.00427  1.0000
  S   S31       1.0  0.06995  0.94375  0.97020  1.0000
  H   H108      1.0  0.09836  0.81801  0.87655  1.0000
  H   H109      1.0  0.01875  0.11463  0.00189  1.0000
  H   H110      1.0  0.16631  0.12166  0.97006  1.0000
  S   S32       1.0  0.10762  0.81700  0.99092  1.0000
  S   S33       1.0  0.88267  0.17539  0.95447  1.0000
  H   H111      1.0  0.84652  0.86643  0.07897  1.0000
  H   H112      1.0  0.26822  0.82345  0.04929  1.0000
  C   C106      1.0  0.04296  0.03996  0.98829  1.0000
  C   C107      1.0  0.91814  0.08855  0.95724  1.0000
  H   H113      1.0  0.94656  0.02003  0.95929  1.0000
  H   H114      1.0  0.90825  0.92049  0.04743  1.0000
  C   C108      1.0  0.24289  0.73803  0.91823  1.0000
  C   C109      1.0  0.03528  0.99567  0.01588  1.0000
  C   C110      1.0  0.01323  0.08070  0.02359  1.0000
  Fe  Fe19      1.0  0.07152  0.81315  0.09078  1.0000
  N   N11       1.0  0.22151  0.95818  0.85304  1.0000
  H   H115      1.0  0.97262  0.90151  0.84931  1.0000
  H   H116      1.0  0.06087  0.95930  0.85589  1.0000
  C   C111      1.0  0.87223  0.90216  0.09086  1.0000
  H   H117      1.0  0.19934  0.07604  0.84648  1.0000
  Fe  Fe20      1.0  0.93958  0.80419  0.12111  1.0000
  C   C112      1.0  0.08047  0.94822  0.29526  1.0000
  C   C113      1.0  0.06149  0.85473  0.28266  1.0000
  C   C114      1.0  0.13287  0.18473  0.20799  1.0000
  S   S34       1.0  0.18071  0.70058  0.25097  1.0000
  S   S35       1.0  0.94058  0.12906  0.13017  1.0000
  H   H118      1.0  0.14953  0.10903  0.20660  1.0000
  C   C115      1.0  0.80090  0.01996  0.15688  1.0000
  H   H119      1.0  0.12410  0.79384  0.31739  1.0000
  H   H120      1.0  0.11396  0.06954  0.13288  1.0000
  H   H121      1.0  0.10480  0.12115  0.33020  1.0000
  C   C116      1.0  0.13331  0.13238  0.18938  1.0000
  C   C117      1.0  0.81230  0.73279  0.21396  1.0000
  H   H122      1.0  0.99369  0.95984  0.10119  1.0000
  C   C118      1.0  0.22464  0.99281  0.11790  1.0000
  S   S36       1.0  0.23306  0.15500  0.25639  1.0000
  C   C119      1.0  0.23086  0.96020  0.15094  1.0000
  C   C120      1.0  0.84809  0.70732  0.22273  1.0000
  S   S37       1.0  0.13609  0.82153  0.12651  1.0000
  C   C121      1.0  0.78220  0.91912  0.18660  1.0000
  H   H123      1.0  0.89145  0.72791  0.21846  1.0000
  S   S38       1.0  0.99568  0.74547  0.10277  1.0000
  H   H124      1.0  0.08220  0.98592  0.28316  1.0000
  C   C122      1.0  0.84037  0.98661  0.11734  1.0000
  C   C123      1.0  0.09199  0.14051  0.12637  1.0000
  Fe  Fe21      1.0  0.91112  0.19172  0.33526  1.0000
  H   H125      1.0  0.20830  0.88240  0.17949  1.0000
  H   H126      1.0  0.80922  0.05940  0.14454  1.0000
  C   C124      1.0  0.11301  0.11006  0.14813  1.0000
  C   C125      1.0  0.27900  0.79873  0.11832  1.0000
  H   H127      1.0  0.89492  0.89133  0.11293  1.0000
  Fe  Fe22      1.0  0.90333  0.12384  0.22983  1.0000
  S   S39       1.0  0.84024  0.79647  0.18975  1.0000
  C   C126      1.0  0.20493  0.90717  0.15244  1.0000
  H   H128      1.0  0.05090  0.90538  0.23267  1.0000
  S   S40       1.0  0.85379  0.18580  0.29173  1.0000
  H   H129      1.0  0.23132  0.78005  0.14407  1.0000
  N   N12       1.0  0.83056  0.93686  0.13231  1.0000
  C   C127      1.0  0.17303  0.88677  0.12062  1.0000
  C   C128      1.0  0.97106  0.03452  0.11479  1.0000
  S   S41       1.0  0.01205  0.87144  0.11903  1.0000
  H   H130      1.0  0.25571  0.97573  0.17525  1.0000
  C   C129      1.0  0.09687  0.94466  0.33840  1.0000
  S   S42       1.0  0.83605  0.05877  0.28902  1.0000
  H   H131      1.0  0.02210  0.08398  0.30579  1.0000
  S   S43       1.0  0.25142  0.05984  0.12030  1.0000
  Fe  Fe23      1.0  0.26946  0.08581  0.19851  1.0000
  S   S44       1.0  0.96520  0.13387  0.26876  1.0000
  H   H132      1.0  0.94367  0.03237  0.16374  1.0000
  C   C130      1.0  0.06251  0.90303  0.26724  1.0000
  Fe  Fe24      1.0  0.89380  0.07402  0.33378  1.0000
  S   S45       1.0  0.24128  0.04103  0.27869  1.0000
  H   H133      1.0  0.04912  0.81986  0.25935  1.0000
  N   N13       1.0  0.07687  0.85160  0.32566  1.0000
  C   C131      1.0  0.79799  0.84564  0.33496  1.0000
  H   H134      1.0  0.84309  0.83676  0.30471  1.0000
  Fe  Fe25      1.0  0.21267  0.11293  0.33552  1.0000
  N   N14       1.0  0.09207  0.19193  0.14448  1.0000
  H   H135      1.0  0.07702  0.12308  0.09382  1.0000
  H   H136      1.0  0.04884  0.76873  0.32680  1.0000
  C   C132      1.0  0.07667  0.80093  0.34087  1.0000
  C   C133      1.0  0.97065  0.03405  0.38119  1.0000
  H   H137      1.0  0.05703  0.79946  0.39087  1.0000
  S   S46       1.0  0.91111  0.00946  0.36474  1.0000
  H   H138      1.0  0.11092  0.97951  0.36051  1.0000
  H   H139      1.0  0.07195  0.96103  0.58219  1.0000
  H   H140      1.0  0.83145  0.92686  0.34480  1.0000
  H   H141      1.0  0.91730  0.12188  0.49603  1.0000
  C   C134      1.0  0.06731  0.09189  0.35810  1.0000
  H   H142      1.0  0.98455  0.12216  0.53769  1.0000
  Fe  Fe26      1.0  0.79086  0.12159  0.35430  1.0000
  H   H143      1.0  0.06377  0.16204  0.55743  1.0000
  H   H144      1.0  0.94094  0.73442  0.46674  1.0000
  H   H145      1.0  0.91270  0.92922  0.54832  1.0000
  H   H146      1.0  0.22247  0.12141  0.56897  1.0000
  C   C135      1.0  0.98954  0.15665  0.51714  1.0000
  C   C136      1.0  0.16609  0.07652  0.53155  1.0000
  S   S47       1.0  0.12500  0.10118  0.42415  1.0000
  H   H147      1.0  0.23915  0.90990  0.46152  1.0000
  S   S48       1.0  0.11465  0.76722  0.46145  1.0000
  C   C137      1.0  0.18958  0.08621  0.57142  1.0000
  C   C138      1.0  0.91485  0.92282  0.58777  1.0000
  S   S49       1.0  0.84367  0.13260  0.40381  1.0000
  N   N15       1.0  0.86295  0.74768  0.55060  1.0000
  C   C139      1.0  0.26743  0.95827  0.52224  1.0000
  S   S50       1.0  0.27709  0.81489  0.44581  1.0000
  H   H148      1.0  0.24412  0.98837  0.52695  1.0000
  S   S51       1.0  0.12705  0.74259  0.57733  1.0000
  H   H149      1.0  0.86862  0.71026  0.46762  1.0000
  H   H150      1.0  0.78872  0.90916  0.47448  1.0000
  Fe  Fe27      1.0  0.17527  0.79821  0.50225  1.0000
  H   H151      1.0  0.18079  0.10409  0.49762  1.0000
  C   C140      1.0  0.95153  0.15615  0.49328  1.0000
  C   C141      1.0  0.06532  0.07543  0.40819  1.0000
  H   H152      1.0  0.10811  0.89333  0.38637  1.0000
  C   C142      1.0  0.95973  0.89806  0.58061  1.0000
  C   C143      1.0  0.89239  0.71576  0.49468  1.0000
  C   C144      1.0  0.79106  0.89657  0.35744  1.0000
  C   C145      1.0  0.01599  0.03803  0.44486  1.0000
  C   C146      1.0  0.84060  0.78858  0.54967  1.0000
  C   C147      1.0  0.09508  0.89576  0.35292  1.0000
  H   H153      1.0  0.84474  0.79753  0.50778  1.0000
  C   C148      1.0  0.96898  0.01683  0.43085  1.0000
  H   H154      1.0  0.93088  0.98781  0.45907  1.0000
  S   S52       1.0  0.12220  0.85994  0.56043  1.0000
  C   C149      1.0  0.12335  0.03128  0.53571  1.0000
  H   H155      1.0  0.01432  0.02494  0.48360  1.0000
  S   S53       1.0  0.01039  0.87374  0.50866  1.0000
  C   C150      1.0  0.26504  0.91407  0.48486  1.0000
  H   H156      1.0  0.10471  0.02339  0.50498  1.0000
  Fe  Fe28      1.0  0.06346  0.71433  0.53921  1.0000
  H   H157      1.0  0.79230  0.81581  0.44576  1.0000
  Fe  Fe29      1.0  0.05705  0.82384  0.52615  1.0000
  C   C151      1.0  0.10462  0.99625  0.57990  1.0000
  C   C152      1.0  0.01985  0.07152  0.34491  1.0000
  C   C153      1.0  0.23501  0.93860  0.79541  1.0000
  H   H158      1.0  0.09090  0.70403  0.74228  1.0000
  C   C154      1.0  0.81151  0.81903  0.60277  1.0000
  C   C155      1.0  0.07230  0.83015  0.81269  1.0000
  C   C156      1.0  0.99852  0.13586  0.68423  1.0000
  H   H159      1.0  0.92048  0.89709  0.72940  1.0000
  Fe  Fe30      1.0  0.06840  0.80190  0.63219  1.0000
  S   S54       1.0  0.85517  0.18930  0.66649  1.0000
  H   H160      1.0  0.83096  0.75997  0.69747  1.0000
  H   H161      1.0  0.23508  0.81276  0.68776  1.0000
  H   H162      1.0  0.92957  0.07861  0.80892  1.0000
  C   C157      1.0  0.10937  0.96835  0.66388  1.0000
  C   C158      1.0  0.95910  0.10032  0.66747  1.0000
  H   H163      1.0  0.16257  0.82569  0.65850  1.0000
  C   C159      1.0  0.14846  0.82443  0.70614  1.0000
  C   C160      1.0  0.80743  0.80854  0.65650  1.0000
  S   S55       1.0  0.00029  0.76832  0.60057  1.0000
  C   C161      1.0  0.03391  0.97476  0.84340  1.0000
  C   C162      1.0  0.87083  0.93719  0.64647  1.0000
  S   S56       1.0  0.21733  0.78990  0.80238  1.0000
  C   C163      1.0  0.22030  0.01678  0.77370  1.0000
  C   C164      1.0  0.23320  0.96697  0.75539  1.0000
  S   S57       1.0  0.81461  0.93970  0.77165  1.0000
  C   C165      1.0  0.11288  0.82075  0.82908  1.0000
  Fe  Fe31      1.0  0.24497  0.72028  0.73858  1.0000
  H   H164      1.0  0.92925  0.02282  0.75791  1.0000
  H   H165      1.0  0.18784  0.05833  0.64625  1.0000
  S   S58       1.0  0.26902  0.71903  0.64089  1.0000
  C   C166      1.0  0.08928  0.82962  0.75104  1.0000
  H   H166      1.0  0.24310  0.95072  0.71003  1.0000
  H   H167      1.0  0.14529  0.94481  0.64646  1.0000
  C   C167      1.0  0.17039  0.81134  0.78377  1.0000
  H   H168      1.0  0.24785  0.90101  0.77992  1.0000
  C   C168      1.0  0.18919  0.81603  0.72264  1.0000
  H   H169      1.0  0.10342  0.98822  0.70778  1.0000
  H   H170      1.0  0.99776  0.87296  0.62708  1.0000
  C   C169      1.0  0.83254  0.76798  0.65645  1.0000
  Fe  Fe32      1.0  0.10380  0.17938  0.72438  1.0000
  H   H171      1.0  0.22070  0.03987  0.74237  1.0000
  N   N16       1.0  0.96092  0.01468  0.81707  1.0000
  S   S59       1.0  0.03524  0.83077  0.73004  1.0000
  S   S60       1.0  0.18711  0.17227  0.72592  1.0000
  H   H172      1.0  0.96297  0.05985  0.65759  1.0000
  C   C170      1.0  0.91434  0.11701  0.66342  1.0000
  H   H173      1.0  0.06535  0.94166  0.67329  1.0000
  C   C171      1.0  0.91004  0.16947  0.67431  1.0000
  H   H174      1.0  0.83490  0.95439  0.65182  1.0000
  C   C172      1.0  0.87245  0.92752  0.69774  1.0000
  H   H175      1.0  0.88388  0.08937  0.65047  1.0000
  C   C173      1.0  0.99337  0.18817  0.69653  1.0000
  C   C174      1.0  0.86047  0.73790  0.60266  1.0000
  C   C175      1.0  0.91896  0.90496  0.69017  1.0000
  C   C176      1.0  0.96244  0.89045  0.63186  1.0000
  H   H176      1.0  0.02086  0.72503  0.79885  1.0000
  H   H177      1.0  0.78606  0.83260  0.69763  1.0000
  S   S61       1.0  0.05505  0.11476  0.68805  1.0000
  C   C177      1.0  0.92125  0.03547  0.80471  1.0000
  C   C178      1.0  0.94791  0.96303  0.82691  1.0000
  H   H178      1.0  0.88294  0.18104  0.83034  1.0000
  H   H179      1.0  0.02081  0.08751  0.81071  1.0000
  C   C179      1.0  0.01067  0.04657  0.81834  1.0000
  C   C180      1.0  0.20845  0.03714  0.83194  1.0000
  H   H180      1.0  0.88072  0.70701  0.60253  1.0000
  C   C181      1.0  0.04745  0.02733  0.83230  1.0000
  H   H181      1.0  0.90785  0.93797  0.82694  1.0000
  H   H182      1.0  0.78491  0.16117  0.82856  1.0000
  H   H183      1.0  0.06522  0.70311  0.82242  1.0000
  C   C182      1.0  0.98425  0.94228  0.83999  1.0000
  N   N17       1.0  0.12726  0.00633  0.61939  1.0000
  H   H184      1.0  0.79335  0.85118  0.60185  1.0000
  H   H185      1.0  0.08499  0.05344  0.83616  1.0000
  C   C183      1.0  0.04994  0.69638  0.78792  1.0000
  C   C184      1.0  0.16943  0.05050  0.61541  1.0000
  H   H186      1.0  0.87241  0.02121  0.83768  1.0000
  C   C185      1.0  0.47261  0.66662  0.00619  1.0000
  S   S62       1.0  0.30116  0.57225  0.01553  1.0000
  H   H187      1.0  0.31263  0.58351  0.90095  1.0000
  H   H188      1.0  0.43957  0.63140  0.00959  1.0000
  C   C186      1.0  0.61776  0.68222  0.85159  1.0000
  C   C187      1.0  0.68321  0.54932  0.84904  1.0000
  S   S63       1.0  0.49738  0.38488  0.85154  1.0000
  H   H189      1.0  0.43364  0.29198  0.08836  1.0000
  Fe  Fe33      1.0  0.46992  0.39263  0.95090  1.0000
  H   H190      1.0  0.57958  0.39660  0.04539  1.0000
  H   H191      1.0  0.62543  0.66833  0.88503  1.0000
  H   H192      1.0  0.59321  0.37708  0.87766  1.0000
  Fe  Fe34      1.0  0.69415  0.24833  0.03396  1.0000
  S   S64       1.0  0.53187  0.44445  0.98356  1.0000
  H   H193      1.0  0.33643  0.67302  0.92416  1.0000
  Fe  Fe35      1.0  0.32527  0.65622  0.03934  1.0000
  C   C188      1.0  0.44476  0.58258  0.87123  1.0000
  C   C189      1.0  0.62683  0.40243  0.88801  1.0000
  H   H194      1.0  0.45749  0.60371  0.90422  1.0000
  S   S65       1.0  0.37662  0.40758  0.98221  1.0000
  C   C190      1.0  0.60389  0.20805  0.85882  1.0000
  C   C191      1.0  0.71423  0.46618  0.91560  1.0000
  C   C192      1.0  0.65244  0.46948  0.95227  1.0000
  H   H195      1.0  0.62765  0.36099  0.08915  1.0000
  S   S66       1.0  0.63837  0.25408  0.99274  1.0000
  C   C193      1.0  0.52212  0.27072  0.04353  1.0000
  S   S67       1.0  0.36598  0.30844  0.89122  1.0000
  Fe  Fe36      1.0  0.76942  0.31175  0.09106  1.0000
  S   S68       1.0  0.43676  0.30705  0.96557  1.0000
  C   C194      1.0  0.56596  0.23167  0.85099  1.0000
  H   H196      1.0  0.52963  0.62907  0.01924  1.0000
  C   C195      1.0  0.60867  0.43800  0.93821  1.0000
  H   H197      1.0  0.63863  0.49659  0.99149  1.0000
  H   H198      1.0  0.55234  0.26698  0.87717  1.0000
  C   C196      1.0  0.73267  0.43140  0.86468  1.0000
  H   H199      1.0  0.53699  0.28665  0.00069  1.0000
  C   C197      1.0  0.57326  0.51417  0.84922  1.0000
  H   H200      1.0  0.70229  0.48060  0.04216  1.0000
  C   C198      1.0  0.30203  0.67987  0.91555  1.0000
  C   C199      1.0  0.55469  0.38857  0.09321  1.0000
  H   H201      1.0  0.63274  0.59236  0.93288  1.0000
  Fe  Fe37      1.0  0.34595  0.32124  0.98768  1.0000
  H   H202      1.0  0.74783  0.49092  0.92651  1.0000
  C   C200      1.0  0.57534  0.54834  0.89618  1.0000
  H   H203      1.0  0.41295  0.50907  0.91324  1.0000
  Fe  Fe38      1.0  0.45867  0.30045  0.86827  1.0000
  H   H204      1.0  0.72610  0.56352  0.84914  1.0000
  C   C201      1.0  0.68879  0.39925  0.85118  1.0000
  H   H205      1.0  0.53391  0.56029  0.93281  1.0000
  C   C202      1.0  0.42017  0.52908  0.87593  1.0000
  Fe  Fe39      1.0  0.40188  0.39361  0.88409  1.0000
  C   C203      1.0  0.63064  0.56613  0.89625  1.0000
  H   H206      1.0  0.56793  0.67173  0.86736  1.0000
  C   C204      1.0  0.52349  0.66525  0.01158  1.0000
  C   C205      1.0  0.74448  0.44124  0.07286  1.0000
  C   C206      1.0  0.70040  0.46799  0.08120  1.0000
  H   H207      1.0  0.61904  0.22512  0.89126  1.0000
  C   C207      1.0  0.56247  0.25013  0.05075  1.0000
  H   H208      1.0  0.53827  0.52657  0.07664  1.0000
  H   H209      1.0  0.53061  0.50036  0.84858  1.0000
  C   C208      1.0  0.29061  0.58980  0.87591  1.0000
  H   H210      1.0  0.78070  0.32350  0.85466  1.0000
  H   H211      1.0  0.78005  0.43306  0.02735  1.0000
  H   H212      1.0  0.46084  0.51818  0.09325  1.0000
  C   C209      1.0  0.46388  0.27389  0.09308  1.0000
  H   H213      1.0  0.56991  0.34138  0.19833  1.0000
  N   N18       1.0  0.48995  0.36463  0.21497  1.0000
  C   C210      1.0  0.65157  0.46151  0.19021  1.0000
  C   C211      1.0  0.30101  0.50652  0.19788  1.0000
  H   H214      1.0  0.57384  0.21279  0.11151  1.0000
  C   C212      1.0  0.46287  0.38409  0.19095  1.0000
  Fe  Fe40      1.0  0.54179  0.53564  0.24923  1.0000
  C   C213      1.0  0.49496  0.39663  0.12980  1.0000
  S   S69       1.0  0.60200  0.51561  0.15020  1.0000
  H   H215      1.0  0.76344  0.53866  0.13303  1.0000
  C   C214      1.0  0.44551  0.25502  0.14907  1.0000
  H   H216      1.0  0.61527  0.46808  0.23552  1.0000
  C   C215      1.0  0.69616  0.43560  0.18202  1.0000
  H   H217      1.0  0.47314  0.41068  0.11018  1.0000
  H   H218      1.0  0.40934  0.35898  0.30284  1.0000
  H   H219      1.0  0.48028  0.36991  0.30341  1.0000
  C   C216      1.0  0.54389  0.61877  0.13181  1.0000
  C   C217      1.0  0.49185  0.69108  0.17603  1.0000
  H   H220      1.0  0.60460  0.30428  0.29880  1.0000
  S   S70       1.0  0.49781  0.60555  0.28164  1.0000
  C   C218      1.0  0.33885  0.49794  0.26425  1.0000
  C   C219      1.0  0.73967  0.29158  0.28079  1.0000
  S   S71       1.0  0.37491  0.26248  0.21235  1.0000
  H   H221      1.0  0.58509  0.69483  0.15258  1.0000
  C   C220      1.0  0.31203  0.53906  0.30215  1.0000
  S   S72       1.0  0.66976  0.28233  0.12776  1.0000
  C   C221      1.0  0.54417  0.67061  0.15374  1.0000
  S   S73       1.0  0.57412  0.54978  0.31757  1.0000
  S   S74       1.0  0.31157  0.64115  0.12903  1.0000
  H   H222      1.0  0.69019  0.63414  0.24331  1.0000
  C   C222      1.0  0.73414  0.65461  0.23797  1.0000
  C   C223      1.0  0.58164  0.36828  0.11785  1.0000
  S   S75       1.0  0.45485  0.48175  0.30645  1.0000
  C   C224      1.0  0.71732  0.27006  0.33646  1.0000
  C   C225      1.0  0.44127  0.60789  0.15401  1.0000
  C   C226      1.0  0.77134  0.62833  0.24356  1.0000
  C   C227      1.0  0.48441  0.23132  0.15500  1.0000
  C   C228      1.0  0.33287  0.48131  0.21232  1.0000
  C   C229      1.0  0.45571  0.34949  0.27837  1.0000
  C   C230      1.0  0.54317  0.22953  0.10607  1.0000
  H   H223      1.0  0.36385  0.47872  0.27511  1.0000
  H   H224      1.0  0.39883  0.67484  0.19345  1.0000
  H   H225      1.0  0.41562  0.38838  0.21843  1.0000
  H   H226      1.0  0.58480  0.60322  0.11461  1.0000
  H   H227      1.0  0.47010  0.21622  0.19808  1.0000
  C   C231      1.0  0.69901  0.30441  0.26731  1.0000
  C   C232      1.0  0.63661  0.29459  0.30886  1.0000
  H   H228      1.0  0.44975  0.30681  0.27944  1.0000
  Fe  Fe41      1.0  0.68570  0.20914  0.14357  1.0000
  C   C233      1.0  0.65446  0.47903  0.14004  1.0000
  H   H229      1.0  0.35437  0.44998  0.18244  1.0000
  S   S76       1.0  0.74863  0.56139  0.25343  1.0000
  C   C234      1.0  0.76671  0.60740  0.09780  1.0000
  H   H230      1.0  0.71585  0.32241  0.22504  1.0000
  C   C235      1.0  0.74316  0.42611  0.12342  1.0000
  C   C236      1.0  0.49208  0.53313  0.11254  1.0000
  H   H231      1.0  0.71864  0.59772  0.11079  1.0000
  N   N19       1.0  0.49283  0.58816  0.13214  1.0000
  H   H232      1.0  0.47708  0.51017  0.15197  1.0000
  C   C237      1.0  0.54867  0.35703  0.17938  1.0000
  H   H233      1.0  0.40099  0.58376  0.15393  1.0000
  S   S77       1.0  0.30150  0.49136  0.12869  1.0000
  C   C238      1.0  0.43993  0.65957  0.17623  1.0000
  H   H234      1.0  0.69453  0.42359  0.22129  1.0000
  H   H235      1.0  0.67025  0.66785  0.37126  1.0000
  H   H236      1.0  0.59484  0.37940  0.56698  1.0000
  S   S78       1.0  0.77495  0.52498  0.36995  1.0000
  H   H237      1.0  0.59428  0.46569  0.34899  1.0000
  N   N20       1.0  0.64276  0.62158  0.44411  1.0000
  C   C239      1.0  0.65941  0.35464  0.58055  1.0000
  H   H238      1.0  0.41592  0.58285  0.58772  1.0000
  C   C240      1.0  0.64028  0.42969  0.37756  1.0000
  H   H239      1.0  0.75672  0.44737  0.48944  1.0000
  H   H240      1.0  0.51834  0.52588  0.47964  1.0000
  C   C241      1.0  0.63397  0.39634  0.41803  1.0000
  S   S79       1.0  0.69889  0.38499  0.41566  1.0000
  H   H241      1.0  0.56741  0.26667  0.39674  1.0000
  H   H242      1.0  0.77471  0.35748  0.45641  1.0000
  H   H243      1.0  0.57030  0.34536  0.49069  1.0000
  H   H244      1.0  0.65327  0.31622  0.55990  1.0000
  H   H245      1.0  0.47856  0.36441  0.49679  1.0000
  H   H246      1.0  0.67311  0.53502  0.50229  1.0000
  S   S80       1.0  0.44136  0.69374  0.55300  1.0000
  S   S81       1.0  0.32157  0.56154  0.36537  1.0000
  C   C242      1.0  0.58856  0.43985  0.38042  1.0000
  C   C243      1.0  0.63425  0.24392  0.43792  1.0000
  H   H247      1.0  0.56216  0.61277  0.43803  1.0000
  C   C244      1.0  0.28859  0.64879  0.48940  1.0000
  C   C245      1.0  0.59265  0.52482  0.49419  1.0000
  H   H248      1.0  0.57406  0.48633  0.51199  1.0000
  H   H249      1.0  0.32239  0.42273  0.53704  1.0000
  S   S82       1.0  0.56097  0.69232  0.38495  1.0000
  S   S83       1.0  0.46501  0.43429  0.43342  1.0000
  C   C246      1.0  0.64842  0.55214  0.48855  1.0000
  H   H250      1.0  0.66246  0.21777  0.43603  1.0000
  C   C247      1.0  0.34655  0.66294  0.48430  1.0000
  C   C248      1.0  0.53021  0.41736  0.42436  1.0000
  Fe  Fe42      1.0  0.41355  0.55275  0.34538  1.0000
  H   H251      1.0  0.35704  0.64600  0.51233  1.0000
  H   H252      1.0  0.63603  0.27803  0.46909  1.0000
  Fe  Fe43      1.0  0.52395  0.61544  0.35400  1.0000
  C   C249      1.0  0.66950  0.67168  0.41560  1.0000
  S   S84       1.0  0.43680  0.56690  0.42021  1.0000
  H   H253      1.0  0.71719  0.62125  0.45771  1.0000
  C   C250      1.0  0.58693  0.59585  0.45166  1.0000
  N   N21       1.0  0.65611  0.26137  0.37740  1.0000
  Fe  Fe44      1.0  0.48433  0.49953  0.37691  1.0000
  C   C251      1.0  0.61582  0.27296  0.36403  1.0000
  H   H254      1.0  0.52661  0.28619  0.56911  1.0000
  C   C252      1.0  0.52371  0.38262  0.46353  1.0000
  Fe  Fe45      1.0  0.77923  0.44105  0.35262  1.0000
  H   H255      1.0  0.58654  0.22171  0.45744  1.0000
  C   C253      1.0  0.67310  0.60079  0.46316  1.0000
  C   C254      1.0  0.57553  0.37205  0.46029  1.0000
  C   C255      1.0  0.56144  0.54691  0.47601  1.0000
  C   C256      1.0  0.46831  0.21079  0.58449  1.0000
  C   C257      1.0  0.48143  0.26448  0.57989  1.0000
  H   H256      1.0  0.35213  0.51224  0.55719  1.0000
  C   C258      1.0  0.33078  0.41040  0.57094  1.0000
  H   H257      1.0  0.71727  0.68584  0.40639  1.0000
  H   H258      1.0  0.35323  0.37624  0.54953  1.0000
  C   C259      1.0  0.62627  0.39036  0.58456  1.0000
  C   C260      1.0  0.37552  0.50264  0.57801  1.0000
  N   N22       1.0  0.36999  0.45202  0.58726  1.0000
  S   S85       1.0  0.74679  0.32433  0.58850  1.0000
  H   H259      1.0  0.74921  0.26155  0.34751  1.0000
  S   S86       1.0  0.72176  0.60802  0.59166  1.0000
  H   H260      1.0  0.44499  0.33232  0.59323  1.0000
  H   H261      1.0  0.68490  0.44823  0.34411  1.0000
  C   C261      1.0  0.37491  0.26321  0.61409  1.0000
  H   H262      1.0  0.74438  0.43037  0.64124  1.0000
  H   H263      1.0  0.64218  0.66195  0.80697  1.0000
  C   C262      1.0  0.70174  0.36888  0.60123  1.0000
  C   C263      1.0  0.43685  0.47871  0.62999  1.0000
  N   N23       1.0  0.43935  0.31695  0.72326  1.0000
  S   S87       1.0  0.31590  0.29780  0.64112  1.0000
  S   S88       1.0  0.59074  0.48326  0.61492  1.0000
  Fe  Fe46      1.0  0.34219  0.67744  0.62135  1.0000
  C   C264      1.0  0.71044  0.41904  0.62679  1.0000
  C   C265      1.0  0.48432  0.36522  0.70215  1.0000
  H   H264      1.0  0.52684  0.36380  0.70192  1.0000
  H   H265      1.0  0.68373  0.49393  0.65010  1.0000
  Fe  Fe47      1.0  0.68325  0.67635  0.59628  1.0000
  S   S89       1.0  0.75863  0.63568  0.73154  1.0000
  H   H266      1.0  0.69403  0.23545  0.67025  1.0000
  C   C266      1.0  0.36267  0.20907  0.61458  1.0000
  H   H267      1.0  0.49552  0.37190  0.65559  1.0000
  Fe  Fe48      1.0  0.70331  0.63452  0.68678  1.0000
  C   C267      1.0  0.63443  0.44035  0.61001  1.0000
  S   S90       1.0  0.77756  0.30891  0.71601  1.0000
  C   C268      1.0  0.41673  0.22477  0.73269  1.0000
  C   C269      1.0  0.73553  0.49721  0.75467  1.0000
  C   C270      1.0  0.40457  0.50186  0.83252  1.0000
  C   C271      1.0  0.45484  0.60822  0.82243  1.0000
  C   C272      1.0  0.54559  0.20917  0.80967  1.0000
  S   S91       1.0  0.49499  0.23527  0.80174  1.0000
  C   C273      1.0  0.43999  0.58067  0.77883  1.0000
  C   C274      1.0  0.43489  0.29060  0.59428  1.0000
  S   S92       1.0  0.37404  0.43529  0.83653  1.0000
  Fe  Fe49      1.0  0.57965  0.65670  0.72439  1.0000
  H   H268      1.0  0.70229  0.37190  0.81245  1.0000
  C   C275      1.0  0.67671  0.45499  0.63110  1.0000
  H   H269      1.0  0.39351  0.39996  0.62239  1.0000
  C   C276      1.0  0.35452  0.22462  0.76051  1.0000
  C   C277      1.0  0.62642  0.49741  0.80337  1.0000
  H   H270      1.0  0.64110  0.22506  0.61007  1.0000
  Fe  Fe50      1.0  0.62449  0.56558  0.63599  1.0000
  S   S93       1.0  0.60923  0.58703  0.72985  1.0000
  H   H271      1.0  0.75169  0.51653  0.71232  1.0000
  H   H272      1.0  0.46683  0.39906  0.73239  1.0000
  C   C278      1.0  0.39930  0.43989  0.61372  1.0000
  H   H273      1.0  0.32291  0.58630  0.82658  1.0000
  H   H274      1.0  0.50711  0.27083  0.69198  1.0000
  H   H275      1.0  0.46084  0.46883  0.65008  1.0000
  H   H276      1.0  0.73358  0.23297  0.84175  1.0000
  N   N24       1.0  0.68036  0.51474  0.80396  1.0000
  C   C279      1.0  0.33521  0.27100  0.76859  1.0000
  H   H277      1.0  0.47090  0.56097  0.63420  1.0000
  C   C280      1.0  0.44255  0.53045  0.62103  1.0000
  H   H278      1.0  0.28715  0.27131  0.78982  1.0000
  H   H279      1.0  0.36305  0.35264  0.75399  1.0000
  S   S94       1.0  0.58700  0.63154  0.63319  1.0000
  S   S95       1.0  0.28281  0.59882  0.62792  1.0000
  C   C281      1.0  0.45875  0.27147  0.71404  1.0000
  S   S96       1.0  0.49568  0.67194  0.80903  1.0000
  H   H280      1.0  0.44835  0.60031  0.74075  1.0000
  C   C282      1.0  0.37848  0.31700  0.74881  1.0000
  H   H281      1.0  0.72588  0.45443  0.74646  1.0000
  S   S97       1.0  0.32274  0.68407  0.71772  1.0000
  C   C283      1.0  0.41323  0.52793  0.78491  1.0000
  H   H282      1.0  0.39958  0.50719  0.75247  1.0000
  H   H283      1.0  0.77299  0.50613  0.76602  1.0000
  H   H284      1.0  0.62421  0.47028  0.76742  1.0000
  C   C284      1.0  0.69015  0.19936  0.64430  1.0000
  H   H285      1.0  0.28649  0.39813  0.61235  1.0000
  C   C285      1.0  0.77674  0.24134  0.84159  1.0000
  C   C286      1.0  0.41168  0.54266  0.59496  1.0000
  C   C287      1.0  0.38949  0.17687  0.02791  1.0000
  H   H286      1.0  0.44610  0.10965  0.86725  1.0000
  S   S98       1.0  0.63019  0.71075  0.01372  1.0000
  H   H287      1.0  0.40633  0.95184  0.95741  1.0000
  C   C288      1.0  0.41568  0.95414  0.91147  1.0000
  S   S99       1.0  0.40482  0.71637  0.98462  1.0000
  H   H288      1.0  0.51467  0.07707  0.00311  1.0000
  C   C289      1.0  0.56606  0.71094  0.00740  1.0000
  H   H289      1.0  0.58939  0.06664  0.94722  1.0000
  Fe  Fe51      1.0  0.65792  0.79341  0.04129  1.0000
  N   N25       1.0  0.38082  0.15235  0.93744  1.0000
  H   H290      1.0  0.76513  0.99677  0.98659  1.0000
  C   C290      1.0  0.46166  0.93088  0.86235  1.0000
  C   C291      1.0  0.35947  0.17503  0.99505  1.0000
  H   H291      1.0  0.31046  0.11795  0.91622  1.0000
  H   H292      1.0  0.31954  0.19255  0.01566  1.0000
  H   H293      1.0  0.34992  0.00263  0.93861  1.0000
  Fe  Fe52      1.0  0.74908  0.89498  0.02603  1.0000
  N   N26       1.0  0.57383  0.08180  0.03864  1.0000
  C   C292      1.0  0.46164  0.13036  0.94363  1.0000
  H   H294      1.0  0.57968  0.13140  0.97850  1.0000
  C   C293      1.0  0.38426  0.98339  0.90076  1.0000
  Fe  Fe53      1.0  0.62198  0.89514  0.04938  1.0000
  C   C294      1.0  0.46560  0.71342  0.99476  1.0000
  H   H295      1.0  0.30678  0.75872  0.95241  1.0000
  C   C295      1.0  0.68168  0.84495  0.84712  1.0000
  H   H296      1.0  0.77850  0.09138  0.97875  1.0000
  S   S100      1.0  0.50621  0.89914  0.87384  1.0000
  C   C296      1.0  0.63080  0.05172  0.07288  1.0000
  H   H297      1.0  0.50208  0.11333  0.92230  1.0000
  H   H298      1.0  0.33308  0.83201  0.86426  1.0000
  H   H299      1.0  0.64852  0.04328  0.98052  1.0000
  H   H300      1.0  0.59225  0.84987  0.86632  1.0000
  C   C297      1.0  0.29974  0.82312  0.06504  1.0000
  S   S101      1.0  0.69801  0.85718  0.97642  1.0000
  H   H301      1.0  0.55736  0.75470  0.86253  1.0000
  H   H302      1.0  0.45719  0.97259  0.06635  1.0000
  C   C298      1.0  0.56375  0.08969  0.98955  1.0000
  H   H303      1.0  0.33221  0.18818  0.91272  1.0000
  C   C299      1.0  0.43009  0.12879  0.91235  1.0000
  C   C300      1.0  0.62303  0.82429  0.85609  1.0000
  C   C301      1.0  0.50800  0.75870  0.99081  1.0000
  N   N27       1.0  0.64069  0.73825  0.84653  1.0000
  H   H304      1.0  0.38070  0.14823  0.85347  1.0000
  H   H305      1.0  0.44764  0.86726  0.02949  1.0000
  C   C302      1.0  0.40037  0.84755  0.05460  1.0000
  C   C303      1.0  0.55773  0.75751  0.99747  1.0000
  S   S102      1.0  0.70376  0.17297  0.05140  1.0000
  S   S103      1.0  0.71567  0.82796  0.08561  1.0000
  C   C304      1.0  0.28598  0.72873  0.93078  1.0000
  C   C305      1.0  0.61996  0.05791  0.02636  1.0000
  C   C306      1.0  0.34921  0.15157  0.90344  1.0000
  C   C307      1.0  0.60360  0.77047  0.85420  1.0000
  H   H306      1.0  0.37277  0.19552  0.07331  1.0000
  H   H307      1.0  0.46617  0.15791  0.02593  1.0000
  H   H308      1.0  0.50319  0.79481  0.98142  1.0000
  H   H309      1.0  0.59051  0.79277  0.99291  1.0000
  H   H310      1.0  0.37775  0.86644  0.99116  1.0000
  C   C308      1.0  0.44152  0.15517  0.00152  1.0000
  S   S104      1.0  0.56027  0.92640  0.03187  1.0000
  H   H311      1.0  0.66773  0.03332  0.06282  1.0000
  C   C309      1.0  0.36082  0.84757  0.03279  1.0000
  H   H312      1.0  0.41975  0.80455  0.85983  1.0000
  H   H313      1.0  0.69648  0.88665  0.85042  1.0000
  S   S105      1.0  0.65948  0.98991  0.85192  1.0000
  S   S106      1.0  0.38746  0.03207  0.28003  1.0000
  H   H314      1.0  0.72646  0.15610  0.20607  1.0000
  C   C310      1.0  0.58900  0.14119  0.33633  1.0000
  C   C311      1.0  0.54754  0.09469  0.14406  1.0000
  H   H315      1.0  0.70346  0.93723  0.27028  1.0000
  H   H316      1.0  0.71977  0.02731  0.24318  1.0000
  H   H317      1.0  0.72599  0.72678  0.21813  1.0000
  H   H318      1.0  0.60224  0.06593  0.16865  1.0000
  C   C312      1.0  0.42983  0.99746  0.21270  1.0000
  C   C313      1.0  0.32000  0.79869  0.13833  1.0000
  C   C314      1.0  0.59431  0.07026  0.13206  1.0000
  N   N28       1.0  0.37992  0.82265  0.10630  1.0000
  H   H319      1.0  0.30343  0.77938  0.17971  1.0000
  S   S107      1.0  0.30354  0.14707  0.32961  1.0000
  C   C315      1.0  0.58677  0.73960  0.28480  1.0000
  S   S108      1.0  0.67664  0.93887  0.09362  1.0000
  H   H320      1.0  0.54749  0.93369  0.15108  1.0000
  C   C316      1.0  0.50752  0.95101  0.10195  1.0000
  C   C317      1.0  0.71017  0.13360  0.29119  1.0000
  H   H321      1.0  0.41242  0.85204  0.16864  1.0000
  Fe  Fe54      1.0  0.33359  0.07758  0.26741  1.0000
  Fe  Fe55      1.0  0.63966  0.87010  0.15012  1.0000
  S   S109      1.0  0.57906  0.82977  0.11182  1.0000
  S   S110      1.0  0.60336  0.88679  0.24993  1.0000
  H   H322      1.0  0.49184  0.73131  0.19282  1.0000
  H   H323      1.0  0.41564  0.78420  0.14330  1.0000
  H   H324      1.0  0.61248  0.78020  0.20626  1.0000
  Fe  Fe56      1.0  0.32640  0.18308  0.24533  1.0000
  H   H325      1.0  0.59539  0.70285  0.25972  1.0000
  C   C318      1.0  0.51254  0.95046  0.15371  1.0000
  C   C319      1.0  0.59698  0.78334  0.25455  1.0000
  C   C320      1.0  0.63247  0.15247  0.27586  1.0000
  H   H326      1.0  0.46998  0.83448  0.09386  1.0000
  C   C321      1.0  0.75440  0.70694  0.22361  1.0000
  C   C322      1.0  0.46159  0.97258  0.10621  1.0000
  C   C323      1.0  0.42235  0.99552  0.16185  1.0000
  H   H327      1.0  0.38721  0.01253  0.16501  1.0000
  C   C324      1.0  0.75117  0.00210  0.21218  1.0000
  C   C325      1.0  0.47412  0.97402  0.20884  1.0000
  C   C326      1.0  0.58857  0.83135  0.28678  1.0000
  C   C327      1.0  0.74206  0.95156  0.22748  1.0000
  S   S111      1.0  0.61013  0.17301  0.23040  1.0000
  H   H328      1.0  0.51886  0.10913  0.19005  1.0000
  H   H329      1.0  0.75672  0.12968  0.27313  1.0000
  S   S112      1.0  0.36444  0.11656  0.18236  1.0000
  C   C328      1.0  0.69298  0.14821  0.25304  1.0000
  H   H330      1.0  0.48062  0.97595  0.24768  1.0000
  C   C329      1.0  0.42142  0.82337  0.12937  1.0000
  H   H331      1.0  0.77434  0.87954  0.19832  1.0000
  H   H332      1.0  0.75098  0.76645  0.33521  1.0000
  H   H333      1.0  0.50143  0.11912  0.10620  1.0000
  C   C330      1.0  0.53789  0.10015  0.09651  1.0000
  H   H334      1.0  0.47683  0.88456  0.34057  1.0000
  H   H335      1.0  0.43616  0.71053  0.43892  1.0000
  H   H336      1.0  0.51004  0.03747  0.41646  1.0000
  H   H337      1.0  0.71331  0.98021  0.39720  1.0000
  C   C331      1.0  0.39593  0.98081  0.38702  1.0000
  C   C332      1.0  0.41150  0.06770  0.43246  1.0000
  H   H338      1.0  0.63947  0.02619  0.57911  1.0000
  C   C333      1.0  0.74633  0.80617  0.35176  1.0000
  H   H339      1.0  0.41323  0.74694  0.37138  1.0000
  H   H340      1.0  0.64181  0.70099  0.44593  1.0000
  H   H341      1.0  0.44585  0.09582  0.44182  1.0000
  C   C334      1.0  0.67511  0.80486  0.59149  1.0000
  H   H342      1.0  0.36794  0.06148  0.47631  1.0000
  S   S113      1.0  0.55294  0.93389  0.54768  1.0000
  C   C335      1.0  0.32894  0.88019  0.50807  1.0000
  S   S114      1.0  0.72872  0.72514  0.51506  1.0000
  C   C336      1.0  0.46209  0.85014  0.55577  1.0000
  H   H343      1.0  0.56236  0.87244  0.37430  1.0000
  H   H344      1.0  0.55675  0.75032  0.53830  1.0000
  C   C337      1.0  0.48226  0.00828  0.40145  1.0000
  H   H345      1.0  0.63825  0.87907  0.43814  1.0000
  H   H346      1.0  0.40480  0.08530  0.40043  1.0000
  H   H347      1.0  0.35513  0.98845  0.39060  1.0000
  C   C338      1.0  0.68857  0.81813  0.38943  1.0000
  C   C339      1.0  0.60641  0.12740  0.37467  1.0000
  H   H348      1.0  0.64823  0.78762  0.40274  1.0000
  H   H349      1.0  0.69151  0.95934  0.47077  1.0000
  H   H350      1.0  0.63146  0.14219  0.55200  1.0000
  N   N29       1.0  0.67820  0.10637  0.57950  1.0000
  C   C340      1.0  0.72712  0.96059  0.42175  1.0000
  S   S115      1.0  0.68934  0.11087  0.40185  1.0000
  C   C341      1.0  0.37858  0.71902  0.40431  1.0000
  C   C342      1.0  0.55847  0.79202  0.37914  1.0000
  H   H351      1.0  0.77008  0.98401  0.41976  1.0000
  C   C343      1.0  0.53023  0.77803  0.54324  1.0000
  H   H352      1.0  0.57335  0.12084  0.42214  1.0000
  N   N30       1.0  0.43078  0.01794  0.40601  1.0000
  C   C344      1.0  0.65469  0.14642  0.57819  1.0000
  H   H353      1.0  0.54105  0.95315  0.37331  1.0000
  C   C345      1.0  0.71883  0.78981  0.53342  1.0000
  C   C346      1.0  0.67140  0.05685  0.54637  1.0000
  H   H354      1.0  0.54224  0.14470  0.35392  1.0000
  C   C347      1.0  0.49985  0.96039  0.37746  1.0000
  C   C348      1.0  0.41197  0.93237  0.36314  1.0000
  H   H355      1.0  0.71638  0.04500  0.51795  1.0000
  C   C349      1.0  0.56835  0.74433  0.34698  1.0000
  H   H356      1.0  0.31078  0.71881  0.37989  1.0000
  H   H357      1.0  0.54357  0.79553  0.42731  1.0000
  C   C350      1.0  0.56885  0.83554  0.34910  1.0000
  H   H358      1.0  0.43607  0.87785  0.55965  1.0000
  C   C351      1.0  0.46410  0.92209  0.35870  1.0000
  S   S116      1.0  0.52291  0.18035  0.58046  1.0000
  C   C352      1.0  0.68326  0.86965  0.41003  1.0000
  N   N31       1.0  0.73418  0.90770  0.39582  1.0000
  C   C353      1.0  0.55437  0.83132  0.54325  1.0000
  H   H359      1.0  0.59924  0.84452  0.53907  1.0000
  C   C354      1.0  0.71362  0.89534  0.56517  1.0000
  C   C355      1.0  0.29399  0.87437  0.47946  1.0000
  H   H360      1.0  0.35097  0.84919  0.50422  1.0000
  C   C356      1.0  0.52060  0.86747  0.54917  1.0000
  C   C357      1.0  0.33160  0.92475  0.54537  1.0000
  C   C358      1.0  0.43726  0.79665  0.55721  1.0000
  H   H361      1.0  0.35657  0.92839  0.56945  1.0000
  H   H362      1.0  0.65331  0.05916  0.51591  1.0000
  H   H363      1.0  0.39217  0.78333  0.56214  1.0000
  S   S117      1.0  0.46555  0.03738  0.55302  1.0000
  C   C359      1.0  0.47148  0.76059  0.55074  1.0000
  S   S118      1.0  0.71588  0.96165  0.58685  1.0000
  C   C360      1.0  0.29891  0.96275  0.55408  1.0000
  C   C361      1.0  0.75594  0.88003  0.50656  1.0000
  C   C362      1.0  0.75815  0.82730  0.49052  1.0000
  H   H364      1.0  0.38369  0.90290  0.34880  1.0000
  C   C363      1.0  0.32048  0.70317  0.40964  1.0000
  C   C364      1.0  0.39146  0.69880  0.44218  1.0000
  C   C365      1.0  0.66714  0.12415  0.35231  1.0000
  C   C366      1.0  0.62111  0.16198  0.82561  1.0000
  H   H365      1.0  0.45478  0.96866  0.74604  1.0000
  H   H366      1.0  0.54825  0.14651  0.74334  1.0000
  H   H367      1.0  0.73691  0.16251  0.67187  1.0000
  H   H368      1.0  0.56316  0.82884  0.74792  1.0000
  C   C367      1.0  0.52624  0.79380  0.76055  1.0000
  C   C368      1.0  0.39896  0.98922  0.84100  1.0000
  Fe  Fe57      1.0  0.67311  0.05121  0.79376  1.0000
  H   H369      1.0  0.43301  0.18918  0.72553  1.0000
  H   H370      1.0  0.32146  0.18865  0.77523  1.0000
  S   S119      1.0  0.50503  0.05290  0.65848  1.0000
  S   S120      1.0  0.61135  0.00294  0.75971  1.0000
  C   C369      1.0  0.37237  0.82553  0.82078  1.0000
  H   H371      1.0  0.33807  0.84714  0.76854  1.0000
  C   C370      1.0  0.47607  0.81398  0.71011  1.0000
  C   C371      1.0  0.71426  0.15844  0.64510  1.0000
  S   S121      1.0  0.38710  0.96207  0.66909  1.0000
  Fe  Fe58      1.0  0.47691  0.10123  0.61724  1.0000
  H   H372      1.0  0.31701  0.18743  0.62775  1.0000
  H   H373      1.0  0.40021  0.14104  0.59819  1.0000
  H   H374      1.0  0.54249  0.76108  0.72698  1.0000
  Fe  Fe59      1.0  0.69382  0.97403  0.68459  1.0000
  S   S122      1.0  0.68065  0.90743  0.73593  1.0000
  S   S123      1.0  0.75724  0.02861  0.71334  1.0000
  H   H375      1.0  0.72532  0.07967  0.61421  1.0000
  H   H376      1.0  0.51053  0.91798  0.76477  1.0000
  C   C372      1.0  0.69909  0.75805  0.83566  1.0000
  Fe  Fe60      1.0  0.36904  0.01909  0.62792  1.0000
  H   H377      1.0  0.51545  0.78254  0.80545  1.0000
  H   H378      1.0  0.63780  0.86933  0.65142  1.0000
  H   H379      1.0  0.64403  0.77594  0.62438  1.0000
  H   H380      1.0  0.72862  0.73225  0.82881  1.0000
  C   C373      1.0  0.56378  0.16381  0.77559  1.0000
  C   C374      1.0  0.44347  0.96460  0.79226  1.0000
  C   C375      1.0  0.40971  0.18282  0.59856  1.0000
  H   H381      1.0  0.43009  0.83609  0.66991  1.0000
  N   N32       1.0  0.47281  0.80524  0.76296  1.0000
  H   H382      1.0  0.61572  0.10567  0.75675  1.0000
  C   C376      1.0  0.67212  0.85762  0.60706  1.0000
  C   C377      1.0  0.47493  0.93570  0.80293  1.0000
  C   C378      1.0  0.42730  0.82855  0.71150  1.0000
  H   H383      1.0  0.51696  0.81065  0.66664  1.0000
  C   C379      1.0  0.42157  0.81023  0.81786  1.0000
  Fe  Fe61      1.0  0.40510  0.03095  0.72562  1.0000
  C   C380      1.0  0.60142  0.14024  0.78366  1.0000
  C   C381      1.0  0.70738  0.11173  0.61262  1.0000
  C   C382      1.0  0.37538  0.83461  0.76713  1.0000
  S   S124      1.0  0.67284  0.70657  0.68811  1.0000
  S   S125      1.0  0.66501  0.13086  0.83871  1.0000
  Fe  Fe62      1.0  0.48555  0.98691  0.59936  1.0000
  S   S126      1.0  0.37892  0.08538  0.69022  1.0000
  Fe  Fe63      1.0  0.73931  0.96362  0.76899  1.0000
  Fe  Fe64      1.0  0.60204  0.94016  0.81356  1.0000
  C   C383      1.0  0.72068  0.81177  0.83528  1.0000
  S   S127      1.0  0.36291  0.02817  0.82678  1.0000
  H   H384      1.0  0.76648  0.82787  0.82813  1.0000
  C   C384      1.0  0.66012  0.19342  0.61074  1.0000
  S   S128      1.0  0.29482  0.01472  0.60669  1.0000
