data_image0
_chemical_formula_structural       CH2Fe2NSCHCHCSH4CH2SCFeCHC3HSC2HC3FeH2C3HC4HC2HC3NSNCH3SH2CHSCHFeHSC2SHC2H2CSC3HS2CH3FeHCSCSNH6SHNHC2SFeNFeH2CHFeC3HC3SCHFe2HNCH2C2HCSHCFeHC2SFeHS2C2HFeH2SCHC5HSC2HCH2SHC3SH2C2H2CHC3HSHCH2C2H5C2HFeNCSC4FeCSCHS2HCHSNH2CHNHSH2C3FeHC2HSCHCH3C2H3C2HC2FeH2CHCH2FeS2HC2HSHSH2SCHFeCHCFeC2HNSH2SFeC2SCNHC3H5C3HC4HC2HC3HC2HCH2SCH2SHC2H2C2SH3CHSHC3HCHSFeCHC2NHCSH2CNFeCHCSFeHSCHC2HNC2SHCHCH2SHFeHSC3H2FeS2HFeCH2C2HSCH2SCSCHFeH3C2HC2SCHCFeNC3HCHC2SH6CHC2HCNHCHCHCS2HCH4CH4FeCHC2HSH3CSH2C2HS2HFe2HCSC3HSNC4HFeHCSCHC2HFeC3HCH3C2HSCH2NSH2CSCNHCH3CHC2H3C2H2S2CHCH3CHCSH2FeHSHS2CHC2FeHCH2C2SCHCNHCH3SHCHSFeSHCFeHFeHC2H2SCFeCH4C2NCS2CHC4HCS2HCHC2H8NHFeHCHC2HCH3CH2FeCSHC2SH2C3HSCFeC2SC2S2CFeHFeCSCSCHCHSCHSCHCNCHC2S2C2FeCH3CHCFeHC2SCHCH3FeCH2SCHC2H5SCFeHCHC6FeH2CSH2C3SCS2FeHSHC2H2FeCHC2H3SFeCHCHC3NC3HSHFeCHSC2FeCNCH2C2HCSHSHCHC5FeC2NHC2H2SHNHCHC2HC2H5SFeSCSC2HFeCS2HCH2SC2H2CHSFeHSHCFeC4HCHC2HC2HCNCH3S2CHCN2HCHCHC2H2CH2C3H2FeCH2SHCHFeCNCHCHSHCH2CH2SHSHC2H2C2SH2FeH3SHCH2
_chemical_formula_sum              "C384 H384 Fe64 N32 S128"
_cell_length_a       24.4275
_cell_length_b       27.6784
_cell_length_c       24.5418
_cell_angle_alpha    93.8846
_cell_angle_beta     118.02
_cell_angle_gamma    90.3519

_space_group_name_H-M_alt    "P 1"
_space_group_IT_number       1

loop_
  _space_group_symop_operation_xyz
  'x, y, z'

loop_
  _atom_site_type_symbol
  _atom_site_label
  _atom_site_symmetry_multiplicity
  _atom_site_fract_x
  _atom_site_fract_y
  _atom_site_fract_z
  _atom_site_occupancy
  C   C1        1.0  0.00587  0.37846  0.96240  1.0000
  H   H1        1.0  0.94681  0.53478  0.96964  1.0000
  H   H2        1.0  0.83146  0.32441  0.97053  1.0000
  Fe  Fe1       1.0  0.69807  0.39329  0.92358  1.0000
  Fe  Fe2       1.0  0.04298  0.54053  0.93936  1.0000
  N   N1        1.0  0.73022  0.51820  0.07527  1.0000
  S   S1        1.0  0.75258  0.46417  0.94585  1.0000
  C   C2        1.0  0.91076  0.47677  0.89765  1.0000
  H   H3        1.0  0.86084  0.52711  0.99572  1.0000
  C   C3        1.0  0.60479  0.71079  0.94960  1.0000
  H   H4        1.0  0.90093  0.32583  0.92297  1.0000
  C   C4        1.0  0.76360  0.55086  0.05528  1.0000
  S   S2        1.0  0.59540  0.38958  0.89090  1.0000
  H   H5        1.0  0.85914  0.61525  0.01276  1.0000
  H   H6        1.0  0.76439  0.64780  0.91471  1.0000
  H   H7        1.0  0.03408  0.41292  0.97397  1.0000
  H   H8        1.0  0.80564  0.53347  0.05840  1.0000
  C   C5        1.0  0.97702  0.41048  0.04065  1.0000
  H   H9        1.0  0.01854  0.43406  0.06124  1.0000
  H   H10       1.0  0.89142  0.71891  0.97476  1.0000
  S   S3        1.0  0.60664  0.27161  0.89748  1.0000
  C   C6        1.0  0.81390  0.46732  0.92779  1.0000
  Fe  Fe3       1.0  0.70756  0.28424  0.92950  1.0000
  C   C7        1.0  0.91890  0.72257  0.90309  1.0000
  H   H11       1.0  0.73407  0.55965  0.00664  1.0000
  C   C8        1.0  0.75893  0.23721  0.10681  1.0000
  C   C9        1.0  0.59311  0.57851  0.99967  1.0000
  C   C10       1.0  0.88149  0.67113  0.08632  1.0000
  H   H12       1.0  0.94861  0.43501  0.10872  1.0000
  S   S4        1.0  0.80406  0.68412  0.06387  1.0000
  C   C11       1.0  0.88458  0.38071  0.04171  1.0000
  C   C12       1.0  0.91165  0.34978  0.96375  1.0000
  H   H13       1.0  0.77734  0.58577  0.08439  1.0000
  C   C13       1.0  0.61216  0.57980  0.12139  1.0000
  C   C14       1.0  0.68125  0.48919  0.03254  1.0000
  C   C15       1.0  0.87168  0.34934  0.98985  1.0000
  Fe  Fe4       1.0  0.61552  0.33629  0.96171  1.0000
  H   H14       1.0  0.96896  0.60564  0.03600  1.0000
  H   H15       1.0  0.61093  0.43484  0.01716  1.0000
  C   C16       1.0  0.86142  0.50299  0.95953  1.0000
  C   C17       1.0  0.95790  0.63127  0.06414  1.0000
  C   C18       1.0  0.61953  0.73305  0.90873  1.0000
  H   H16       1.0  0.85425  0.38036  0.06276  1.0000
  C   C19       1.0  0.91000  0.50748  0.94478  1.0000
  C   C20       1.0  0.66986  0.45440  0.11431  1.0000
  C   C21       1.0  0.65086  0.60824  0.10757  1.0000
  C   C22       1.0  0.65028  0.45707  0.05136  1.0000
  H   H17       1.0  0.64056  0.70603  0.99630  1.0000
  C   C23       1.0  0.00532  0.66010  0.11257  1.0000
  C   C24       1.0  0.93766  0.41136  0.06757  1.0000
  H   H18       1.0  0.77558  0.26042  0.08324  1.0000
  C   C25       1.0  0.92917  0.69866  0.13600  1.0000
  C   C26       1.0  0.89592  0.63651  0.05129  1.0000
  C   C27       1.0  0.64179  0.60714  0.04679  1.0000
  N   N2        1.0  0.96543  0.73485  0.88977  1.0000
  S   S5        1.0  0.71857  0.34477  0.99986  1.0000
  N   N3        1.0  0.96331  0.38027  0.98900  1.0000
  C   C28       1.0  0.92860  0.72728  0.96413  1.0000
  H   H19       1.0  0.66475  0.49163  0.98342  1.0000
  H   H20       1.0  0.67196  0.62897  0.03627  1.0000
  H   H21       1.0  0.97961  0.37352  0.91100  1.0000
  S   S6        1.0  0.02295  0.61912  0.94533  1.0000
  H   H22       1.0  0.64652  0.42905  0.12929  1.0000
  H   H23       1.0  0.67581  0.27572  0.08385  1.0000
  C   C29       1.0  0.70265  0.24548  0.10720  1.0000
  H   H24       1.0  0.03760  0.34813  0.98025  1.0000
  S   S7        1.0  0.58056  0.57800  0.92350  1.0000
  C   C30       1.0  0.74978  0.51586  0.13709  1.0000
  H   H25       1.0  0.60573  0.26077  0.12179  1.0000
  Fe  Fe5       1.0  0.79860  0.34468  0.26483  1.0000
  H   H26       1.0  0.71718  0.41952  0.29734  1.0000
  S   S8        1.0  0.64381  0.72497  0.18749  1.0000
  C   C31       1.0  0.83898  0.53439  0.33445  1.0000
  C   C32       1.0  0.79223  0.70199  0.28499  1.0000
  S   S9        1.0  0.81073  0.38936  0.19856  1.0000
  H   H27       1.0  0.75869  0.67159  0.26855  1.0000
  C   C33       1.0  0.78204  0.71087  0.37996  1.0000
  C   C34       1.0  0.70877  0.30185  0.31522  1.0000
  H   H28       1.0  0.68746  0.63148  0.14366  1.0000
  H   H29       1.0  0.60979  0.29595  0.28023  1.0000
  C   C35       1.0  0.76692  0.29814  0.36656  1.0000
  S   S10       1.0  0.87190  0.29437  0.27179  1.0000
  C   C36       1.0  0.66392  0.48240  0.29270  1.0000
  C   C37       1.0  0.65908  0.27949  0.37586  1.0000
  C   C38       1.0  0.76266  0.58345  0.34623  1.0000
  H   H30       1.0  0.93542  0.65842  0.25236  1.0000
  S   S11       1.0  0.61818  0.58674  0.19513  1.0000
  S   S12       1.0  0.90786  0.29940  0.14283  1.0000
  C   C39       1.0  0.81706  0.71656  0.24726  1.0000
  H   H31       1.0  0.98892  0.58017  0.37539  1.0000
  H   H32       1.0  0.91849  0.72475  0.16406  1.0000
  H   H33       1.0  0.78863  0.53874  0.17087  1.0000
  Fe  Fe6       1.0  0.93808  0.34428  0.35116  1.0000
  H   H34       1.0  0.80250  0.69810  0.20178  1.0000
  C   C40       1.0  0.99096  0.69321  0.14911  1.0000
  S   S13       1.0  0.57838  0.70207  0.27284  1.0000
  C   C41       1.0  0.79312  0.56853  0.31213  1.0000
  S   S14       1.0  0.96007  0.39121  0.29248  1.0000
  N   N4        1.0  0.99676  0.60337  0.29790  1.0000
  H   H35       1.0  0.73335  0.69675  0.35125  1.0000
  H   H36       1.0  0.80873  0.30408  0.36293  1.0000
  H   H37       1.0  0.72576  0.60860  0.32776  1.0000
  H   H38       1.0  0.73580  0.48268  0.20674  1.0000
  H   H39       1.0  0.90384  0.59671  0.22636  1.0000
  H   H40       1.0  0.66462  0.49480  0.25208  1.0000
  S   S15       1.0  0.70376  0.31958  0.24608  1.0000
  H   H41       1.0  0.91301  0.62434  0.29890  1.0000
  N   N5        1.0  0.63457  0.49489  0.37311  1.0000
  H   H42       1.0  0.00181  0.29918  0.27018  1.0000
  C   C42       1.0  0.71968  0.48431  0.15757  1.0000
  C   C43       1.0  0.96089  0.25573  0.18307  1.0000
  S   S16       1.0  0.87515  0.51482  0.29008  1.0000
  Fe  Fe7       1.0  0.59081  0.66326  0.19717  1.0000
  N   N6        1.0  0.80863  0.72655  0.34116  1.0000
  Fe  Fe8       1.0  0.89030  0.34270  0.21285  1.0000
  H   H43       1.0  0.61273  0.54248  0.30131  1.0000
  H   H44       1.0  0.02732  0.71574  0.18654  1.0000
  C   C44       1.0  0.93399  0.62160  0.26731  1.0000
  H   H45       1.0  0.77974  0.58243  0.26766  1.0000
  Fe  Fe9       1.0  0.87918  0.43372  0.28441  1.0000
  C   C45       1.0  0.69354  0.44046  0.31828  1.0000
  C   C46       1.0  0.00135  0.26482  0.24642  1.0000
  C   C47       1.0  0.65477  0.29267  0.31981  1.0000
  H   H46       1.0  0.01563  0.62004  0.22473  1.0000
  C   C48       1.0  0.63431  0.50925  0.32073  1.0000
  C   C49       1.0  0.03311  0.60537  0.26937  1.0000
  C   C50       1.0  0.01824  0.58343  0.35348  1.0000
  S   S17       1.0  0.86301  0.39108  0.35024  1.0000
  C   C51       1.0  0.69268  0.42563  0.37110  1.0000
  H   H47       1.0  0.61741  0.27157  0.37931  1.0000
  Fe  Fe10      1.0  0.97358  0.73536  0.50965  1.0000
  Fe  Fe11      1.0  0.77355  0.55579  0.53838  1.0000
  H   H48       1.0  0.81047  0.68247  0.40944  1.0000
  N   N7        1.0  0.66024  0.68419  0.55804  1.0000
  C   C52       1.0  0.74977  0.69186  0.54224  1.0000
  H   H49       1.0  0.66205  0.44157  0.43902  1.0000
  H   H50       1.0  0.97587  0.43952  0.46241  1.0000
  C   C53       1.0  0.59435  0.48750  0.56669  1.0000
  C   C54       1.0  0.60316  0.52342  0.40179  1.0000
  H   H51       1.0  0.71538  0.39296  0.39124  1.0000
  C   C55       1.0  0.71740  0.27648  0.42743  1.0000
  S   S18       1.0  0.02017  0.31262  0.42707  1.0000
  H   H52       1.0  0.90743  0.24699  0.52876  1.0000
  C   C56       1.0  0.77004  0.73348  0.58290  1.0000
  Fe  Fe12      1.0  0.02948  0.73088  0.42308  1.0000
  H   H53       1.0  0.81613  0.28308  0.46237  1.0000
  C   C57       1.0  0.97195  0.53281  0.57949  1.0000
  C   C58       1.0  0.05815  0.24698  0.51333  1.0000
  S   S19       1.0  0.86120  0.58648  0.61918  1.0000
  Fe  Fe13      1.0  0.75037  0.48545  0.61636  1.0000
  H   H54       1.0  0.58188  0.63641  0.50083  1.0000
  S   S20       1.0  0.71990  0.56069  0.59189  1.0000
  S   S21       1.0  0.97092  0.67711  0.43965  1.0000
  C   C59       1.0  0.60334  0.65750  0.54659  1.0000
  C   C60       1.0  0.69460  0.66738  0.53062  1.0000
  H   H55       1.0  0.61378  0.63174  0.58252  1.0000
  Fe  Fe14      1.0  0.06108  0.65535  0.51656  1.0000
  H   H56       1.0  0.84562  0.27504  0.60621  1.0000
  H   H57       1.0  0.60227  0.56215  0.39198  1.0000
  S   S22       1.0  0.69050  0.42839  0.62449  1.0000
  C   C61       1.0  0.01107  0.42014  0.49853  1.0000
  H   H58       1.0  0.61163  0.49130  0.53396  1.0000
  C   C62       1.0  0.62320  0.45682  0.61444  1.0000
  C   C63       1.0  0.67988  0.72487  0.59810  1.0000
  C   C64       1.0  0.99539  0.39577  0.53769  1.0000
  C   C65       1.0  0.06425  0.48792  0.63428  1.0000
  C   C66       1.0  0.95550  0.27660  0.48288  1.0000
  H   H59       1.0  0.73753  0.33407  0.59358  1.0000
  S   S23       1.0  0.72356  0.25685  0.49615  1.0000
  C   C67       1.0  0.85478  0.51570  0.39133  1.0000
  C   C68       1.0  0.77875  0.56512  0.40337  1.0000
  H   H60       1.0  0.67854  0.63543  0.49848  1.0000
  C   C69       1.0  0.01001  0.27640  0.47749  1.0000
  H   H61       1.0  0.92465  0.53983  0.56764  1.0000
  H   H62       1.0  0.91843  0.29954  0.45547  1.0000
  S   S24       1.0  0.79553  0.47811  0.55559  1.0000
  H   H63       1.0  0.62840  0.52292  0.45291  1.0000
  C   C70       1.0  0.04068  0.37080  0.58448  1.0000
  C   C71       1.0  0.82476  0.53108  0.42582  1.0000
  C   C72       1.0  0.77120  0.28595  0.42277  1.0000
  S   S25       1.0  0.73961  0.58461  0.44488  1.0000
  H   H64       1.0  0.89099  0.49011  0.40944  1.0000
  H   H65       1.0  0.77657  0.67871  0.51976  1.0000
  C   C73       1.0  0.57595  0.68679  0.39903  1.0000
  C   C74       1.0  0.66245  0.45330  0.39789  1.0000
  H   H66       1.0  0.83716  0.51650  0.46962  1.0000
  H   H67       1.0  0.97675  0.58516  0.52078  1.0000
  C   C75       1.0  0.94946  0.24724  0.52443  1.0000
  H   H68       1.0  0.94879  0.39673  0.53237  1.0000
  C   C76       1.0  0.00127  0.55801  0.55234  1.0000
  C   C77       1.0  0.60032  0.73338  0.42675  1.0000
  C   C78       1.0  0.06209  0.54805  0.56614  1.0000
  H   H69       1.0  0.02935  0.35185  0.61532  1.0000
  S   S26       1.0  0.05891  0.70897  0.58774  1.0000
  H   H70       1.0  0.05090  0.47048  0.43787  1.0000
  C   C79       1.0  0.00401  0.49908  0.62205  1.0000
  H   H71       1.0  0.60438  0.66147  0.38922  1.0000
  H   H72       1.0  0.75944  0.27818  0.63117  1.0000
  C   C80       1.0  0.62820  0.51743  0.81127  1.0000
  C   C81       1.0  0.74899  0.66825  0.73589  1.0000
  H   H73       1.0  0.58800  0.53567  0.77598  1.0000
  H   H74       1.0  0.00928  0.58793  0.81625  1.0000
  H   H75       1.0  0.83787  0.62009  0.87594  1.0000
  H   H76       1.0  0.87385  0.70947  0.86632  1.0000
  H   H77       1.0  0.00398  0.37082  0.71813  1.0000
  C   C82       1.0  0.79500  0.59946  0.86258  1.0000
  C   C83       1.0  0.79216  0.24501  0.80137  1.0000
  H   H78       1.0  0.94031  0.41863  0.75473  1.0000
  Fe  Fe15      1.0  0.99179  0.25552  0.81941  1.0000
  N   N8        1.0  0.83202  0.33242  0.66059  1.0000
  C   C84       1.0  0.86642  0.30633  0.63918  1.0000
  S   S27       1.0  0.97117  0.48250  0.87883  1.0000
  C   C85       1.0  0.69640  0.63680  0.71169  1.0000
  C   C86       1.0  0.95575  0.35979  0.70205  1.0000
  C   C87       1.0  0.60039  0.45127  0.65633  1.0000
  C   C88       1.0  0.63945  0.65399  0.70425  1.0000
  Fe  Fe16      1.0  0.59279  0.32539  0.82833  1.0000
  C   C89       1.0  0.92898  0.31929  0.66005  1.0000
  S   S28       1.0  0.05231  0.32341  0.85309  1.0000
  C   C90       1.0  0.74485  0.71648  0.75447  1.0000
  H   H79       1.0  0.62946  0.47998  0.79262  1.0000
  S   S29       1.0  0.69384  0.33354  0.85556  1.0000
  S   S30       1.0  0.88848  0.25970  0.77739  1.0000
  H   H80       1.0  0.86388  0.41717  0.82933  1.0000
  C   C91       1.0  0.91997  0.38671  0.72267  1.0000
  H   H81       1.0  0.95867  0.68977  0.81358  1.0000
  S   S31       1.0  0.81988  0.64844  0.74211  1.0000
  N   N9        1.0  0.68581  0.54561  0.82864  1.0000
  H   H82       1.0  0.81213  0.54529  0.80590  1.0000
  H   H83       1.0  0.00378  0.52393  0.79212  1.0000
  C   C92       1.0  0.63454  0.70299  0.71912  1.0000
  H   H84       1.0  0.71429  0.49814  0.77519  1.0000
  N   N10       1.0  0.05098  0.56982  0.75938  1.0000
  H   H85       1.0  0.82972  0.39416  0.71623  1.0000
  S   S32       1.0  0.83723  0.51001  0.70218  1.0000
  H   H86       1.0  0.95655  0.29792  0.64406  1.0000
  H   H87       1.0  0.95644  0.56499  0.73831  1.0000
  C   C93       1.0  0.00293  0.56128  0.77774  1.0000
  C   C94       1.0  0.85636  0.24362  0.82437  1.0000
  C   C95       1.0  0.04788  0.60930  0.72763  1.0000
  Fe  Fe17      1.0  0.80981  0.58523  0.67447  1.0000
  H   H88       1.0  0.01019  0.63378  0.71587  1.0000
  C   C96       1.0  0.78044  0.55741  0.82295  1.0000
  C   C97       1.0  0.68764  0.73392  0.74560  1.0000
  H   H89       1.0  0.76295  0.25479  0.75468  1.0000
  S   S33       1.0  0.96998  0.47301  0.66229  1.0000
  C   C98       1.0  0.72507  0.53091  0.80589  1.0000
  H   H90       1.0  0.75050  0.33106  0.67198  1.0000
  C   C99       1.0  0.85761  0.37271  0.70082  1.0000
  H   H91       1.0  0.59859  0.62977  0.68431  1.0000
  H   H92       1.0  0.69936  0.59929  0.69829  1.0000
  H   H93       1.0  0.62274  0.42761  0.69336  1.0000
  C   C100      1.0  0.75391  0.61491  0.88421  1.0000
  C   C101      1.0  0.69906  0.58746  0.86640  1.0000
  H   H94       1.0  0.66725  0.59971  0.88320  1.0000
  H   H95       1.0  0.62137  0.51385  0.85253  1.0000
  H   H96       1.0  0.71607  0.23723  0.82167  1.0000
  C   C102      1.0  0.81493  0.43623  0.88095  1.0000
  C   C103      1.0  0.95443  0.72851  0.82559  1.0000
  H   H97       1.0  0.77805  0.40903  0.85568  1.0000
  C   C104      1.0  0.86325  0.44111  0.86571  1.0000
  C   C105      1.0  0.76663  0.31826  0.63824  1.0000
  Fe  Fe18      1.0  0.88056  0.50857  0.63950  1.0000
  H   H98       1.0  0.68261  0.02605  0.90306  1.0000
  H   H99       1.0  0.58670  0.19642  0.10211  1.0000
  C   C106      1.0  0.98654  0.74394  0.01157  1.0000
  H   H100      1.0  0.94331  0.22875  0.90233  1.0000
  C   C107      1.0  0.86725  0.22052  0.92251  1.0000
  H   H101      1.0  0.73422  0.98110  0.10723  1.0000
  H   H102      1.0  0.66599  0.95623  0.04066  1.0000
  Fe  Fe19      1.0  0.86531  0.84521  0.02574  1.0000
  S   S34       1.0  0.79086  0.78969  0.96524  1.0000
  S   S35       1.0  0.79954  0.90125  0.02549  1.0000
  H   H103      1.0  0.99413  0.74968  0.05877  1.0000
  C   C108      1.0  0.03413  0.75508  0.99781  1.0000
  C   C109      1.0  0.60901  0.93249  0.10207  1.0000
  H   H104      1.0  0.83749  0.19202  0.13656  1.0000
  S   S36       1.0  0.77169  0.22275  0.95098  1.0000
  H   H105      1.0  0.70934  0.93976  0.91215  1.0000
  S   S37       1.0  0.72787  0.81349  0.05558  1.0000
  H   H106      1.0  0.58659  0.91885  0.05384  1.0000
  H   H107      1.0  0.05987  0.76017  0.92609  1.0000
  S   S38       1.0  0.94750  0.85694  0.01077  1.0000
  C   C110      1.0  0.01152  0.87445  0.08241  1.0000
  H   H108      1.0  0.95701  0.90051  0.12551  1.0000
  Fe  Fe20      1.0  0.72537  0.84322  0.97163  1.0000
  C   C111      1.0  0.00324  0.89462  0.13175  1.0000
  H   H109      1.0  0.66688  0.01778  0.07066  1.0000
  C   C112      1.0  0.80341  0.22469  0.90049  1.0000
  Fe  Fe21      1.0  0.79923  0.76427  0.05334  1.0000
  C   C113      1.0  0.02269  0.75062  0.93628  1.0000
  C   C114      1.0  0.68263  0.98077  0.08373  1.0000
  H   H110      1.0  0.93001  0.20376  0.10392  1.0000
  N   N11       1.0  0.65920  0.96440  0.12481  1.0000
  S   S39       1.0  0.05579  0.21447  0.89932  1.0000
  H   H111      1.0  0.66676  0.74544  0.92310  1.0000
  H   H112      1.0  0.89649  0.21249  0.97001  1.0000
  S   S40       1.0  0.87869  0.81612  0.11367  1.0000
  Fe  Fe22      1.0  0.80709  0.86802  0.10932  1.0000
  C   C115      1.0  0.79381  0.19852  0.13677  1.0000
  C   C116      1.0  0.66165  0.94944  0.89524  1.0000
  S   S41       1.0  0.63284  0.85254  0.88988  1.0000
  C   C117      1.0  0.64632  0.99823  0.88896  1.0000
  N   N12       1.0  0.68178  0.21588  0.13666  1.0000
  H   H113      1.0  0.06513  0.08852  0.08488  1.0000
  C   C118      1.0  0.62198  0.22387  0.13540  1.0000
  C   C119      1.0  0.05499  0.90995  0.18826  1.0000
  C   C120      1.0  0.87803  0.77950  0.32633  1.0000
  H   H114      1.0  0.93129  0.04486  0.30935  1.0000
  H   H115      1.0  0.69790  0.15334  0.18778  1.0000
  H   H116      1.0  0.60754  0.08055  0.26859  1.0000
  H   H117      1.0  0.82509  0.07561  0.26596  1.0000
  H   H118      1.0  0.68691  0.98199  0.27346  1.0000
  C   C121      1.0  0.58620  0.91676  0.14084  1.0000
  C   C122      1.0  0.61474  0.93420  0.20303  1.0000
  C   C123      1.0  0.57186  0.05332  0.24008  1.0000
  H   H119      1.0  0.81243  0.87622  0.37994  1.0000
  C   C124      1.0  0.99291  0.94787  0.29576  1.0000
  C   C125      1.0  0.96140  0.21104  0.15290  1.0000
  C   C126      1.0  0.93081  0.19099  0.35657  1.0000
  C   C127      1.0  0.79081  0.88994  0.23445  1.0000
  H   H120      1.0  0.03377  0.84086  0.36105  1.0000
  C   C128      1.0  0.66505  0.96748  0.22550  1.0000
  C   C129      1.0  0.73353  0.84662  0.29573  1.0000
  H   H121      1.0  0.02720  0.13216  0.35675  1.0000
  C   C130      1.0  0.71525  0.17738  0.16549  1.0000
  C   C131      1.0  0.87255  0.19554  0.35402  1.0000
  C   C132      1.0  0.81798  0.89575  0.29914  1.0000
  H   H122      1.0  0.72551  0.00858  0.20326  1.0000
  C   C133      1.0  0.77197  0.16831  0.16634  1.0000
  C   C134      1.0  0.98631  0.90066  0.30942  1.0000
  H   H123      1.0  0.59746  0.92236  0.23357  1.0000
  C   C135      1.0  0.04273  0.22990  0.27938  1.0000
  H   H124      1.0  0.06661  0.04615  0.34723  1.0000
  H   H125      1.0  0.83856  0.21879  0.32262  1.0000
  S   S42       1.0  0.73968  0.08119  0.31563  1.0000
  C   C136      1.0  0.03858  0.87726  0.34981  1.0000
  H   H126      1.0  0.91152  0.80990  0.34305  1.0000
  H   H127      1.0  0.71201  0.86077  0.15077  1.0000
  S   S43       1.0  0.69841  0.81634  0.33254  1.0000
  H   H128      1.0  0.00172  0.14081  0.16310  1.0000
  C   C137      1.0  0.68656  0.98254  0.18542  1.0000
  C   C138      1.0  0.92666  0.01392  0.38540  1.0000
  H   H129      1.0  0.79843  0.13784  0.18923  1.0000
  H   H130      1.0  0.62650  0.22078  0.18224  1.0000
  C   C139      1.0  0.78977  0.87349  0.32993  1.0000
  C   C140      1.0  0.80780  0.05005  0.33763  1.0000
  S   S44       1.0  0.64333  0.14195  0.38623  1.0000
  H   H131      1.0  0.87993  0.76745  0.23959  1.0000
  H   H132      1.0  0.04845  0.92776  0.22474  1.0000
  H   H133      1.0  0.01500  0.03135  0.26605  1.0000
  C   C141      1.0  0.86023  0.75563  0.26822  1.0000
  H   H134      1.0  0.95174  0.96583  0.26477  1.0000
  S   S45       1.0  0.82732  0.91485  0.19569  1.0000
  H   H135      1.0  0.66081  0.82446  0.20413  1.0000
  C   C142      1.0  0.73454  0.86366  0.20067  1.0000
  C   C143      1.0  0.00173  0.17541  0.18639  1.0000
  C   C144      1.0  0.84268  0.05527  0.30646  1.0000
  H   H136      1.0  0.94083  0.88254  0.28895  1.0000
  C   C145      1.0  0.70559  0.84273  0.23116  1.0000
  H   H137      1.0  0.94266  0.21159  0.32723  1.0000
  S   S46       1.0  0.02623  0.73846  0.33147  1.0000
  Fe  Fe23      1.0  0.62462  0.76630  0.25801  1.0000
  C   C146      1.0  0.85159  0.76442  0.36238  1.0000
  H   H138      1.0  0.58490  0.85110  0.34607  1.0000
  C   C147      1.0  0.90255  0.03753  0.33071  1.0000
  C   C148      1.0  0.04296  0.18509  0.24959  1.0000
  N   N13       1.0  0.05035  0.97090  0.32116  1.0000
  H   H139      1.0  0.86145  0.91644  0.32544  1.0000
  C   C149      1.0  0.05728  0.02041  0.30682  1.0000
  S   S47       1.0  0.57365  0.09246  0.14141  1.0000
  H   H140      1.0  0.97403  0.92391  0.56667  1.0000
  H   H141      1.0  0.83208  0.96092  0.48994  1.0000
  C   C150      1.0  0.95823  0.13455  0.43278  1.0000
  N   N14       1.0  0.97298  0.16119  0.39630  1.0000
  Fe  Fe24      1.0  0.62188  0.08928  0.43973  1.0000
  C   C151      1.0  0.92860  0.81691  0.63380  1.0000
  H   H142      1.0  0.61767  0.93053  0.39560  1.0000
  C   C152      1.0  0.80884  0.93663  0.50602  1.0000
  S   S48       1.0  0.69204  0.03672  0.44155  1.0000
  Fe  Fe25      1.0  0.71110  0.17648  0.47899  1.0000
  H   H143      1.0  0.72795  0.85121  0.56624  1.0000
  S   S49       1.0  0.81805  0.04730  0.61840  1.0000
  C   C153      1.0  0.96191  0.89408  0.58576  1.0000
  H   H144      1.0  0.78057  0.74176  0.41062  1.0000
  C   C154      1.0  0.82820  0.93613  0.56932  1.0000
  C   C155      1.0  0.58422  0.93084  0.41432  1.0000
  H   H145      1.0  0.69398  0.84891  0.45384  1.0000
  N   N15       1.0  0.79887  0.90610  0.59036  1.0000
  C   C156      1.0  0.88942  0.00488  0.41305  1.0000
  C   C157      1.0  0.99689  0.21664  0.55869  1.0000
  S   S50       1.0  0.02573  0.79102  0.48704  1.0000
  H   H146      1.0  0.62478  0.98493  0.60508  1.0000
  C   C158      1.0  0.90136  0.13916  0.43257  1.0000
  H   H147      1.0  0.90702  0.98435  0.45333  1.0000
  C   C159      1.0  0.75119  0.87507  0.54967  1.0000
  H   H148      1.0  0.60863  0.92441  0.46421  1.0000
  H   H149      1.0  0.86484  0.78371  0.40704  1.0000
  S   S51       1.0  0.89582  0.75568  0.52989  1.0000
  H   H150      1.0  0.87736  0.14840  0.62015  1.0000
  Fe  Fe26      1.0  0.03455  0.10755  0.61071  1.0000
  H   H151      1.0  0.06756  0.14060  0.44021  1.0000
  S   S52       1.0  0.98703  0.17737  0.60664  1.0000
  C   C160      1.0  0.75966  0.90566  0.46415  1.0000
  C   C161      1.0  0.92077  0.81171  0.57340  1.0000
  C   C162      1.0  0.93695  0.85046  0.54928  1.0000
  H   H152      1.0  0.68918  0.01654  0.56136  1.0000
  H   H153      1.0  0.99012  0.10916  0.46188  1.0000
  Fe  Fe27      1.0  0.03697  0.02346  0.52550  1.0000
  S   S53       1.0  0.60047  0.81908  0.48884  1.0000
  S   S54       1.0  0.00590  0.00347  0.42505  1.0000
  H   H154      1.0  0.74350  0.90613  0.41483  1.0000
  Fe  Fe28      1.0  0.75577  0.07939  0.53046  1.0000
  C   C163      1.0  0.85821  0.16988  0.39285  1.0000
  H   H155      1.0  0.93036  0.84686  0.50243  1.0000
  H   H156      1.0  0.80290  0.01920  0.41329  1.0000
  C   C164      1.0  0.67300  0.99486  0.63534  1.0000
  C   C165      1.0  0.73131  0.87400  0.48604  1.0000
  H   H157      1.0  0.81327  0.17324  0.39125  1.0000
  S   S55       1.0  0.78905  0.13139  0.48556  1.0000
  C   C166      1.0  0.70946  0.01301  0.61059  1.0000
  H   H158      1.0  0.89081  0.11820  0.46235  1.0000
  H   H159      1.0  0.81269  0.75264  0.59199  1.0000
  S   S56       1.0  0.68367  0.12797  0.53183  1.0000
  C   C167      1.0  0.05118  0.21656  0.55311  1.0000
  S   S57       1.0  0.97105  0.04267  0.56261  1.0000
  C   C168      1.0  0.73513  0.75005  0.61141  1.0000
  H   H160      1.0  0.65257  0.73792  0.61981  1.0000
  Fe  Fe29      1.0  0.71921  0.09296  0.39574  1.0000
  H   H161      1.0  0.64705  0.74423  0.43707  1.0000
  H   H162      1.0  0.05258  0.19215  0.39599  1.0000
  H   H163      1.0  0.86674  0.96024  0.60146  1.0000
  C   C169      1.0  0.83032  0.02370  0.38984  1.0000
  C   C170      1.0  0.03306  0.15614  0.39735  1.0000
  H   H164      1.0  0.75054  0.78199  0.64374  1.0000
  C   C171      1.0  0.89360  0.13613  0.76188  1.0000
  C   C172      1.0  0.77216  0.02572  0.64938  1.0000
  S   S58       1.0  0.63031  0.83586  0.65431  1.0000
  C   C173      1.0  0.98437  0.07549  0.76474  1.0000
  H   H165      1.0  0.58450  0.75929  0.81884  1.0000
  C   C174      1.0  0.95362  0.86058  0.67034  1.0000
  Fe  Fe30      1.0  0.59181  0.90558  0.66964  1.0000
  N   N16       1.0  0.63967  0.13281  0.78671  1.0000
  C   C175      1.0  0.69876  0.99066  0.69908  1.0000
  C   C176      1.0  0.81825  0.90667  0.65672  1.0000
  C   C177      1.0  0.95268  0.10394  0.71515  1.0000
  H   H166      1.0  0.01940  0.05153  0.76498  1.0000
  C   C178      1.0  0.97201  0.07924  0.81479  1.0000
  H   H167      1.0  0.96065  0.86433  0.71739  1.0000
  C   C179      1.0  0.79821  0.02080  0.71294  1.0000
  C   C180      1.0  0.57247  0.74095  0.84968  1.0000
  S   S59       1.0  0.00047  0.95383  0.69182  1.0000
  H   H168      1.0  0.99788  0.05843  0.85429  1.0000
  H   H169      1.0  0.68447  0.77152  0.75875  1.0000
  H   H170      1.0  0.96359  0.10170  0.67709  1.0000
  H   H171      1.0  0.85628  0.93443  0.68422  1.0000
  H   H172      1.0  0.84692  0.02968  0.74271  1.0000
  H   H173      1.0  0.69287  0.11039  0.87838  1.0000
  C   C181      1.0  0.58454  0.01080  0.86715  1.0000
  H   H174      1.0  0.68975  0.06906  0.81741  1.0000
  C   C182      1.0  0.57704  0.15120  0.68105  1.0000
  C   C183      1.0  0.69245  0.10821  0.83272  1.0000
  H   H175      1.0  0.89642  0.20063  0.67457  1.0000
  C   C184      1.0  0.62696  0.12783  0.72600  1.0000
  N   N17       1.0  0.90744  0.13339  0.71391  1.0000
  H   H176      1.0  0.82500  0.16494  0.64952  1.0000
  C   C185      1.0  0.76120  0.00420  0.73800  1.0000
  H   H177      1.0  0.61466  0.16552  0.85273  1.0000
  C   C186      1.0  0.87489  0.16347  0.66200  1.0000
  H   H178      1.0  0.77854  0.91553  0.66540  1.0000
  C   C187      1.0  0.60438  0.16134  0.80451  1.0000
  S   S60       1.0  0.03060  0.22715  0.75763  1.0000
  S   S61       1.0  0.65342  0.96844  0.73044  1.0000
  H   H179      1.0  0.65550  0.10555  0.71222  1.0000
  C   C188      1.0  0.61506  0.91337  0.87873  1.0000
  H   H180      1.0  0.83542  0.87085  0.67369  1.0000
  H   H181      1.0  0.91580  0.11290  0.85189  1.0000
  H   H182      1.0  0.91780  0.78665  0.65325  1.0000
  H   H183      1.0  0.78528  0.74101  0.77363  1.0000
  C   C189      1.0  0.92633  0.10985  0.81356  1.0000
  H   H184      1.0  0.78130  0.00057  0.78727  1.0000
  H   H185      1.0  0.73668  0.12535  0.83963  1.0000
  H   H186      1.0  0.98853  0.75052  0.81859  1.0000
  H   H187      1.0  0.85686  0.15863  0.76012  1.0000
  Fe  Fe31      1.0  0.03393  0.00323  0.64408  1.0000
  C   C190      1.0  0.97063  0.89904  0.64644  1.0000
  H   H188      1.0  0.90722  0.73965  0.79312  1.0000
  C   C191      1.0  0.89378  0.22999  0.88433  1.0000
  C   C192      1.0  0.76569  0.23536  0.83934  1.0000
  H   H189      1.0  0.53190  0.67841  0.96236  1.0000
  S   S62       1.0  0.08222  0.65715  0.12610  1.0000
  H   H190      1.0  0.20345  0.62355  0.88973  1.0000
  H   H191      1.0  0.15862  0.46998  0.98202  1.0000
  H   H192      1.0  0.48956  0.30993  0.07123  1.0000
  C   C193      1.0  0.34844  0.37808  0.98234  1.0000
  S   S63       1.0  0.17261  0.63911  0.03517  1.0000
  H   H193      1.0  0.28703  0.62232  0.01120  1.0000
  H   H194      1.0  0.22000  0.44677  0.92272  1.0000
  C   C194      1.0  0.55411  0.55032  0.01340  1.0000
  C   C195      1.0  0.42956  0.24777  0.90558  1.0000
  H   H195      1.0  0.27146  0.32739  0.95804  1.0000
  S   S64       1.0  0.12304  0.55476  0.92100  1.0000
  S   S65       1.0  0.50005  0.68416  0.12156  1.0000
  H   H196      1.0  0.12538  0.38413  0.96386  1.0000
  Fe  Fe32      1.0  0.08986  0.61881  0.04663  1.0000
  Fe  Fe33      1.0  0.10718  0.63313  0.93333  1.0000
  H   H197      1.0  0.42182  0.39393  0.89800  1.0000
  C   C196      1.0  0.56399  0.55061  0.07445  1.0000
  S   S66       1.0  0.27057  0.52146  0.07086  1.0000
  C   C197      1.0  0.18897  0.44457  0.01235  1.0000
  C   C198      1.0  0.28080  0.71494  0.98637  1.0000
  C   C199      1.0  0.26653  0.37744  0.08970  1.0000
  H   H198      1.0  0.49967  0.29173  0.90118  1.0000
  S   S67       1.0  0.10286  0.53899  0.04182  1.0000
  N   N18       1.0  0.32841  0.68494  0.99668  1.0000
  C   C200      1.0  0.47930  0.28195  0.92960  1.0000
  C   C201      1.0  0.43764  0.43296  0.00692  1.0000
  C   C202      1.0  0.50239  0.30312  0.99002  1.0000
  C   C203      1.0  0.38845  0.37985  0.91099  1.0000
  H   H199      1.0  0.41062  0.67372  0.98848  1.0000
  Fe  Fe34      1.0  0.18149  0.55915  0.02369  1.0000
  H   H200      1.0  0.34905  0.39160  0.02511  1.0000
  C   C204      1.0  0.42134  0.25977  0.00008  1.0000
  S   S68       1.0  0.18238  0.30148  0.02909  1.0000
  C   C205      1.0  0.33340  0.64072  0.02819  1.0000
  H   H201      1.0  0.42079  0.45585  0.03452  1.0000
  C   C206      1.0  0.30424  0.34183  0.94441  1.0000
  C   C207      1.0  0.16997  0.39568  0.00188  1.0000
  H   H202      1.0  0.39865  0.25130  0.02714  1.0000
  Fe  Fe35      1.0  0.12016  0.28001  0.92837  1.0000
  C   C208      1.0  0.37209  0.69676  0.97926  1.0000
  C   C209      1.0  0.40090  0.23640  0.94097  1.0000
  C   C210      1.0  0.20811  0.36220  0.04100  1.0000
  H   H203      1.0  0.35409  0.64991  0.07891  1.0000
  C   C211      1.0  0.28687  0.42632  0.09842  1.0000
  H   H204      1.0  0.51651  0.52811  0.97698  1.0000
  H   H205      1.0  0.36242  0.61387  0.01905  1.0000
  H   H206      1.0  0.24596  0.70565  0.99978  1.0000
  C   C212      1.0  0.54349  0.69578  0.93060  1.0000
  C   C213      1.0  0.24773  0.45996  0.05978  1.0000
  H   H207      1.0  0.53310  0.52957  0.08489  1.0000
  S   S69       1.0  0.31598  0.49902  0.91460  1.0000
  C   C214      1.0  0.47248  0.29295  0.02483  1.0000
  H   H208      1.0  0.48012  0.41465  0.03821  1.0000
  H   H209      1.0  0.44924  0.45807  0.98002  1.0000
  N   N19       1.0  0.38970  0.39665  0.96530  1.0000
  S   S70       1.0  0.41674  0.60068  0.90009  1.0000
  H   H210      1.0  0.29620  0.35141  0.12003  1.0000
  H   H211      1.0  0.33224  0.43807  0.13538  1.0000
  C   C215      1.0  0.30225  0.32487  0.88862  1.0000
  S   S71       1.0  0.56956  0.34111  0.02264  1.0000
  C   C216      1.0  0.19735  0.70918  0.35586  1.0000
  N   N20       1.0  0.35129  0.57136  0.21052  1.0000
  H   H212      1.0  0.16417  0.55975  0.37938  1.0000
  C   C217      1.0  0.17511  0.41789  0.33545  1.0000
  H   H213      1.0  0.12309  0.59201  0.27587  1.0000
  H   H214      1.0  0.27186  0.48155  0.23404  1.0000
  H   H215      1.0  0.31623  0.63958  0.17809  1.0000
  C   C218      1.0  0.40949  0.58062  0.20864  1.0000
  H   H216      1.0  0.19115  0.54285  0.19950  1.0000
  C   C219      1.0  0.33938  0.52746  0.22620  1.0000
  C   C220      1.0  0.24893  0.59585  0.18772  1.0000
  H   H217      1.0  0.36648  0.34869  0.37843  1.0000
  H   H218      1.0  0.42680  0.61881  0.22537  1.0000
  H   H219      1.0  0.15267  0.41086  0.28561  1.0000
  C   C221      1.0  0.13262  0.71280  0.32745  1.0000
  C   C222      1.0  0.23619  0.55099  0.20285  1.0000
  H   H220      1.0  0.23585  0.25298  0.22514  1.0000
  H   H221      1.0  0.10352  0.69019  0.28596  1.0000
  S   S72       1.0  0.39941  0.71810  0.19770  1.0000
  S   S73       1.0  0.21595  0.50489  0.31764  1.0000
  C   C223      1.0  0.09383  0.58954  0.29797  1.0000
  H   H222      1.0  0.21376  0.62274  0.17259  1.0000
  C   C224      1.0  0.30702  0.60536  0.19155  1.0000
  H   H223      1.0  0.21784  0.68412  0.33572  1.0000
  H   H224      1.0  0.14889  0.34763  0.35090  1.0000
  H   H225      1.0  0.40185  0.57346  0.16044  1.0000
  C   C225      1.0  0.17371  0.38185  0.37240  1.0000
  H   H226      1.0  0.44668  0.55751  0.23937  1.0000
  C   C226      1.0  0.28167  0.51659  0.22248  1.0000
  S   S74       1.0  0.20146  0.25643  0.34520  1.0000
  H   H227      1.0  0.37386  0.50012  0.23997  1.0000
  H   H228      1.0  0.26621  0.71242  0.13833  1.0000
  Fe  Fe36      1.0  0.29648  0.55679  0.37650  1.0000
  H   H229      1.0  0.19046  0.72418  0.18082  1.0000
  S   S75       1.0  0.32231  0.62330  0.34462  1.0000
  H   H230      1.0  0.22945  0.26136  0.15060  1.0000
  S   S76       1.0  0.48981  0.61153  0.36254  1.0000
  S   S77       1.0  0.36126  0.24847  0.33779  1.0000
  C   C227      1.0  0.11684  0.57110  0.35574  1.0000
  H   H231      1.0  0.30234  0.72886  0.25988  1.0000
  C   C228      1.0  0.20743  0.46212  0.36317  1.0000
  C   C229      1.0  0.07856  0.56694  0.38302  1.0000
  Fe  Fe37      1.0  0.49039  0.72726  0.19676  1.0000
  H   H232      1.0  0.07432  0.23790  0.32809  1.0000
  C   C230      1.0  0.51596  0.67233  0.38634  1.0000
  H   H233      1.0  0.55469  0.50919  0.38388  1.0000
  H   H234      1.0  0.13159  0.46292  0.48860  1.0000
  C   C231      1.0  0.54262  0.51281  0.56082  1.0000
  C   C232      1.0  0.43379  0.33887  0.47299  1.0000
  S   S78       1.0  0.30785  0.59470  0.46506  1.0000
  C   C233      1.0  0.11478  0.39511  0.55153  1.0000
  H   H235      1.0  0.26043  0.50460  0.44979  1.0000
  C   C234      1.0  0.08545  0.44350  0.46300  1.0000
  N   N21       1.0  0.45789  0.35604  0.53377  1.0000
  H   H236      1.0  0.10047  0.24717  0.50938  1.0000
  C   C235      1.0  0.36328  0.61972  0.62278  1.0000
  H   H237      1.0  0.23000  0.58580  0.56709  1.0000
  H   H238      1.0  0.52051  0.53656  0.52397  1.0000
  H   H239      1.0  0.13604  0.35099  0.62746  1.0000
  S   S79       1.0  0.45465  0.53761  0.59569  1.0000
  H   H240      1.0  0.48431  0.29868  0.59276  1.0000
  C   C236      1.0  0.40669  0.65008  0.61808  1.0000
  H   H241      1.0  0.09588  0.55114  0.42689  1.0000
  S   S80       1.0  0.20810  0.34426  0.48394  1.0000
  Fe  Fe38      1.0  0.41979  0.59947  0.39496  1.0000
  S   S81       1.0  0.10024  0.58188  0.53612  1.0000
  H   H242      1.0  0.53294  0.35309  0.62538  1.0000
  C   C237      1.0  0.39041  0.69640  0.59867  1.0000
  Fe  Fe39      1.0  0.40568  0.57039  0.50493  1.0000
  H   H243      1.0  0.53976  0.31549  0.56685  1.0000
  Fe  Fe40      1.0  0.34155  0.65864  0.43668  1.0000
  H   H244      1.0  0.25638  0.44213  0.51439  1.0000
  C   C238      1.0  0.33187  0.71225  0.58585  1.0000
  C   C239      1.0  0.26063  0.60327  0.61406  1.0000
  H   H245      1.0  0.45045  0.30600  0.46014  1.0000
  H   H246      1.0  0.45251  0.40928  0.59798  1.0000
  S   S82       1.0  0.39266  0.52925  0.41774  1.0000
  C   C240      1.0  0.43471  0.39619  0.54989  1.0000
  Fe  Fe41      1.0  0.22903  0.27589  0.44514  1.0000
  C   C241      1.0  0.23315  0.43540  0.46441  1.0000
  H   H247      1.0  0.49432  0.24057  0.39673  1.0000
  H   H248      1.0  0.31773  0.37800  0.60660  1.0000
  H   H249      1.0  0.32556  0.42247  0.40695  1.0000
  H   H250      1.0  0.16140  0.39426  0.55677  1.0000
  C   C242      1.0  0.36283  0.40400  0.44258  1.0000
  C   C243      1.0  0.09316  0.51210  0.60567  1.0000
  N   N22       1.0  0.30651  0.63608  0.61156  1.0000
  C   C244      1.0  0.38608  0.36270  0.42650  1.0000
  S   S83       1.0  0.31588  0.73447  0.44680  1.0000
  S   S84       1.0  0.11908  0.70481  0.49525  1.0000
  C   C245      1.0  0.52018  0.50761  0.60312  1.0000
  H   H251      1.0  0.14037  0.50435  0.61622  1.0000
  C   C246      1.0  0.50610  0.32944  0.58196  1.0000
  C   C247      1.0  0.23544  0.47099  0.42762  1.0000
  C   C248      1.0  0.20394  0.39029  0.43697  1.0000
  C   C249      1.0  0.26262  0.25554  0.63192  1.0000
  H   H252      1.0  0.42264  0.71961  0.59239  1.0000
  C   C250      1.0  0.38719  0.42091  0.50470  1.0000
  S   S85       1.0  0.44052  0.63837  0.48588  1.0000
  S   S86       1.0  0.32826  0.25953  0.47648  1.0000
  H   H253      1.0  0.24559  0.69485  0.58435  1.0000
  C   C251      1.0  0.47969  0.70512  0.39969  1.0000
  H   H254      1.0  0.36915  0.45267  0.51822  1.0000
  C   C252      1.0  0.29063  0.68183  0.59360  1.0000
  C   C253      1.0  0.10072  0.37041  0.59149  1.0000
  H   H255      1.0  0.08672  0.41558  0.42883  1.0000
  H   H256      1.0  0.37495  0.58276  0.63478  1.0000
  H   H257      1.0  0.21973  0.26563  0.59090  1.0000
  H   H258      1.0  0.23175  0.62311  0.63145  1.0000
  H   H259      1.0  0.45218  0.63745  0.62799  1.0000
  H   H260      1.0  0.39068  0.31047  0.63636  1.0000
  H   H261      1.0  0.56834  0.68286  0.54691  1.0000
  H   H262      1.0  0.43254  0.69493  0.38821  1.0000
  N   N23       1.0  0.07019  0.41969  0.50594  1.0000
  H   H263      1.0  0.09132  0.65028  0.68568  1.0000
  Fe  Fe42      1.0  0.36046  0.62250  0.80406  1.0000
  H   H264      1.0  0.18444  0.52447  0.77261  1.0000
  C   C254      1.0  0.38564  0.43089  0.67263  1.0000
  H   H265      1.0  0.46366  0.47562  0.73989  1.0000
  C   C255      1.0  0.17592  0.39804  0.84029  1.0000
  C   C256      1.0  0.17445  0.38229  0.78427  1.0000
  H   H266      1.0  0.53641  0.40908  0.76775  1.0000
  C   C257      1.0  0.34434  0.34411  0.87156  1.0000
  H   H267      1.0  0.08911  0.46155  0.66700  1.0000
  H   H268      1.0  0.10146  0.50763  0.79962  1.0000
  H   H269      1.0  0.53194  0.47339  0.68362  1.0000
  C   C258      1.0  0.40652  0.34646  0.65915  1.0000
  H   H270      1.0  0.29114  0.28916  0.65639  1.0000
  H   H271      1.0  0.16536  0.26774  0.65292  1.0000
  Fe  Fe43      1.0  0.36089  0.53108  0.86459  1.0000
  C   C259      1.0  0.14646  0.54871  0.75999  1.0000
  S   S87       1.0  0.42693  0.49451  0.83788  1.0000
  H   H272      1.0  0.21504  0.39170  0.72413  1.0000
  C   C260      1.0  0.54945  0.47730  0.65113  1.0000
  C   C261      1.0  0.25333  0.68939  0.80750  1.0000
  S   S88       1.0  0.56129  0.72608  0.69965  1.0000
  H   H273      1.0  0.17812  0.59559  0.71272  1.0000
  H   H274      1.0  0.28629  0.62622  0.85895  1.0000
  C   C262      1.0  0.44729  0.43947  0.71806  1.0000
  C   C263      1.0  0.16099  0.72253  0.80632  1.0000
  C   C264      1.0  0.21847  0.43486  0.87929  1.0000
  H   H275      1.0  0.14500  0.38162  0.85429  1.0000
  S   S89       1.0  0.16765  0.25442  0.87379  1.0000
  C   C265      1.0  0.46777  0.35497  0.70621  1.0000
  Fe  Fe44      1.0  0.47817  0.56675  0.86481  1.0000
  C   C266      1.0  0.19633  0.24074  0.68000  1.0000
  C   C267      1.0  0.49739  0.70460  0.87135  1.0000
  S   S90       1.0  0.10220  0.68755  0.86742  1.0000
  C   C268      1.0  0.09941  0.53956  0.77552  1.0000
  C   C269      1.0  0.14286  0.58833  0.72639  1.0000
  S   S91       1.0  0.30033  0.55504  0.77075  1.0000
  S   S92       1.0  0.42654  0.59463  0.77091  1.0000
  C   C270      1.0  0.21527  0.40395  0.76699  1.0000
  Fe  Fe45      1.0  0.09554  0.29238  0.79635  1.0000
  H   H276      1.0  0.28316  0.57412  0.64519  1.0000
  Fe  Fe46      1.0  0.37039  0.52448  0.74569  1.0000
  C   C271      1.0  0.20755  0.72371  0.78820  1.0000
  S   S93       1.0  0.12478  0.33342  0.73811  1.0000
  C   C272      1.0  0.09347  0.61887  0.71029  1.0000
  S   S94       1.0  0.51876  0.30746  0.73017  1.0000
  C   C273      1.0  0.48840  0.40170  0.73433  1.0000
  H   H277      1.0  0.44979  0.69343  0.85726  1.0000
  C   C274      1.0  0.25870  0.44021  0.80673  1.0000
  H   H278      1.0  0.46196  0.70374  0.73733  1.0000
  S   S95       1.0  0.33423  0.47793  0.65684  1.0000
  C   C275      1.0  0.25135  0.65303  0.84378  1.0000
  H   H279      1.0  0.34328  0.33102  0.82844  1.0000
  S   S96       1.0  0.31357  0.69291  0.78747  1.0000
  C   C276      1.0  0.15972  0.68682  0.84356  1.0000
  H   H280      1.0  0.26838  0.29675  0.85863  1.0000
  C   C277      1.0  0.20449  0.65163  0.86161  1.0000
  N   N24       1.0  0.51216  0.72744  0.83199  1.0000
  C   C278      1.0  0.36536  0.38456  0.64224  1.0000
  H   H281      1.0  0.29179  0.45523  0.79428  1.0000
  C   C279      1.0  0.26042  0.45545  0.86312  1.0000
  C   C280      1.0  0.46379  0.73483  0.76920  1.0000
  S   S97       1.0  0.36102  0.94458  0.91811  1.0000
  S   S98       1.0  0.20255  0.85975  0.03028  1.0000
  C   C281      1.0  0.40838  0.87205  0.99574  1.0000
  C   C282      1.0  0.17060  0.10968  0.92351  1.0000
  Fe  Fe47      1.0  0.51170  0.08187  0.03943  1.0000
  C   C283      1.0  0.24519  0.99038  0.92792  1.0000
  H   H282      1.0  0.33366  0.86069  0.08011  1.0000
  H   H283      1.0  0.18036  0.03658  0.03309  1.0000
  H   H284      1.0  0.07910  0.76820  0.03452  1.0000
  C   C284      1.0  0.22965  0.10561  0.05184  1.0000
  H   H285      1.0  0.12619  0.04113  0.91941  1.0000
  C   C285      1.0  0.15924  0.06969  0.94907  1.0000
  Fe  Fe48      1.0  0.40467  0.12427  0.93150  1.0000
  H   H286      1.0  0.31402  0.80138  0.91326  1.0000
  C   C286      1.0  0.24113  0.14545  0.02626  1.0000
  C   C287      1.0  0.31871  0.82745  0.09092  1.0000
  S   S99       1.0  0.34557  0.18846  0.91438  1.0000
  C   C288      1.0  0.31834  0.76887  0.93702  1.0000
  H   H287      1.0  0.46817  0.91566  0.90781  1.0000
  C   C289      1.0  0.16087  0.93286  0.90379  1.0000
  H   H288      1.0  0.23634  0.78041  0.94724  1.0000
  H   H289      1.0  0.53799  0.84764  0.94957  1.0000
  H   H290      1.0  0.48428  0.01161  0.08944  1.0000
  Fe  Fe49      1.0  0.24364  0.92111  0.10347  1.0000
  C   C290      1.0  0.36735  0.73851  0.94858  1.0000
  H   H291      1.0  0.24352  0.94136  0.99174  1.0000
  H   H292      1.0  0.27239  0.17501  0.05592  1.0000
  S   S100      1.0  0.54424  0.77731  0.03188  1.0000
  C   C291      1.0  0.10686  0.15008  0.06665  1.0000
  H   H293      1.0  0.26942  0.07072  0.88815  1.0000
  C   C292      1.0  0.21217  0.14714  0.96204  1.0000
  C   C293      1.0  0.21886  0.95374  0.94579  1.0000
  H   H294      1.0  0.54656  0.89140  0.12278  1.0000
  H   H295      1.0  0.37163  0.87851  0.00778  1.0000
  H   H296      1.0  0.29038  0.00635  0.96096  1.0000
  H   H297      1.0  0.37183  0.10591  0.11028  1.0000
  H   H298      1.0  0.22259  0.17738  0.94253  1.0000
  S   S101      1.0  0.40859  0.07346  0.99980  1.0000
  C   C294      1.0  0.44987  0.83527  0.02212  1.0000
  Fe  Fe50      1.0  0.41419  0.01496  0.93533  1.0000
  H   H299      1.0  0.18773  0.76696  0.06949  1.0000
  C   C295      1.0  0.50201  0.85454  0.96279  1.0000
  H   H300      1.0  0.40512  0.16943  0.06470  1.0000
  C   C296      1.0  0.09856  0.11894  0.10482  1.0000
  C   C297      1.0  0.18956  0.06731  0.01337  1.0000
  C   C298      1.0  0.36288  0.79651  0.12925  1.0000
  C   C299      1.0  0.46261  0.89286  0.93907  1.0000
  C   C300      1.0  0.41456  0.90055  0.95385  1.0000
  C   C301      1.0  0.27491  0.75723  0.95627  1.0000
  Fe  Fe51      1.0  0.50516  0.07417  0.91253  1.0000
  H   H301      1.0  0.13971  0.90473  0.91740  1.0000
  H   H302      1.0  0.44489  0.81319  0.05437  1.0000
  C   C302      1.0  0.49578  0.82584  0.00447  1.0000
  S   S102      1.0  0.50782  0.13725  0.97584  1.0000
  H   H303      1.0  0.07828  0.85359  0.05220  1.0000
  H   H304      1.0  0.15924  0.21116  0.06329  1.0000
  C   C303      1.0  0.25557  0.81651  0.06877  1.0000
  C   C304      1.0  0.15138  0.18836  0.09335  1.0000
  C   C305      1.0  0.23646  0.77472  0.08525  1.0000
  S   S103      1.0  0.51790  0.01940  0.98037  1.0000
  C   C306      1.0  0.43022  0.16573  0.11418  1.0000
  S   S104      1.0  0.31823  0.97598  0.11926  1.0000
  S   S105      1.0  0.18849  0.97500  0.12642  1.0000
  Fe  Fe52      1.0  0.55182  0.74983  0.11844  1.0000
  H   H305      1.0  0.40162  0.74729  0.93406  1.0000
  S   S106      1.0  0.26457  0.10443  0.13195  1.0000
  H   H306      1.0  0.08056  0.14386  0.01671  1.0000
  C   C307      1.0  0.28090  0.74421  0.12472  1.0000
  C   C308      1.0  0.07142  0.86815  0.09042  1.0000
  H   H307      1.0  0.44209  0.95678  0.13712  1.0000
  H   H308      1.0  0.49683  0.22398  0.13260  1.0000
  Fe  Fe53      1.0  0.24195  0.95174  0.22273  1.0000
  C   C309      1.0  0.28989  0.78558  0.31751  1.0000
  H   H309      1.0  0.56717  0.02406  0.31709  1.0000
  C   C310      1.0  0.48156  0.19639  0.15235  1.0000
  C   C311      1.0  0.42085  0.08860  0.22901  1.0000
  H   H310      1.0  0.39767  0.80114  0.28561  1.0000
  H   H311      1.0  0.16866  0.87663  0.15288  1.0000
  H   H312      1.0  0.55315  0.21462  0.24622  1.0000
  S   S107      1.0  0.29497  0.89601  0.19914  1.0000
  Fe  Fe54      1.0  0.36497  0.95548  0.21677  1.0000
  C   C312      1.0  0.54761  0.05076  0.17577  1.0000
  H   H313      1.0  0.11681  0.77772  0.19585  1.0000
  C   C313      1.0  0.43596  0.82694  0.31316  1.0000
  H   H314      1.0  0.51600  0.15217  0.28987  1.0000
  C   C314      1.0  0.17827  0.16537  0.19407  1.0000
  C   C315      1.0  0.49255  0.82132  0.31310  1.0000
  C   C316      1.0  0.51296  0.19130  0.21594  1.0000
  N   N25       1.0  0.44283  0.12496  0.20244  1.0000
  C   C317      1.0  0.10194  0.94817  0.36086  1.0000
  C   C318      1.0  0.54921  0.02125  0.26739  1.0000
  C   C319      1.0  0.54127  0.85555  0.34694  1.0000
  H   H315      1.0  0.45849  0.07803  0.27374  1.0000
  S   S108      1.0  0.09578  0.14183  0.29129  1.0000
  H   H316      1.0  0.33048  0.14655  0.31379  1.0000
  Fe  Fe55      1.0  0.26828  0.02730  0.15293  1.0000
  C   C320      1.0  0.50093  0.98751  0.23014  1.0000
  H   H317      1.0  0.33820  0.78662  0.35258  1.0000
  S   S109      1.0  0.53578  0.79516  0.18807  1.0000
  C   C321      1.0  0.41664  0.11173  0.36321  1.0000
  C   C322      1.0  0.09686  0.90104  0.37578  1.0000
  Fe  Fe56      1.0  0.29840  0.23291  0.37835  1.0000
  C   C323      1.0  0.10584  0.74375  0.35486  1.0000
  N   N26       1.0  0.24892  0.81502  0.32534  1.0000
  C   C324      1.0  0.41154  0.12985  0.14017  1.0000
  H   H318      1.0  0.38277  0.10318  0.23682  1.0000
  H   H319      1.0  0.39492  0.07594  0.35420  1.0000
  C   C325      1.0  0.34413  0.75525  0.14681  1.0000
  C   C326      1.0  0.40796  0.19830  0.35406  1.0000
  H   H320      1.0  0.14738  0.96645  0.38082  1.0000
  C   C327      1.0  0.20708  0.74965  0.22138  1.0000
  S   S110      1.0  0.31763  0.00913  0.25140  1.0000
  H   H321      1.0  0.40345  0.05516  0.19747  1.0000
  S   S111      1.0  0.17969  0.93130  0.26222  1.0000
  H   H322      1.0  0.38534  0.87098  0.34858  1.0000
  C   C328      1.0  0.26968  0.75239  0.26554  1.0000
  H   H323      1.0  0.09641  0.02349  0.29580  1.0000
  C   C329      1.0  0.49223  0.15558  0.24042  1.0000
  C   C330      1.0  0.12285  0.88210  0.14745  1.0000
  C   C331      1.0  0.16561  0.77965  0.22981  1.0000
  C   C332      1.0  0.38023  0.15178  0.34113  1.0000
  C   C333      1.0  0.50138  0.01541  0.13885  1.0000
  Fe  Fe57      1.0  0.18133  0.18235  0.36500  1.0000
  C   C334      1.0  0.13443  0.12657  0.16892  1.0000
  C   C335      1.0  0.47764  0.98412  0.16593  1.0000
  N   N27       1.0  0.18625  0.19564  0.15632  1.0000
  H   H324      1.0  0.12895  0.10227  0.19906  1.0000
  C   C336      1.0  0.11490  0.90488  0.19576  1.0000
  C   C337      1.0  0.18744  0.81226  0.28243  1.0000
  H   H325      1.0  0.20672  0.17056  0.24390  1.0000
  H   H326      1.0  0.28551  0.88553  0.36688  1.0000
  S   S112      1.0  0.46840  0.95105  0.26391  1.0000
  H   H327      1.0  0.49855  0.79051  0.28712  1.0000
  N   N28       1.0  0.53380  0.89413  0.38049  1.0000
  H   H328      1.0  0.15485  0.83534  0.28875  1.0000
  C   C338      1.0  0.42921  0.86576  0.34861  1.0000
  H   H329      1.0  0.41135  0.80604  0.14728  1.0000
  C   C339      1.0  0.47924  0.89886  0.38290  1.0000
  C   C340      1.0  0.27155  0.85114  0.37863  1.0000
  H   H330      1.0  0.28129  0.21743  0.19793  1.0000
  C   C341      1.0  0.23556  0.23382  0.18372  1.0000
  C   C342      1.0  0.47264  0.20456  0.38611  1.0000
  H   H331      1.0  0.23335  0.90637  0.50545  1.0000
  H   H332      1.0  0.25364  0.11056  0.52516  1.0000
  H   H333      1.0  0.47343  0.92964  0.40920  1.0000
  H   H334      1.0  0.23516  0.85890  0.39254  1.0000
  H   H335      1.0  0.28877  0.23253  0.61391  1.0000
  S   S113      1.0  0.09491  0.97847  0.60324  1.0000
  Fe  Fe58      1.0  0.30188  0.18508  0.48765  1.0000
  S   S114      1.0  0.48620  0.79892  0.55995  1.0000
  C   C343      1.0  0.50493  0.75084  0.42980  1.0000
  S   S115      1.0  0.37628  0.15326  0.57077  1.0000
  C   C344      1.0  0.56584  0.76449  0.44479  1.0000
  C   C345      1.0  0.20849  0.77126  0.43502  1.0000
  H   H336      1.0  0.55908  0.16932  0.43318  1.0000
  Fe  Fe59      1.0  0.56271  0.83923  0.55429  1.0000
  C   C346      1.0  0.24115  0.82866  0.61045  1.0000
  S   S116      1.0  0.20377  0.20317  0.46370  1.0000
  S   S117      1.0  0.53014  0.91200  0.56859  1.0000
  H   H337      1.0  0.31159  0.83792  0.41985  1.0000
  C   C347      1.0  0.23517  0.73824  0.41003  1.0000
  H   H338      1.0  0.20692  0.06457  0.57694  1.0000
  H   H339      1.0  0.23776  0.79341  0.47699  1.0000
  S   S118      1.0  0.36260  0.89903  0.54024  1.0000
  C   C348      1.0  0.14398  0.77364  0.40801  1.0000
  C   C349      1.0  0.34245  0.84315  0.61753  1.0000
  H   H340      1.0  0.53979  0.05798  0.55218  1.0000
  H   H341      1.0  0.34530  0.03338  0.49168  1.0000
  C   C350      1.0  0.50249  0.04674  0.56145  1.0000
  H   H342      1.0  0.08808  0.19343  0.57994  1.0000
  S   S119      1.0  0.09685  0.09113  0.56878  1.0000
  Fe  Fe60      1.0  0.45912  0.87154  0.58337  1.0000
  H   H343      1.0  0.37018  0.00582  0.59409  1.0000
  S   S120      1.0  0.52597  0.06684  0.41911  1.0000
  H   H344      1.0  0.31782  0.74733  0.56807  1.0000
  C   C351      1.0  0.31656  0.87341  0.56902  1.0000
  Fe  Fe61      1.0  0.11095  0.76043  0.56079  1.0000
  C   C352      1.0  0.50926  0.16420  0.40690  1.0000
  C   C353      1.0  0.44106  0.04735  0.51518  1.0000
  C   C354      1.0  0.28126  0.10317  0.57309  1.0000
  C   C355      1.0  0.25317  0.88239  0.54234  1.0000
  H   H345      1.0  0.47705  0.77552  0.44112  1.0000
  C   C356      1.0  0.25454  0.07766  0.60259  1.0000
  H   H346      1.0  0.43053  0.05966  0.47035  1.0000
  C   C357      1.0  0.34362  0.11881  0.60564  1.0000
  C   C358      1.0  0.21517  0.85936  0.56236  1.0000
  H   H347      1.0  0.12387  0.79674  0.43059  1.0000
  C   C359      1.0  0.39330  0.03245  0.52703  1.0000
  C   C360      1.0  0.40773  0.01713  0.58528  1.0000
  H   H348      1.0  0.16600  0.86568  0.54109  1.0000
  C   C361      1.0  0.48110  0.11778  0.39559  1.0000
  N   N29       1.0  0.46812  0.01647  0.63041  1.0000
  C   C362      1.0  0.51521  0.03155  0.61939  1.0000
  H   H349      1.0  0.56681  0.14739  0.63287  1.0000
  H   H350      1.0  0.13772  0.88318  0.40740  1.0000
  H   H351      1.0  0.56526  0.96770  0.40877  1.0000
  S   S121      1.0  0.27675  0.15701  0.39101  1.0000
  S   S122      1.0  0.19527  0.80002  0.63708  1.0000
  C   C363      1.0  0.48220  0.00193  0.69189  1.0000
  H   H352      1.0  0.20769  0.75093  0.75866  1.0000
  C   C364      1.0  0.54022  0.17971  0.69871  1.0000
  N   N30       1.0  0.24796  0.22975  0.67412  1.0000
  N   N31       1.0  0.21506  0.00525  0.86930  1.0000
  H   H353      1.0  0.21200  0.16430  0.78898  1.0000
  C   C365      1.0  0.18211  0.21694  0.72063  1.0000
  H   H354      1.0  0.21188  0.05926  0.80952  1.0000
  C   C366      1.0  0.13035  0.94824  0.84422  1.0000
  H   H355      1.0  0.49035  0.98441  0.83425  1.0000
  C   C367      1.0  0.35298  0.08213  0.69615  1.0000
  C   C368      1.0  0.55389  0.18481  0.76076  1.0000
  H   H356      1.0  0.18539  0.90187  0.74997  1.0000
  H   H357      1.0  0.08531  0.93207  0.81124  1.0000
  C   C369      1.0  0.22196  0.18266  0.75661  1.0000
  H   H358      1.0  0.44816  0.97348  0.68836  1.0000
  H   H359      1.0  0.38094  0.07436  0.74364  1.0000
  C   C370      1.0  0.27519  0.17245  0.75132  1.0000
  C   C371      1.0  0.38926  0.85519  0.79452  1.0000
  C   C372      1.0  0.24565  0.04139  0.85055  1.0000
  H   H360      1.0  0.42858  0.11874  0.69154  1.0000
  H   H361      1.0  0.52895  0.98654  0.71551  1.0000
  Fe  Fe62      1.0  0.15029  0.04741  0.64970  1.0000
  C   C373      1.0  0.38000  0.10721  0.66660  1.0000
  H   H362      1.0  0.12594  0.74942  0.79141  1.0000
  H   H363      1.0  0.35030  0.79735  0.82190  1.0000
  S   S123      1.0  0.25378  0.04492  0.70491  1.0000
  H   H364      1.0  0.50122  0.19807  0.66454  1.0000
  C   C374      1.0  0.28448  0.85231  0.77966  1.0000
  H   H365      1.0  0.32478  0.79731  0.67562  1.0000
  Fe  Fe63      1.0  0.55223  0.79907  0.66133  1.0000
  C   C375      1.0  0.53797  0.97465  0.85019  1.0000
  N   N32       1.0  0.27376  0.89529  0.75263  1.0000
  C   C376      1.0  0.21170  0.91480  0.72680  1.0000
  H   H366      1.0  0.43436  0.83957  0.81113  1.0000
  C   C377      1.0  0.28963  0.06892  0.66488  1.0000
  H   H367      1.0  0.13448  0.99591  0.78094  1.0000
  S   S124      1.0  0.51906  0.86890  0.68583  1.0000
  H   H368      1.0  0.32927  0.18842  0.70614  1.0000
  C   C378      1.0  0.34236  0.83168  0.80119  1.0000
  H   H369      1.0  0.41357  0.91715  0.76027  1.0000
  H   H370      1.0  0.18544  0.90286  0.67666  1.0000
  C   C379      1.0  0.28769  0.19656  0.70977  1.0000
  H   H371      1.0  0.24762  0.83314  0.78311  1.0000
  H   H372      1.0  0.47422  0.76847  0.75281  1.0000
  S   S125      1.0  0.09294  0.06968  0.69563  1.0000
  H   H373      1.0  0.30654  0.14593  0.77936  1.0000
  S   S126      1.0  0.40139  0.06518  0.86287  1.0000
  H   H374      1.0  0.14047  0.22521  0.72421  1.0000
  C   C380      1.0  0.30488  0.82133  0.63873  1.0000
  C   C381      1.0  0.31931  0.91841  0.74542  1.0000
  H   H375      1.0  0.31027  0.95187  0.72262  1.0000
  H   H376      1.0  0.21470  0.95502  0.73260  1.0000
  C   C382      1.0  0.37780  0.89885  0.76648  1.0000
  C   C383      1.0  0.15844  0.98447  0.82746  1.0000
  S   S127      1.0  0.12871  0.11532  0.84415  1.0000
  H   H377      1.0  0.51767  0.89791  0.84243  1.0000
  H   H378      1.0  0.52564  0.20711  0.77487  1.0000
  Fe  Fe64      1.0  0.09941  0.19158  0.84003  1.0000
  H   H379      1.0  0.41742  0.73788  0.76700  1.0000
  H   H380      1.0  0.48121  0.03378  0.72148  1.0000
  H   H381      1.0  0.27988  0.02367  0.83896  1.0000
  S   S128      1.0  0.56554  0.07159  0.86663  1.0000
  H   H382      1.0  0.41381  0.22976  0.85988  1.0000
  C   C384      1.0  0.55322  0.92593  0.85492  1.0000
  H   H383      1.0  0.56293  0.03147  0.65534  1.0000
  H   H384      1.0  0.39113  0.83574  0.63795  1.0000
