data_image0
_chemical_formula_structural       SCFeS2H2FeSFeSHSFeCFeS2FeHSCS2CFeSCFeS2FeSFeS4FeCS2H2SHCSCFe2C3HCHC4HSC6H4C6H5CSNSC2HCHC3SHCSH4CSC7H2FeHNH3CHNC6H6SHNC6H5SH2NC2HC2H3C2HSCFeC3HCHCH3CHFeHCHC3H5SHCHCSCH2C2HCHCH4NCHCH2CH2CFeCHC4H2CHFeNH2SH2SHCNHC2HCSC2H2SFeHCH6CHFeCH2SC2H2CFeSC2HCHSCHCS2HCSHCFe2SCHFeHSHCSH2S2HC2FeHC2HCS2HSFeS2H2C4H2C6H6C4HC9H6C4H2FeCH3C2SH2N2HCH2C4NHC3HNH2CFeNHFeHCSHC3H3CHNCHC4HFeH4C3HC2H3SFeC2SHCH3CSCHCHCH2CSHCH2S2H2SCHSHSHCSH2SFe2S2FeS2FeSFeS4CFeS2CSCFeSFeSCSFeCFeH2FeHSH4C2H3CSCHC5H4CH2FeCNHC2H2C3HC2H4C6S2H2CH2C4H4SHCSC2HCNC2H4C2HCHCHCHC3H3SCSH2C4SFeHCHNC3HCHCSCH2CHCHCNCFeHCHCH2C2HCH3CH2CHCH2NC4H2SC4S2FeCNHC4HFeHCH2CH3CHSH4C4HCFeS2FeS2FeSFeS3FeS2FeS2FeSC2SHCHFeCSCNCS2HCHCH2SC2HFeCNH4CHC3H2CHSHCH3C3HNHC7HNH2SC6H4CSC4HCH2C6H4C6HNH2C6H2FeHC3HCNC4SH2CH2CH3NS2FeCNHCH6SHC2HCH2SC2H2FeH5CSC4H2CSH6CHCHCFeHSCSCH3NHC3H4CSC2HCH2C2H2C3NH2CHCH2Fe2H2NHCH2C2H2CH2CH2C2HSFeS2CSFeHFeSCHFeHFeS2FeCHNS2CFeSCFeS2FeSFeS3HFeS2FeS2CHS2HC6HSH2CH3C6H2C8H4C4H2C3H8NC2HCH2C6H5NHCSC6H3CSH2C4H6NC5FeH2CH2C2SNC4H6CH3CHNCSCSHCHSHC3NC6H8S2CHC2HSC2HFeC2FeHFeCHCHCHCH2FeSCH3C2H8CH5CHCFeHSCFeH4SH2SC3HS2CHS6HFeHFeSH2FeS2H2SHC2HCHC2HC2SHSHFeSFeSCSHC3NH2C6H6CFeCHS2C8H4FeH2C6FeH3SC4HSC5HC9H2CHSHCHNHNCHSCH2C2NHSC2HCH2C3SH5SCH5C2NCH3C3FeCHCH3NFeHCFeC4FeCH2FeC4NHCH3SCFeCH2CHC4NFeS2FeS2FeSFeS3HFe2S2CSCFeSFeSHSCSC2SFeCSCSHC2SH4CH2C6H5C3H4FeNC6HCH2C6HC2HCH2C3H4C4HC5NH2CFeCSNC2H4FeCH2CNHSNCHCH2CHC2H2SCHC2HC3FeH2C2HCHCH2C2H2SCNHC3HC2SC2H2CH12CNC3HCH3CHC5H4CH2CHNH3S2HCFeS2FeS2FeSFeS3FeS2FeS2FeSH2SCHSHSCHCH2SHCHSH2SHFeHFeSH4FeCH2S2H2C5H5C4SH2C4FeCH3C6HCH2CFeHCHC3HNC4HCH3SC8H2C6H4C3FeHSHSCFeCH7CH3C3HCSCH2SCHCHCNCNH2CFeCSCNHSC3SHCHSHCH5CH2SH2CHCHCNC3H2CH5N2FeH2SCHC2HCHC2HC3HNC2HCHC2HC2HS2CH2CSHNCSH3FeCNCHFeHCHCH4CH2C2SFeS2FeSFeSFeS2HFeHFeS2FeSCHS3FeSHFeS2FeSFeS3HFeHSH2SCH3FeSCHC5H2C2H2C7H3C6H4C2HFeCHCSH4C2HCNH3CNC8H4SHC2SH2CH2CHSFeC3H2N2HCSC3H3CSCHCNCHCHCSHC3HC2HCH3C2HCHSFeCHCHCH3FeCNCH4CNC6H9CFeH2SH2C2HC2S2HCFeHCH2C2HC3H3C3H3SH2C2FeNSHC2HS2H4SC2FeH3FeSHSC2SHS2CSCSH2S2CHCSFeCSNSCS3CH2CSCHC6H2SHCFeC3H3FeC7H4C9H2CHCHC2HFeC2H2C3HC6H6NH4CH2NHSC2NHNC6H5CFeSH3CNH2C3HFeSCHCSH4SCHCHC2HCFeH2C2HCHCN2H2CH2SFe2NC6H8CHFeHC2HC2H2SCFeH2CHSH7CH3CHFeCHCH2FeS2FeS2FeCFeS4C2SHCSCFeSFeSH2NHFeCSFeS2CH3NC4H4C2HC3HC2H2CFeC4H2C5HCHFeHSCH2C3HCH2C6H4CHC2H2CHC3HC2HSCNH3C2H2CSCHFeHCHC2SH3C2H7S2C2HCSHSCHNCH2SHFeCHFeHCHC2H2CHCH2C2HFeCH2SCHC8FeCH2CHSH6CNSH2CHS2HNHNHFeH2FeS2FeS2FeSFeS3FeS2FeSHFeSFeS2HFeSC2HCNCHSHCH3CSCHFeHC2HNSH4FeCS2C3H2C2HSC2NSCHCHC4NC10HSH7CH4C6H4C6HCSHC6H4C4H2CHC4SHCH4FeN2C6H6CH5CHS2CHCHSHC2HFeHNHCHCH4FeC2HFeH2CHCH2C3HCHCHCHCSHCHFeHCSCHC2H6NC2H2SCHCH2SCSCSHNHC4HNCNCHS2FeSC3FeSFeS2HFe3S2H2FeS3HFeS2FeS2FeSFeS4FeHSHS2HCH2CHCHC2HCH3CH2C9H2C6H5Fe2HCHC2HSCHC2S2H4C10H6CHNHC3HSCHCHC3S2CH4SH3NC2HCH2CSH2C4SH2CNC4H2CH2NC4HCH2CHFeCHC2H3CNH3CSC4H3CHCH5SH3FeC2HSFeCHC2SC2SHC3SCFeNCSHSHS2H2S2H2SFeNHCHFeHCFeS2FeHCS3C4H3C6S2H2CH2C2HCHSC7H5CHC6HSH10C4H2C2HC3HCH2C4H2CFeC4H3C2HFeC3H2S2HC2SH2FeH2SFeH3CHNFeCHNC3HC2H3SHFeH2CH2CNHCH2FeC5H2S2NC5HCH9FeCNSH2SHSCSHCFe2HCH6FeS2FeS2FeSFeS3HCFeS2HSHFeSFeSHSH2CHCH2SCHSC6H2SH4CH5CHC4H2CH2C6H2CHC6H4C6H6C3HCHCSCHCNHCHSCH2CSH4CFeCS2H2NCSCH2CSCHCH2CHC5SH3CH2CH2C3HCNFeNCNC2H3FeHCNC2SC3H3CNH3FeH4CSNHCH2C2HS2CHNC2HCSH3CHC2HFeHC5H2C2SHCHCFeS2FeS2FeSFeS3FeS2FeSHFeSFeS2CFeSCFeSHCHS2HC2SCHSHFeCFeH5CNCFeSCSCHNHC2H3SCH4CFeC3SC2HSHFeC6H2SHCH2C3HCH2C4HCH4C7H3C6H4SC3H2SHCSHCH2SHC5HCH2CHC2FeHCSFeCHCHCH6SCH2NCHCHNC3HNCHCH4CH3C3HCHNHFeH3SHC5HCHCSC4HFeNH4CHC2HC2H2CHCHC2H3NH2C2HC2H3SFeCHC2
_chemical_formula_sum              "S512 C1536 Fe256 H1536 N128"
_cell_length_a       39.8858
_cell_length_b       41.1031
_cell_length_c       48.9245
_cell_angle_alpha    81.6472
_cell_angle_beta     81.3606
_cell_angle_gamma    89.9485

_space_group_name_H-M_alt    "P 1"
_space_group_IT_number       1

loop_
  _space_group_symop_operation_xyz
  'x, y, z'

loop_
  _atom_site_type_symbol
  _atom_site_label
  _atom_site_symmetry_multiplicity
  _atom_site_fract_x
  _atom_site_fract_y
  _atom_site_fract_z
  _atom_site_occupancy
  S   S1        1.0  0.11162  0.36725  0.01124  1.0000
  C   C1        1.0  0.45570  0.14422  0.12480  1.0000
  Fe  Fe1       1.0  0.34143  0.23779  0.99915  1.0000
  S   S2        1.0  0.35861  0.26133  0.03343  1.0000
  S   S3        1.0  0.30889  0.19215  0.00669  1.0000
  H   H1        1.0  0.01941  0.15541  0.01278  1.0000
  H   H2        1.0  0.30997  0.34000  0.15864  1.0000
  Fe  Fe2       1.0  0.40938  0.26577  0.00595  1.0000
  S   S4        1.0  0.45844  0.26232  0.02420  1.0000
  Fe  Fe3       1.0  0.34634  0.30876  0.00819  1.0000
  S   S5        1.0  0.32250  0.35018  0.02953  1.0000
  H   H3        1.0  0.29583  0.41154  0.04065  1.0000
  S   S6        1.0  0.99964  0.06530  0.98843  1.0000
  Fe  Fe4       1.0  0.42011  0.06145  0.99258  1.0000
  C   C2        1.0  0.35150  0.48205  0.04119  1.0000
  Fe  Fe5       1.0  0.37944  0.09658  0.03702  1.0000
  S   S7        1.0  0.33196  0.09636  0.01755  1.0000
  S   S8        1.0  0.38396  0.11054  0.07926  1.0000
  Fe  Fe6       1.0  0.34571  0.04468  0.01210  1.0000
  H   H4        1.0  0.45919  0.35221  0.07569  1.0000
  S   S9        1.0  0.23009  0.46409  0.17841  1.0000
  C   C3        1.0  0.39345  0.14871  0.20692  1.0000
  S   S10       1.0  0.39065  0.04360  0.03462  1.0000
  S   S11       1.0  0.41307  0.11477  0.99656  1.0000
  C   C4        1.0  0.42785  0.14108  0.20237  1.0000
  Fe  Fe7       1.0  0.07574  0.12171  0.09691  1.0000
  S   S12       1.0  0.08786  0.16688  0.11435  1.0000
  C   C5        1.0  0.99454  0.21151  0.07873  1.0000
  Fe  Fe8       1.0  0.14523  0.09223  0.10493  1.0000
  S   S13       1.0  0.16239  0.13623  0.12179  1.0000
  S   S14       1.0  0.18119  0.05026  0.10001  1.0000
  Fe  Fe9       1.0  0.10990  0.13290  0.14633  1.0000
  S   S15       1.0  0.09364  0.13719  0.19140  1.0000
  Fe  Fe10      1.0  0.13817  0.16513  0.08772  1.0000
  S   S16       1.0  0.15784  0.21128  0.05997  1.0000
  S   S17       1.0  0.09386  0.08708  0.13146  1.0000
  S   S18       1.0  0.12540  0.12159  0.06843  1.0000
  S   S19       1.0  0.30731  0.00364  0.02525  1.0000
  Fe  Fe11      1.0  0.28589  0.22323  0.16702  1.0000
  C   C6        1.0  0.24961  0.00659  0.14641  1.0000
  S   S20       1.0  0.28646  0.22022  0.12155  1.0000
  S   S21       1.0  0.26547  0.00900  0.19916  1.0000
  H   H5        1.0  0.43796  0.12282  0.13220  1.0000
  H   H6        1.0  0.29484  0.03886  0.97052  1.0000
  S   S22       1.0  0.32689  0.25177  0.18002  1.0000
  H   H7        1.0  0.36044  0.07565  0.19607  1.0000
  C   C7        1.0  0.20084  0.05546  0.15091  1.0000
  S   S23       1.0  0.02548  0.11709  0.08120  1.0000
  C   C8        1.0  0.40931  0.20577  0.08120  1.0000
  Fe  Fe12      1.0  0.28549  0.26818  0.21137  1.0000
  Fe  Fe13      1.0  0.14728  0.40549  0.98493  1.0000
  C   C9        1.0  0.31143  0.35390  0.13716  1.0000
  C   C10       1.0  0.41383  0.08664  0.19293  1.0000
  C   C11       1.0  0.48210  0.47749  0.00379  1.0000
  H   H8        1.0  0.33413  0.37057  0.13356  1.0000
  C   C12       1.0  0.36912  0.12513  0.20434  1.0000
  H   H9        1.0  0.00456  0.23455  0.08269  1.0000
  C   C13       1.0  0.00008  0.17279  0.16436  1.0000
  C   C14       1.0  0.28284  0.47694  0.97198  1.0000
  C   C15       1.0  0.20557  0.03983  0.12712  1.0000
  C   C16       1.0  0.23001  0.01539  0.12494  1.0000
  H   H10       1.0  0.03431  0.45990  0.97763  1.0000
  S   S24       1.0  0.24386  0.24369  0.19524  1.0000
  C   C17       1.0  0.26661  0.19767  0.02055  1.0000
  C   C18       1.0  0.25217  0.22875  0.01743  1.0000
  C   C19       1.0  0.21830  0.23268  0.02882  1.0000
  C   C20       1.0  0.19915  0.20565  0.04391  1.0000
  C   C21       1.0  0.21342  0.17449  0.04672  1.0000
  C   C22       1.0  0.24703  0.17046  0.03468  1.0000
  H   H11       1.0  0.26694  0.24971  0.00614  1.0000
  H   H12       1.0  0.20713  0.25674  0.02642  1.0000
  H   H13       1.0  0.19861  0.15348  0.05816  1.0000
  H   H14       1.0  0.25818  0.14642  0.03671  1.0000
  C   C23       1.0  0.31334  0.18942  0.10994  1.0000
  C   C24       1.0  0.31305  0.18101  0.08327  1.0000
  C   C25       1.0  0.33423  0.15637  0.07380  1.0000
  C   C26       1.0  0.35547  0.13980  0.09113  1.0000
  C   C27       1.0  0.35515  0.14757  0.11810  1.0000
  C   C28       1.0  0.33459  0.17271  0.12729  1.0000
  H   H15       1.0  0.29662  0.19363  0.06978  1.0000
  H   H16       1.0  0.33442  0.15055  0.05293  1.0000
  H   H17       1.0  0.37149  0.13476  0.13168  1.0000
  H   H18       1.0  0.33590  0.17953  0.14755  1.0000
  H   H19       1.0  0.30166  0.47961  0.06555  1.0000
  C   C29       1.0  0.01449  0.18348  0.08042  1.0000
  S   S25       1.0  0.19055  0.42648  0.00205  1.0000
  N   N1        1.0  0.46513  0.00125  0.07707  1.0000
  S   S26       1.0  0.47222  0.04508  0.97650  1.0000
  C   C30       1.0  0.37928  0.09398  0.19757  1.0000
  C   C31       1.0  0.41038  0.37104  0.06828  1.0000
  H   H20       1.0  0.40285  0.20957  0.06023  1.0000
  C   C32       1.0  0.12681  0.14810  0.20837  1.0000
  H   H21       1.0  0.26802  0.98736  0.14476  1.0000
  C   C33       1.0  0.39162  0.38596  0.04810  1.0000
  C   C34       1.0  0.47247  0.19607  0.02343  1.0000
  C   C35       1.0  0.44421  0.36356  0.06027  1.0000
  S   S27       1.0  0.38030  0.45735  0.19269  1.0000
  H   H22       1.0  0.39526  0.23652  0.14263  1.0000
  C   C36       1.0  0.33864  0.45611  0.08944  1.0000
  S   S28       1.0  0.37616  0.05739  0.96958  1.0000
  H   H23       1.0  0.03984  0.18561  0.08467  1.0000
  H   H24       1.0  0.36309  0.42087  0.00986  1.0000
  H   H25       1.0  0.45400  0.19571  0.00936  1.0000
  H   H26       1.0  0.42794  0.99779  0.11367  1.0000
  C   C37       1.0  0.99737  0.20261  0.00312  1.0000
  S   S29       1.0  0.31522  0.41164  0.18398  1.0000
  C   C38       1.0  0.00166  0.15324  0.07635  1.0000
  C   C39       1.0  0.22731  0.40423  0.00788  1.0000
  C   C40       1.0  0.23528  0.37460  0.99751  1.0000
  C   C41       1.0  0.26534  0.35818  0.00281  1.0000
  C   C42       1.0  0.28700  0.37120  0.01884  1.0000
  C   C43       1.0  0.27904  0.40096  0.02870  1.0000
  C   C44       1.0  0.24952  0.41737  0.02319  1.0000
  H   H27       1.0  0.40163  0.43069  0.98620  1.0000
  H   H28       1.0  0.27125  0.33515  0.99511  1.0000
  Fe  Fe14      1.0  0.35577  0.44455  0.15721  1.0000
  H   H29       1.0  0.42252  0.45033  0.06457  1.0000
  N   N2        1.0  0.28100  0.37324  0.13384  1.0000
  H   H30       1.0  0.48521  0.36556  0.02586  1.0000
  H   H31       1.0  0.44684  0.15896  0.20447  1.0000
  H   H32       1.0  0.28151  0.12643  0.16087  1.0000
  C   C45       1.0  0.06017  0.22808  0.00805  1.0000
  H   H33       1.0  0.18188  0.07410  0.15300  1.0000
  N   N3        1.0  0.27279  0.10523  0.12510  1.0000
  C   C46       1.0  0.25661  0.10816  0.10214  1.0000
  C   C47       1.0  0.29801  0.08292  0.12794  1.0000
  C   C48       1.0  0.26556  0.08847  0.08127  1.0000
  C   C49       1.0  0.30804  0.06333  0.10716  1.0000
  C   C50       1.0  0.29149  0.06600  0.08384  1.0000
  C   C51       1.0  0.26175  0.12504  0.14731  1.0000
  H   H34       1.0  0.23642  0.12554  0.09999  1.0000
  H   H35       1.0  0.31069  0.08028  0.14624  1.0000
  H   H36       1.0  0.25210  0.09027  0.06346  1.0000
  H   H37       1.0  0.32850  0.04619  0.10906  1.0000
  H   H38       1.0  0.29866  0.05055  0.06783  1.0000
  H   H39       1.0  0.25665  0.15064  0.13830  1.0000
  S   S30       1.0  0.29136  0.17742  0.19666  1.0000
  H   H40       1.0  0.23821  0.11422  0.16048  1.0000
  N   N4        1.0  0.23724  0.28082  0.07488  1.0000
  C   C52       1.0  0.21809  0.25544  0.09094  1.0000
  C   C53       1.0  0.22336  0.31099  0.06896  1.0000
  C   C54       1.0  0.18392  0.25974  0.10098  1.0000
  C   C55       1.0  0.18907  0.31600  0.07818  1.0000
  C   C56       1.0  0.16924  0.29008  0.09421  1.0000
  C   C57       1.0  0.27309  0.27619  0.06456  1.0000
  H   H41       1.0  0.22885  0.23136  0.09540  1.0000
  H   H42       1.0  0.23870  0.33124  0.05674  1.0000
  H   H43       1.0  0.16865  0.23918  0.11296  1.0000
  H   H44       1.0  0.17794  0.33970  0.07265  1.0000
  H   H45       1.0  0.14246  0.29331  0.10113  1.0000
  S   S31       1.0  0.42837  0.04803  0.18508  1.0000
  H   H46       1.0  0.28926  0.28537  0.07851  1.0000
  H   H47       1.0  0.27862  0.24980  0.06384  1.0000
  N   N5        1.0  0.05451  0.19477  0.01249  1.0000
  C   C58       1.0  0.43797  0.11050  0.19496  1.0000
  C   C59       1.0  0.44338  0.01400  0.09702  1.0000
  H   H48       1.0  0.42356  0.05814  0.11215  1.0000
  C   C60       1.0  0.10949  0.47571  0.03861  1.0000
  C   C61       1.0  0.01179  0.46580  0.99109  1.0000
  H   H49       1.0  0.48445  0.14466  0.02397  1.0000
  H   H50       1.0  0.02631  0.12718  0.16226  1.0000
  H   H51       1.0  0.40362  0.48100  0.02233  1.0000
  C   C62       1.0  0.00120  0.44580  0.01664  1.0000
  C   C63       1.0  0.45999  0.06902  0.07455  1.0000
  H   H52       1.0  0.20809  0.39463  0.17135  1.0000
  S   S32       1.0  0.35668  0.00560  0.15530  1.0000
  C   C64       1.0  0.32787  0.47268  0.06524  1.0000
  Fe  Fe15      1.0  0.39089  0.00622  0.18753  1.0000
  C   C65       1.0  0.25062  0.41140  0.10507  1.0000
  C   C66       1.0  0.22726  0.39311  0.15326  1.0000
  C   C67       1.0  0.22480  0.41212  0.12763  1.0000
  H   H53       1.0  0.24933  0.42683  0.08529  1.0000
  C   C68       1.0  0.45884  0.37109  0.03232  1.0000
  H   H54       1.0  0.20348  0.42828  0.12564  1.0000
  C   C69       1.0  0.01018  0.02375  0.98760  1.0000
  H   H55       1.0  0.29437  0.11982  0.97441  1.0000
  H   H56       1.0  0.01918  0.18359  0.17416  1.0000
  H   H57       1.0  0.23357  0.00309  0.10665  1.0000
  C   C70       1.0  0.40509  0.22086  0.12738  1.0000
  H   H58       1.0  0.01187  0.01756  0.04446  1.0000
  Fe  Fe16      1.0  0.07029  0.40063  0.99849  1.0000
  H   H59       1.0  0.07183  0.14877  0.03100  1.0000
  C   C71       1.0  0.42873  0.17889  0.08965  1.0000
  H   H60       1.0  0.24384  0.44047  0.03090  1.0000
  C   C72       1.0  0.04445  0.01522  0.98365  1.0000
  C   C73       1.0  0.42473  0.19380  0.13506  1.0000
  C   C74       1.0  0.15779  0.16071  0.19319  1.0000
  H   H61       1.0  0.31475  0.33591  0.12214  1.0000
  H   H62       1.0  0.16111  0.16537  0.17070  1.0000
  H   H63       1.0  0.28024  0.28932  0.04297  1.0000
  H   H64       1.0  0.21600  0.05838  0.19098  1.0000
  H   H65       1.0  0.43654  0.16183  0.07512  1.0000
  S   S33       1.0  0.02444  0.41143  0.02828  1.0000
  H   H66       1.0  0.12450  0.01680  0.17702  1.0000
  C   C75       1.0  0.20995  0.05118  0.98111  1.0000
  H   H67       1.0  0.46469  0.10502  0.19140  1.0000
  C   C76       1.0  0.02386  0.18188  0.00949  1.0000
  S   S34       1.0  0.38670  0.42846  0.11951  1.0000
  C   C77       1.0  0.03434  0.24950  0.00144  1.0000
  H   H68       1.0  0.38165  0.24732  0.09404  1.0000
  H   H69       1.0  0.44177  0.48578  0.09684  1.0000
  C   C78       1.0  0.24445  0.02192  0.17038  1.0000
  C   C79       1.0  0.00262  0.23664  0.99928  1.0000
  H   H70       1.0  0.36539  0.39186  0.05452  1.0000
  C   C80       1.0  0.38547  0.47370  0.04094  1.0000
  H   H71       1.0  0.11535  0.44976  0.04193  1.0000
  C   C81       1.0  0.08201  0.17284  0.01930  1.0000
  H   H72       1.0  0.06396  0.03428  0.98028  1.0000
  H   H73       1.0  0.08477  0.23830  0.00972  1.0000
  H   H74       1.0  0.09849  0.16852  0.99983  1.0000
  H   H75       1.0  0.20840  0.17746  0.19551  1.0000
  N   N6        1.0  0.43660  0.17343  0.11615  1.0000
  C   C82       1.0  0.22018  0.04648  0.17246  1.0000
  H   H76       1.0  0.45803  0.09549  0.07347  1.0000
  C   C83       1.0  0.27868  0.39159  0.10855  1.0000
  H   H77       1.0  0.25772  0.35986  0.17621  1.0000
  H   H78       1.0  0.46134  0.45979  0.00711  1.0000
  C   C84       1.0  0.39610  0.45653  0.06486  1.0000
  H   H79       1.0  0.37923  0.39191  0.98714  1.0000
  H   H80       1.0  0.42998  0.18903  0.15634  1.0000
  C   C85       1.0  0.43954  0.38662  0.01279  1.0000
  Fe  Fe17      1.0  0.28512  0.45803  0.18392  1.0000
  C   C86       1.0  0.18448  0.16782  0.20727  1.0000
  H   H81       1.0  0.32064  0.44982  0.10831  1.0000
  C   C87       1.0  0.98986  0.01251  0.06051  1.0000
  C   C88       1.0  0.38666  0.41016  0.99992  1.0000
  C   C89       1.0  0.39746  0.22690  0.10020  1.0000
  C   C90       1.0  0.37281  0.44829  0.08927  1.0000
  H   H82       1.0  0.47454  0.13826  0.10714  1.0000
  H   H83       1.0  0.39893  0.36599  0.09006  1.0000
  C   C91       1.0  0.25565  0.37369  0.15599  1.0000
  H   H84       1.0  0.29903  0.39159  0.09112  1.0000
  Fe  Fe18      1.0  0.36648  0.10957  0.97658  1.0000
  N   N7        1.0  0.40643  0.39411  0.02085  1.0000
  H   H85       1.0  0.24629  0.03727  0.00897  1.0000
  H   H86       1.0  0.44286  0.33360  0.21797  1.0000
  S   S35       1.0  0.39861  0.31548  0.98341  1.0000
  H   H87       1.0  0.09767  0.18368  0.03288  1.0000
  H   H88       1.0  0.45146  0.39308  0.99123  1.0000
  S   S36       1.0  0.10594  0.44074  0.97572  1.0000
  H   H89       1.0  0.05582  0.46705  0.04291  1.0000
  C   C92       1.0  0.44072  0.04806  0.09623  1.0000
  N   N8        1.0  0.15776  0.00463  0.20713  1.0000
  H   H90       1.0  0.26688  0.48114  0.12187  1.0000
  C   C93       1.0  0.13303  0.02268  0.19580  1.0000
  C   C94       1.0  0.00408  0.14101  0.15775  1.0000
  H   H91       1.0  0.18853  0.05044  0.99774  1.0000
  C   C95       1.0  0.48153  0.00372  0.98647  1.0000
  S   S37       1.0  0.32477  0.28472  0.97641  1.0000
  C   C96       1.0  0.24231  0.04368  0.98740  1.0000
  C   C97       1.0  0.47901  0.22520  0.03360  1.0000
  H   H92       1.0  0.18592  0.22873  0.97522  1.0000
  H   H93       1.0  0.21836  0.36439  0.98546  1.0000
  S   S38       1.0  0.39318  0.23809  0.97363  1.0000
  Fe  Fe19      1.0  0.33021  0.20684  0.21149  1.0000
  H   H94       1.0  0.09941  0.06383  0.19895  1.0000
  C   C98       1.0  0.48146  0.05581  0.05394  1.0000
  H   H95       1.0  0.43097  0.98931  0.00691  1.0000
  H   H96       1.0  0.34249  0.13048  0.20826  1.0000
  H   H97       1.0  0.99120  0.06036  0.07281  1.0000
  H   H98       1.0  0.30729  0.47085  0.97828  1.0000
  H   H99       1.0  0.03906  0.27590  0.99801  1.0000
  H   H100      1.0  0.39755  0.37506  0.21593  1.0000
  C   C99       1.0  0.48368  0.02165  0.05549  1.0000
  H   H101      1.0  0.47011  0.14815  0.14182  1.0000
  Fe  Fe20      1.0  0.11014  0.34816  0.97070  1.0000
  C   C100      1.0  0.07585  0.48567  0.03903  1.0000
  H   H102      1.0  0.20752  0.19027  0.97695  1.0000
  H   H103      1.0  0.28911  0.98952  0.08505  1.0000
  S   S39       1.0  0.38256  0.18790  0.21595  1.0000
  C   C101      1.0  0.11880  0.04925  0.20800  1.0000
  C   C102      1.0  0.19042  0.02669  0.39270  1.0000
  H   H104      1.0  0.27346  0.99667  0.25769  1.0000
  H   H105      1.0  0.11377  0.02576  0.41915  1.0000
  C   C103      1.0  0.35082  0.28738  0.25631  1.0000
  Fe  Fe21      1.0  0.44727  0.19735  0.34527  1.0000
  S   S40       1.0  0.34644  0.39443  0.25954  1.0000
  C   C104      1.0  0.45100  0.06372  0.25277  1.0000
  C   C105      1.0  0.11595  0.21167  0.29675  1.0000
  H   H106      1.0  0.10057  0.34919  0.28205  1.0000
  C   C106      1.0  0.33459  0.18065  0.45100  1.0000
  H   H107      1.0  0.11864  0.07719  0.24202  1.0000
  S   S41       1.0  0.29320  0.22605  0.24448  1.0000
  C   C107      1.0  0.32184  0.11716  0.40564  1.0000
  H   H108      1.0  0.99225  0.34829  0.28603  1.0000
  C   C108      1.0  0.19318  0.18098  0.32634  1.0000
  S   S42       1.0  0.06014  0.44334  0.36036  1.0000
  S   S43       1.0  0.25065  0.17311  0.43372  1.0000
  H   H109      1.0  0.12534  0.37240  0.31684  1.0000
  C   C109      1.0  0.41757  0.16666  0.44283  1.0000
  S   S44       1.0  0.17726  0.15028  0.41794  1.0000
  H   H110      1.0  0.05274  0.01985  0.41528  1.0000
  C   C110      1.0  0.15523  0.03880  0.24326  1.0000
  Fe  Fe22      1.0  0.47222  0.25585  0.30242  1.0000
  Fe  Fe23      1.0  0.20746  0.19704  0.41461  1.0000
  S   S45       1.0  0.21664  0.23267  0.37492  1.0000
  C   C111      1.0  0.10223  0.36573  0.33245  1.0000
  H   H111      1.0  0.21744  0.19408  0.32669  1.0000
  Fe  Fe24      1.0  0.11764  0.01638  0.31728  1.0000
  H   H112      1.0  0.03822  0.37578  0.35350  1.0000
  S   S46       1.0  0.11232  0.07071  0.30426  1.0000
  H   H113      1.0  0.17302  0.03110  0.37766  1.0000
  C   C112      1.0  0.07563  0.35388  0.29287  1.0000
  S   S47       1.0  0.15409  0.40117  0.25842  1.0000
  H   H114      1.0  0.39937  0.22017  0.26726  1.0000
  H   H115      1.0  0.09850  0.13345  0.24941  1.0000
  S   S48       1.0  0.00518  0.23273  0.31569  1.0000
  S   S49       1.0  0.15209  0.43749  0.32729  1.0000
  H   H116      1.0  0.04243  0.14867  0.42395  1.0000
  C   C113      1.0  0.37548  0.26406  0.25064  1.0000
  C   C114      1.0  0.31500  0.11504  0.45655  1.0000
  Fe  Fe25      1.0  0.17811  0.48675  0.32227  1.0000
  H   H117      1.0  0.42717  0.05034  0.25435  1.0000
  C   C115      1.0  0.22339  0.38990  0.25107  1.0000
  C   C116      1.0  0.09159  0.10610  0.41362  1.0000
  H   H118      1.0  0.27985  0.29882  0.28482  1.0000
  C   C117      1.0  0.04412  0.07210  0.41187  1.0000
  S   S50       1.0  0.01729  0.21587  0.38133  1.0000
  S   S51       1.0  0.24424  0.07936  0.43682  1.0000
  H   H119      1.0  0.21292  0.30676  0.22379  1.0000
  S   S52       1.0  0.40803  0.15833  0.36325  1.0000
  Fe  Fe26      1.0  0.03237  0.25581  0.34516  1.0000
  S   S53       1.0  0.08317  0.27956  0.32737  1.0000
  S   S54       1.0  0.46294  0.28863  0.26283  1.0000
  H   H120      1.0  0.11282  0.25304  0.26487  1.0000
  H   H121      1.0  0.30342  0.31544  0.30888  1.0000
  C   C118      1.0  0.41817  0.17368  0.41386  1.0000
  C   C119      1.0  0.41121  0.14873  0.39878  1.0000
  C   C120      1.0  0.40544  0.11645  0.41242  1.0000
  C   C121      1.0  0.40581  0.10928  0.44128  1.0000
  H   H122      1.0  0.40046  0.09701  0.40074  1.0000
  H   H123      1.0  0.40109  0.08434  0.45167  1.0000
  C   C122      1.0  0.07579  0.08929  0.31957  1.0000
  C   C123      1.0  0.04911  0.07063  0.33655  1.0000
  C   C124      1.0  0.02001  0.08634  0.34787  1.0000
  C   C125      1.0  0.01762  0.12066  0.34236  1.0000
  C   C126      1.0  0.04445  0.13926  0.32583  1.0000
  C   C127      1.0  0.07330  0.12358  0.31434  1.0000
  H   H124      1.0  0.05072  0.04414  0.34068  1.0000
  H   H125      1.0  0.34214  0.20635  0.44859  1.0000
  H   H126      1.0  0.04266  0.16568  0.32146  1.0000
  H   H127      1.0  0.09358  0.13806  0.30108  1.0000
  H   H128      1.0  0.42275  0.19868  0.40337  1.0000
  H   H129      1.0  0.10242  0.13023  0.41391  1.0000
  C   C128      1.0  0.16889  0.01234  0.23060  1.0000
  C   C129      1.0  0.45134  0.09547  0.25968  1.0000
  C   C130      1.0  0.23651  0.01539  0.43074  1.0000
  C   C131      1.0  0.25922  0.99914  0.30145  1.0000
  H   H130      1.0  0.01762  0.06929  0.40996  1.0000
  C   C132      1.0  0.18730  0.34804  0.23990  1.0000
  C   C133      1.0  0.38838  0.46290  0.27282  1.0000
  C   C134      1.0  0.20063  0.99451  0.40100  1.0000
  C   C135      1.0  0.17861  0.24678  0.36383  1.0000
  C   C136      1.0  0.14725  0.23191  0.37613  1.0000
  C   C137      1.0  0.11745  0.24209  0.36548  1.0000
  C   C138      1.0  0.11906  0.26734  0.34277  1.0000
  C   C139      1.0  0.15027  0.28272  0.33108  1.0000
  C   C140      1.0  0.17996  0.27235  0.34147  1.0000
  H   H131      1.0  0.14597  0.21238  0.39363  1.0000
  H   H132      1.0  0.09338  0.23031  0.37472  1.0000
  H   H133      1.0  0.15166  0.30231  0.31355  1.0000
  H   H134      1.0  0.20406  0.28401  0.33198  1.0000
  H   H135      1.0  0.32880  0.43654  0.29921  1.0000
  H   H136      1.0  0.04263  0.14516  0.38752  1.0000
  C   C141      1.0  0.22367  0.98908  0.41999  1.0000
  C   C142      1.0  0.22617  0.04747  0.42295  1.0000
  C   C143      1.0  0.20321  0.05323  0.40376  1.0000
  C   C144      1.0  0.40115  0.36116  0.23579  1.0000
  H   H137      1.0  0.34166  0.12712  0.38793  1.0000
  H   H138      1.0  0.16408  0.04519  0.26175  1.0000
  Fe  Fe27      1.0  0.21800  0.12733  0.44079  1.0000
  C   C145      1.0  0.18025  0.16186  0.23650  1.0000
  H   H139      1.0  0.19899  0.15801  0.31722  1.0000
  H   H140      1.0  0.32519  0.09014  0.40983  1.0000
  H   H141      1.0  0.42166  0.18630  0.45443  1.0000
  C   C146      1.0  0.24848  0.34149  0.23287  1.0000
  C   C147      1.0  0.14934  0.14932  0.25157  1.0000
  S   S55       1.0  0.21312  0.17021  0.25462  1.0000
  H   H142      1.0  0.04976  0.33996  0.26049  1.0000
  H   H143      1.0  0.34108  0.17891  0.40683  1.0000
  N   N9        1.0  0.05792  0.10256  0.41189  1.0000
  N   N10       1.0  0.07226  0.36353  0.31873  1.0000
  H   H144      1.0  0.22654  0.41330  0.25813  1.0000
  C   C148      1.0  0.02251  0.46531  0.36191  1.0000
  H   H145      1.0  0.19611  0.07813  0.39692  1.0000
  H   H146      1.0  0.42774  0.10683  0.26701  1.0000
  C   C149      1.0  0.19087  0.37832  0.24953  1.0000
  C   C150      1.0  0.01476  0.35336  0.29490  1.0000
  C   C151      1.0  0.03705  0.13187  0.40917  1.0000
  C   C152      1.0  0.38001  0.36632  0.26021  1.0000
  N   N11       1.0  0.17111  0.20136  0.30977  1.0000
  H   H147      1.0  0.13850  0.08137  0.41859  1.0000
  C   C153      1.0  0.43146  0.31903  0.26258  1.0000
  C   C154      1.0  0.41046  0.32438  0.28704  1.0000
  C   C155      1.0  0.38489  0.34798  0.28583  1.0000
  H   H148      1.0  0.10620  0.34161  0.34492  1.0000
  N   N12       1.0  0.32438  0.13254  0.43050  1.0000
  H   H149      1.0  0.41379  0.31024  0.30684  1.0000
  H   H150      1.0  0.36863  0.35183  0.30482  1.0000
  C   C156      1.0  0.48154  0.04970  0.24276  1.0000
  Fe  Fe28      1.0  0.10413  0.46593  0.32942  1.0000
  N   N13       1.0  0.35670  0.48018  0.27949  1.0000
  H   H151      1.0  0.30976  0.33228  0.27271  1.0000
  Fe  Fe29      1.0  0.15278  0.44619  0.28092  1.0000
  H   H152      1.0  0.34767  0.30762  0.24008  1.0000
  C   C157      1.0  0.12934  0.23825  0.27712  1.0000
  S   S56       1.0  0.44314  0.25169  0.34608  1.0000
  H   H153      1.0  0.08908  0.20572  0.29966  1.0000
  C   C158      1.0  0.16386  0.24606  0.27376  1.0000
  C   C159      1.0  0.18452  0.22722  0.29036  1.0000
  C   C160      1.0  0.13736  0.19330  0.31295  1.0000
  H   H154      1.0  0.39111  0.26613  0.23029  1.0000
  H   H155      1.0  0.00949  0.12550  0.41379  1.0000
  H   H156      1.0  0.09915  0.38474  0.34656  1.0000
  C   C161      1.0  0.42677  0.33761  0.23700  1.0000
  H   H157      1.0  0.18082  0.17486  0.34841  1.0000
  N   N14       1.0  0.33135  0.28504  0.28208  1.0000
  C   C162      1.0  0.33547  0.25955  0.30257  1.0000
  H   H158      1.0  0.17454  0.26668  0.25862  1.0000
  C   C163      1.0  0.01163  0.36387  0.32101  1.0000
  C   C164      1.0  0.21595  0.32963  0.23170  1.0000
  C   C165      1.0  0.04697  0.34856  0.28060  1.0000
  C   C166      1.0  0.30476  0.30895  0.28750  1.0000
  H   H159      1.0  0.31962  0.25739  0.32284  1.0000
  Fe  Fe30      1.0  0.15457  0.16352  0.45963  1.0000
  H   H160      1.0  0.12685  0.17258  0.32810  1.0000
  H   H161      1.0  0.27708  0.38118  0.24340  1.0000
  H   H162      1.0  0.36366  0.21589  0.31401  1.0000
  H   H163      1.0  0.99993  0.43524  0.39999  1.0000
  C   C167      1.0  0.09820  0.04737  0.41669  1.0000
  C   C168      1.0  0.99666  0.45605  0.38436  1.0000
  C   C169      1.0  0.11217  0.07859  0.41615  1.0000
  H   H164      1.0  0.48089  0.02525  0.23694  1.0000
  C   C170      1.0  0.12240  0.14316  0.23757  1.0000
  C   C171      1.0  0.12982  0.05707  0.23201  1.0000
  H   H165      1.0  0.27495  0.46500  0.30912  1.0000
  H   H166      1.0  0.14643  0.14410  0.27409  1.0000
  H   H167      1.0  0.98797  0.00960  0.41106  1.0000
  S   S57       1.0  0.98986  0.28890  0.35773  1.0000
  Fe  Fe31      1.0  0.25407  0.20045  0.22634  1.0000
  C   C172      1.0  0.36015  0.23594  0.29768  1.0000
  C   C173      1.0  0.38021  0.23830  0.27150  1.0000
  S   S58       1.0  0.43949  0.99081  0.43994  1.0000
  H   H168      1.0  0.29646  0.12172  0.39929  1.0000
  C   C174      1.0  0.06395  0.04405  0.41451  1.0000
  H   H169      1.0  0.38916  0.43953  0.28737  1.0000
  H   H170      1.0  0.21141  0.23312  0.28740  1.0000
  H   H171      1.0  0.16225  0.33898  0.23853  1.0000
  C   C175      1.0  0.25203  0.37163  0.24263  1.0000
  S   S59       1.0  0.10300  0.47266  0.28341  1.0000
  C   C176      1.0  0.32818  0.46291  0.29298  1.0000
  H   H172      1.0  0.25451  0.01080  0.44528  1.0000
  C   C177      1.0  0.04082  0.36859  0.33281  1.0000
  H   H173      1.0  0.44685  0.29812  0.44395  1.0000
  C   C178      1.0  0.41108  0.13451  0.45664  1.0000
  H   H174      1.0  0.30668  0.08953  0.45893  1.0000
  H   H175      1.0  0.25990  0.02581  0.29875  1.0000
  C   C179      1.0  0.29757  0.47891  0.29874  1.0000
  S   S60       1.0  0.16937  0.99423  0.31264  1.0000
  H   H176      1.0  0.39045  0.45665  0.25133  1.0000
  C   C180      1.0  0.33394  0.16499  0.42750  1.0000
  H   H177      1.0  0.32182  0.29011  0.46629  1.0000
  H   H178      1.0  0.99938  0.07188  0.36091  1.0000
  S   S61       1.0  0.47235  0.20132  0.30076  1.0000
  S   S62       1.0  0.28535  0.32083  0.22013  1.0000
  H   H179      1.0  0.48135  0.11394  0.40755  1.0000
  H   H180      1.0  0.24433  0.99358  0.34620  1.0000
  S   S63       1.0  0.10161  0.99264  0.36148  1.0000
  C   C181      1.0  0.43090  0.28996  0.46451  1.0000
  H   H181      1.0  0.48256  0.13775  0.26122  1.0000
  S   S64       1.0  0.46045  0.47965  0.45102  1.0000
  H   H182      1.0  0.18864  0.99819  0.23950  1.0000
  S   S65       1.0  0.18181  0.21223  0.45460  1.0000
  H   H183      1.0  0.40398  0.29072  0.46097  1.0000
  C   C182      1.0  0.48204  0.11295  0.25616  1.0000
  S   S66       1.0  0.35053  0.99047  0.22402  1.0000
  H   H184      1.0  0.27890  0.24614  0.46596  1.0000
  H   H185      1.0  0.41072  0.47825  0.27438  1.0000
  S   S67       1.0  0.30296  0.47019  0.22279  1.0000
  Fe  Fe32      1.0  0.33770  0.42715  0.21970  1.0000
  Fe  Fe33      1.0  0.15537  0.34347  0.63546  1.0000
  S   S68       1.0  0.11936  0.36164  0.60593  1.0000
  S   S69       1.0  0.13394  0.32940  0.68117  1.0000
  Fe  Fe34      1.0  0.21669  0.35281  0.58934  1.0000
  S   S70       1.0  0.18544  0.37004  0.55569  1.0000
  S   S71       1.0  0.27330  0.34970  0.57714  1.0000
  Fe  Fe35      1.0  0.15918  0.39986  0.58691  1.0000
  S   S72       1.0  0.14760  0.45287  0.57471  1.0000
  Fe  Fe36      1.0  0.14859  0.33014  0.57759  1.0000
  S   S73       1.0  0.11802  0.29733  0.55762  1.0000
  S   S74       1.0  0.19276  0.38528  0.61941  1.0000
  S   S75       1.0  0.18240  0.30923  0.60823  1.0000
  S   S76       1.0  0.44998  0.47984  0.53186  1.0000
  C   C183      1.0  0.13523  0.44666  0.63116  1.0000
  Fe  Fe37      1.0  0.38530  0.27404  0.60720  1.0000
  S   S77       1.0  0.37449  0.32495  0.58730  1.0000
  S   S78       1.0  0.35615  0.24451  0.64517  1.0000
  C   C184      1.0  0.47057  0.46938  0.60342  1.0000
  S   S79       1.0  0.44031  0.31588  0.54026  1.0000
  C   C185      1.0  0.28741  0.29314  0.63463  1.0000
  Fe  Fe38      1.0  0.43127  0.33259  0.58262  1.0000
  S   S80       1.0  0.46302  0.37583  0.58921  1.0000
  Fe  Fe39      1.0  0.38461  0.30300  0.54715  1.0000
  S   S81       1.0  0.35617  0.30816  0.51001  1.0000
  C   C186      1.0  0.08676  0.06237  0.48554  1.0000
  S   S82       1.0  0.39128  0.25179  0.56789  1.0000
  Fe  Fe40      1.0  0.09124  0.47600  0.71720  1.0000
  C   C187      1.0  0.45609  0.19408  0.49951  1.0000
  Fe  Fe41      1.0  0.46581  0.02416  0.52728  1.0000
  H   H186      1.0  0.05319  0.27287  0.54985  1.0000
  H   H187      1.0  0.06094  0.33996  0.67594  1.0000
  Fe  Fe42      1.0  0.41479  0.07202  0.50537  1.0000
  H   H188      1.0  0.33193  0.35492  0.71131  1.0000
  S   S83       1.0  0.42131  0.04889  0.54856  1.0000
  H   H189      1.0  0.26198  0.30254  0.63139  1.0000
  H   H190      1.0  0.12754  0.44076  0.67581  1.0000
  H   H191      1.0  0.22028  0.01725  0.58985  1.0000
  H   H192      1.0  0.47826  0.30821  0.69507  1.0000
  C   C188      1.0  0.26196  0.99184  0.55191  1.0000
  C   C189      1.0  0.03109  0.08586  0.48574  1.0000
  H   H193      1.0  0.47695  0.48276  0.66858  1.0000
  H   H194      1.0  0.42528  0.45246  0.58990  1.0000
  H   H195      1.0  0.26807  0.44168  0.54469  1.0000
  C   C190      1.0  0.02900  0.15603  0.53340  1.0000
  S   S84       1.0  0.46192  0.05097  0.48504  1.0000
  C   C191      1.0  0.26422  0.46642  0.53466  1.0000
  H   H196      1.0  0.32378  0.25772  0.55351  1.0000
  C   C192      1.0  0.47656  0.19621  0.62334  1.0000
  C   C193      1.0  0.39988  0.29460  0.69575  1.0000
  C   C194      1.0  0.38515  0.28669  0.67328  1.0000
  C   C195      1.0  0.37325  0.25464  0.67368  1.0000
  C   C196      1.0  0.37635  0.23045  0.69630  1.0000
  H   H197      1.0  0.06698  0.46691  0.61488  1.0000
  H   H198      1.0  0.40874  0.31938  0.69564  1.0000
  H   H199      1.0  0.38273  0.30545  0.65578  1.0000
  H   H200      1.0  0.36714  0.20562  0.69660  1.0000
  C   C197      1.0  0.04569  0.11745  0.48112  1.0000
  H   H201      1.0  0.46617  0.99100  0.64227  1.0000
  H   H202      1.0  0.41608  0.46673  0.67585  1.0000
  Fe  Fe43      1.0  0.01708  0.45820  0.71834  1.0000
  C   C198      1.0  0.46894  0.38210  0.62315  1.0000
  N   N15       1.0  0.43957  0.25678  0.47644  1.0000
  H   H203      1.0  0.15076  0.23780  0.54253  1.0000
  C   C199      1.0  0.24642  0.31152  0.52085  1.0000
  C   C200      1.0  0.32538  0.16288  0.47762  1.0000
  H   H204      1.0  0.33526  0.38268  0.66210  1.0000
  H   H205      1.0  0.47704  0.14412  0.57641  1.0000
  C   C201      1.0  0.29678  0.38607  0.57700  1.0000
  C   C202      1.0  0.28592  0.40765  0.59598  1.0000
  C   C203      1.0  0.30543  0.43580  0.59665  1.0000
  H   H206      1.0  0.00392  0.08297  0.48812  1.0000
  C   C204      1.0  0.34659  0.42160  0.55888  1.0000
  C   C205      1.0  0.32731  0.39298  0.55859  1.0000
  H   H207      1.0  0.26289  0.40236  0.61063  1.0000
  H   H208      1.0  0.06816  0.27015  0.60825  1.0000
  H   H209      1.0  0.37002  0.42686  0.54455  1.0000
  H   H210      1.0  0.33602  0.37621  0.54399  1.0000
  C   C206      1.0  0.08158  0.31775  0.54866  1.0000
  C   C207      1.0  0.05273  0.29946  0.54658  1.0000
  C   C208      1.0  0.02292  0.31551  0.54094  1.0000
  C   C209      1.0  0.02202  0.34991  0.53681  1.0000
  C   C210      1.0  0.05119  0.36825  0.53808  1.0000
  C   C211      1.0  0.08082  0.35218  0.54433  1.0000
  S   S85       1.0  0.35868  0.47902  0.57970  1.0000
  S   S86       1.0  0.06475  0.43057  0.70997  1.0000
  H   H211      1.0  0.05075  0.39482  0.53469  1.0000
  H   H212      1.0  0.10317  0.36646  0.54553  1.0000
  C   C212      1.0  0.07566  0.23094  0.70556  1.0000
  H   H213      1.0  0.42998  0.37180  0.69086  1.0000
  H   H214      1.0  0.26747  0.32839  0.52066  1.0000
  C   C213      1.0  0.11175  0.29137  0.69028  1.0000
  C   C214      1.0  0.11815  0.26624  0.67389  1.0000
  C   C215      1.0  0.10039  0.23601  0.68168  1.0000
  C   C216      1.0  0.01912  0.18781  0.52389  1.0000
  H   H215      1.0  0.39115  0.24733  0.50163  1.0000
  H   H216      1.0  0.13709  0.26987  0.65539  1.0000
  H   H217      1.0  0.10584  0.21648  0.66912  1.0000
  H   H218      1.0  0.00777  0.10033  0.70410  1.0000
  S   S87       1.0  0.38036  0.03223  0.49787  1.0000
  H   H219      1.0  0.46242  0.16951  0.50834  1.0000
  C   C217      1.0  0.14358  0.46842  0.60635  1.0000
  S   S88       1.0  0.48486  0.40113  0.71055  1.0000
  C   C218      1.0  0.08080  0.12166  0.47902  1.0000
  C   C219      1.0  0.41658  0.45899  0.63315  1.0000
  H   H220      1.0  0.40524  0.19121  0.52204  1.0000
  C   C220      1.0  0.44945  0.37855  0.67303  1.0000
  N   N16       1.0  0.04165  0.45515  0.58199  1.0000
  C   C221      1.0  0.31475  0.25491  0.53423  1.0000
  C   C222      1.0  0.16623  0.24334  0.52149  1.0000
  H   H221      1.0  0.10271  0.04106  0.48686  1.0000
  H   H222      1.0  0.19303  0.28845  0.47896  1.0000
  H   H223      1.0  0.12857  0.09723  0.47976  1.0000
  H   H224      1.0  0.01077  0.24435  0.61312  1.0000
  C   C223      1.0  0.23109  0.31132  0.49705  1.0000
  C   C224      1.0  0.31552  0.12988  0.48047  1.0000
  H   H225      1.0  0.30467  0.29781  0.61433  1.0000
  C   C225      1.0  0.31324  0.27327  0.48519  1.0000
  H   H226      1.0  0.31668  0.48162  0.53098  1.0000
  C   C226      1.0  0.47998  0.21361  0.48038  1.0000
  H   H227      1.0  0.14268  0.19395  0.71390  1.0000
  C   C227      1.0  0.04793  0.27622  0.62405  1.0000
  H   H228      1.0  0.21090  0.45855  0.53523  1.0000
  C   C228      1.0  0.32608  0.27667  0.50989  1.0000
  C   C229      1.0  0.20857  0.26717  0.54470  1.0000
  C   C230      1.0  0.32292  0.34232  0.69567  1.0000
  H   H229      1.0  0.31488  0.35320  0.62689  1.0000
  H   H230      1.0  0.14853  0.25295  0.50686  1.0000
  H   H231      1.0  0.48585  0.46998  0.58303  1.0000
  S   S89       1.0  0.44089  0.28321  0.60583  1.0000
  C   C231      1.0  0.46723  0.15912  0.59217  1.0000
  S   S90       1.0  0.05560  0.19199  0.71579  1.0000
  H   H232      1.0  0.32561  0.17468  0.49603  1.0000
  H   H233      1.0  0.00058  0.30125  0.53975  1.0000
  C   C232      1.0  0.01772  0.47261  0.53142  1.0000
  C   C233      1.0  0.44437  0.37211  0.64643  1.0000
  C   C234      1.0  0.43640  0.45968  0.60708  1.0000
  C   C235      1.0  0.41923  0.18218  0.61850  1.0000
  S   S91       1.0  0.19259  0.13633  0.48303  1.0000
  Fe  Fe44      1.0  0.42869  0.00895  0.48121  1.0000
  H   H234      1.0  0.47367  0.41117  0.53228  1.0000
  C   C236      1.0  0.03357  0.33351  0.67753  1.0000
  H   H235      1.0  0.28178  0.21366  0.55305  1.0000
  N   N17       1.0  0.48484  0.47724  0.62541  1.0000
  C   C237      1.0  0.27749  0.22691  0.50948  1.0000
  C   C238      1.0  0.39275  0.23803  0.71804  1.0000
  C   C239      1.0  0.28901  0.24839  0.48495  1.0000
  H   H236      1.0  0.00096  0.41960  0.59194  1.0000
  C   C240      1.0  0.01583  0.26159  0.62693  1.0000
  H   H237      1.0  0.07868  0.31027  0.63908  1.0000
  C   C241      1.0  0.99002  0.26986  0.64719  1.0000
  S   S92       1.0  0.40860  0.12612  0.49311  1.0000
  C   C242      1.0  0.29068  0.23011  0.53398  1.0000
  H   H238      1.0  0.17736  0.22017  0.51550  1.0000
  H   H239      1.0  0.46239  0.40092  0.48567  1.0000
  C   C243      1.0  0.13322  0.45793  0.65684  1.0000
  H   H240      1.0  0.03375  0.43669  0.62572  1.0000
  C   C244      1.0  0.99543  0.07859  0.71683  1.0000
  H   H241      1.0  0.42113  0.36018  0.64384  1.0000
  C   C245      1.0  0.47949  0.39393  0.67672  1.0000
  N   N18       1.0  0.19334  0.26743  0.52142  1.0000
  C   C246      1.0  0.05160  0.05828  0.48736  1.0000
  Fe  Fe45      1.0  0.44569  0.26616  0.56421  1.0000
  H   H242      1.0  0.02968  0.13867  0.47907  1.0000
  C   C247      1.0  0.43120  0.46744  0.65541  1.0000
  H   H243      1.0  0.24755  0.28879  0.56313  1.0000
  C   C248      1.0  0.23516  0.28929  0.54481  1.0000
  H   H244      1.0  0.03852  0.20653  0.51527  1.0000
  H   H245      1.0  0.20035  0.24958  0.56324  1.0000
  C   C249      1.0  0.05855  0.47886  0.56216  1.0000
  C   C250      1.0  0.99652  0.29332  0.66385  1.0000
  H   H246      1.0  0.02391  0.32524  0.69999  1.0000
  C   C251      1.0  0.42397  0.20632  0.50725  1.0000
  H   H247      1.0  0.39204  0.18507  0.62376  1.0000
  H   H248      1.0  0.30806  0.11599  0.50108  1.0000
  H   H249      1.0  0.13016  0.42099  0.63070  1.0000
  C   C252      1.0  0.41611  0.23795  0.49548  1.0000
  H   H250      1.0  0.29686  0.45227  0.61152  1.0000
  H   H251      1.0  0.02037  0.35614  0.67012  1.0000
  C   C253      1.0  0.08715  0.28627  0.71427  1.0000
  H   H252      1.0  0.41494  0.14914  0.58870  1.0000
  C   C254      1.0  0.44156  0.19926  0.63092  1.0000
  H   H253      1.0  0.46658  0.99988  0.69556  1.0000
  H   H254      1.0  0.01164  0.10635  0.54971  1.0000
  N   N19       1.0  0.30045  0.30965  0.65562  1.0000
  C   C255      1.0  0.29829  0.29430  0.68261  1.0000
  C   C256      1.0  0.31332  0.34107  0.64827  1.0000
  C   C257      1.0  0.30950  0.31036  0.70301  1.0000
  C   C258      1.0  0.32488  0.35784  0.66811  1.0000
  H   H255      1.0  0.28572  0.26602  0.64084  1.0000
  H   H256      1.0  0.28857  0.26923  0.68838  1.0000
  S   S93       1.0  0.03331  0.01892  0.49048  1.0000
  C   C259      1.0  0.23194  0.47614  0.52924  1.0000
  C   C260      1.0  0.05458  0.44560  0.60846  1.0000
  C   C261      1.0  0.46560  0.47663  0.65113  1.0000
  C   C262      1.0  0.40473  0.27009  0.71766  1.0000
  S   S94       1.0  0.09819  0.16159  0.47298  1.0000
  S   S95       1.0  0.24620  0.19612  0.51104  1.0000
  Fe  Fe46      1.0  0.39034  0.00679  0.53966  1.0000
  C   C263      1.0  0.43207  0.16202  0.59893  1.0000
  N   N20       1.0  0.02803  0.30769  0.66081  1.0000
  H   H257      1.0  0.98911  0.24672  0.52442  1.0000
  C   C264      1.0  0.33568  0.44299  0.57806  1.0000
  C   C265      1.0  0.21765  0.99001  0.59274  1.0000
  C   C266      1.0  0.47981  0.01812  0.70414  1.0000
  C   C267      1.0  0.20454  0.28882  0.49764  1.0000
  H   H258      1.0  0.27299  0.01351  0.55767  1.0000
  Fe  Fe47      1.0  0.22244  0.18403  0.47435  1.0000
  H   H259      1.0  0.05572  0.15031  0.53202  1.0000
  C   C268      1.0  0.00121  0.44788  0.55145  1.0000
  H   H260      1.0  0.43440  0.30755  0.47911  1.0000
  H   H261      1.0  0.43176  0.21530  0.64591  1.0000
  C   C269      1.0  0.05364  0.29923  0.64136  1.0000
  H   H262      1.0  0.07360  0.42605  0.60604  1.0000
  H   H263      1.0  0.16688  0.38911  0.70490  1.0000
  H   H264      1.0  0.46467  0.30303  0.66286  1.0000
  C   C270      1.0  0.00427  0.13138  0.54327  1.0000
  H   H265      1.0  0.38992  0.45194  0.63591  1.0000
  S   S96       1.0  0.48369  0.23017  0.55005  1.0000
  H   H266      1.0  0.12218  0.38444  0.71799  1.0000
  H   H267      1.0  0.24005  0.32816  0.47817  1.0000
  H   H268      1.0  0.00830  0.47953  0.51172  1.0000
  H   H269      1.0  0.30139  0.99025  0.51670  1.0000
  C   C271      1.0  0.01372  0.43922  0.57669  1.0000
  C   C272      1.0  0.10139  0.09412  0.48141  1.0000
  C   C273      1.0  0.48619  0.29891  0.67488  1.0000
  C   C274      1.0  0.48776  0.39810  0.49109  1.0000
  H   H270      1.0  0.40274  0.08680  0.71886  1.0000
  C   C275      1.0  0.47141  0.24529  0.46931  1.0000
  Fe  Fe48      1.0  0.20126  0.17223  0.87458  1.0000
  S   S97       1.0  0.23333  0.15659  0.83734  1.0000
  S   S98       1.0  0.20400  0.14725  0.91816  1.0000
  Fe  Fe49      1.0  0.16947  0.22661  0.83982  1.0000
  S   S99       1.0  0.19860  0.21587  0.79933  1.0000
  S   S100      1.0  0.13484  0.26949  0.84193  1.0000
  Fe  Fe50      1.0  0.18643  0.16285  0.81716  1.0000
  S   S101      1.0  0.17600  0.12608  0.78912  1.0000
  Fe  Fe51      1.0  0.24271  0.21068  0.82302  1.0000
  S   S102      1.0  0.29590  0.22789  0.80450  1.0000
  S   S103      1.0  0.15316  0.17417  0.85575  1.0000
  S   S104      1.0  0.21469  0.22578  0.86214  1.0000
  Fe  Fe52      1.0  0.29943  0.44431  0.84238  1.0000
  S   S105      1.0  0.34547  0.44826  0.80961  1.0000
  S   S106      1.0  0.30554  0.43498  0.88743  1.0000
  Fe  Fe53      1.0  0.25140  0.45717  0.80054  1.0000
  S   S107      1.0  0.29298  0.46218  0.76404  1.0000
  S   S108      1.0  0.46620  0.19569  0.72742  1.0000
  Fe  Fe54      1.0  0.31391  0.41801  0.78782  1.0000
  S   S109      1.0  0.33774  0.37792  0.76526  1.0000
  C   C276      1.0  0.42205  0.33929  0.82483  1.0000
  C   C277      1.0  0.11245  0.46895  0.84600  1.0000
  S   S110      1.0  0.26980  0.41049  0.82240  1.0000
  H   H271      1.0  0.01410  0.09282  0.77701  1.0000
  C   C278      1.0  0.42306  0.33144  0.79791  1.0000
  H   H272      1.0  0.15183  0.00340  0.76979  1.0000
  Fe  Fe55      1.0  0.10367  0.41549  0.93850  1.0000
  C   C279      1.0  0.46238  0.04269  0.85420  1.0000
  S   S111      1.0  0.08855  0.44396  0.89980  1.0000
  C   C280      1.0  0.39887  0.17967  0.87283  1.0000
  N   N21       1.0  0.23859  0.46641  0.94590  1.0000
  C   C281      1.0  0.20123  0.21211  0.96248  1.0000
  S   S112      1.0  0.14892  0.38420  0.94499  1.0000
  S   S113      1.0  0.45459  0.12447  0.79424  1.0000
  H   H273      1.0  0.26593  0.17274  0.88341  1.0000
  C   C282      1.0  0.37364  0.23284  0.86449  1.0000
  H   H274      1.0  0.23415  0.42195  0.92894  1.0000
  C   C283      1.0  0.01465  0.28091  0.79135  1.0000
  H   H275      1.0  0.32545  0.17088  0.89147  1.0000
  H   H276      1.0  0.24608  0.08843  0.89188  1.0000
  S   S114      1.0  0.09024  0.45885  0.76273  1.0000
  C   C284      1.0  0.37301  0.22825  0.83679  1.0000
  C   C285      1.0  0.00311  0.34811  0.79149  1.0000
  H   H277      1.0  0.41653  0.42210  0.80968  1.0000
  Fe  Fe56      1.0  0.05815  0.41665  0.75650  1.0000
  C   C286      1.0  0.26805  0.03516  0.75935  1.0000
  N   N22       1.0  0.38547  0.20025  0.82729  1.0000
  H   H278      1.0  0.36378  0.25508  0.87193  1.0000
  H   H279      1.0  0.38670  0.21124  0.90434  1.0000
  H   H280      1.0  0.99010  0.03527  0.78111  1.0000
  H   H281      1.0  0.04920  0.01146  0.91844  1.0000
  C   C287      1.0  0.02801  0.31225  0.86317  1.0000
  H   H282      1.0  0.46720  0.06202  0.91876  1.0000
  C   C288      1.0  0.16940  0.34646  0.79985  1.0000
  C   C289      1.0  0.40511  0.08277  0.74084  1.0000
  C   C290      1.0  0.24661  0.04999  0.77901  1.0000
  H   H283      1.0  0.20346  0.26724  0.92649  1.0000
  H   H284      1.0  0.06933  0.33058  0.83134  1.0000
  C   C291      1.0  0.43786  0.99390  0.84023  1.0000
  H   H285      1.0  0.39416  0.43021  0.76158  1.0000
  S   S115      1.0  0.38274  0.30161  0.90713  1.0000
  H   H286      1.0  0.07932  0.22366  0.82297  1.0000
  C   C292      1.0  0.11214  0.23343  0.78341  1.0000
  H   H287      1.0  0.01840  0.03231  0.87890  1.0000
  H   H288      1.0  0.09141  0.14448  0.77418  1.0000
  H   H289      1.0  0.43576  0.12672  0.73848  1.0000
  C   C293      1.0  0.04170  0.30375  0.78375  1.0000
  C   C294      1.0  0.47001  0.06094  0.87455  1.0000
  C   C295      1.0  0.44498  0.01746  0.91028  1.0000
  H   H290      1.0  0.16222  0.42284  0.76448  1.0000
  N   N23       1.0  0.00116  0.06971  0.74378  1.0000
  H   H291      1.0  0.23028  0.04688  0.89223  1.0000
  C   C296      1.0  0.38414  0.19608  0.79822  1.0000
  C   C297      1.0  0.31409  0.14493  0.93344  1.0000
  C   C298      1.0  0.39075  0.05425  0.75788  1.0000
  C   C299      1.0  0.39404  0.04912  0.78619  1.0000
  C   C300      1.0  0.41197  0.07200  0.79736  1.0000
  C   C301      1.0  0.42764  0.09971  0.78017  1.0000
  C   C302      1.0  0.10451  0.05756  0.78621  1.0000
  H   H292      1.0  0.04888  0.07495  0.75657  1.0000
  N   N24       1.0  0.23178  0.22949  0.94670  1.0000
  H   H293      1.0  0.41424  0.06780  0.81930  1.0000
  H   H294      1.0  0.25562  0.07073  0.78750  1.0000
  S   S116      1.0  0.07054  0.36522  0.77427  1.0000
  C   C303      1.0  0.32613  0.39747  0.89305  1.0000
  C   C304      1.0  0.33535  0.38641  0.91922  1.0000
  C   C305      1.0  0.35248  0.35680  0.92356  1.0000
  C   C306      1.0  0.36054  0.33821  0.90175  1.0000
  C   C307      1.0  0.35066  0.34887  0.87576  1.0000
  C   C308      1.0  0.33367  0.37859  0.87135  1.0000
  H   H295      1.0  0.32960  0.40079  0.93610  1.0000
  H   H296      1.0  0.17580  0.39528  0.80972  1.0000
  H   H297      1.0  0.35594  0.33416  0.85905  1.0000
  H   H298      1.0  0.32641  0.38675  0.85114  1.0000
  C   C309      1.0  0.16942  0.46145  0.82300  1.0000
  S   S117      1.0  0.06508  0.37743  0.96074  1.0000
  C   C310      1.0  0.26407  0.05293  0.93809  1.0000
  C   C311      1.0  0.12073  0.45260  0.87114  1.0000
  C   C312      1.0  0.15374  0.44158  0.87246  1.0000
  C   C313      1.0  0.17826  0.44630  0.84838  1.0000
  H   H299      1.0  0.31726  0.22422  0.93762  1.0000
  C   C314      1.0  0.28832  0.13084  0.95442  1.0000
  H   H300      1.0  0.16022  0.42899  0.89184  1.0000
  H   H301      1.0  0.20365  0.43745  0.84929  1.0000
  C   C315      1.0  0.13940  0.10059  0.79790  1.0000
  C   C316      1.0  0.11520  0.10356  0.82121  1.0000
  C   C317      1.0  0.08535  0.08402  0.82664  1.0000
  C   C318      1.0  0.08007  0.06084  0.80925  1.0000
  C   C319      1.0  0.22847  0.25787  0.92896  1.0000
  C   C320      1.0  0.13389  0.07765  0.78038  1.0000
  H   H302      1.0  0.11918  0.12121  0.83481  1.0000
  H   H303      1.0  0.06643  0.08672  0.84445  1.0000
  H   H304      1.0  0.40816  0.16015  0.88704  1.0000
  H   H305      1.0  0.15236  0.07547  0.76215  1.0000
  C   C321      1.0  0.12809  0.27641  0.87687  1.0000
  C   C322      1.0  0.13135  0.25065  0.89834  1.0000
  C   C323      1.0  0.12618  0.25620  0.92626  1.0000
  C   C324      1.0  0.11831  0.28763  0.93275  1.0000
  C   C325      1.0  0.11527  0.31349  0.91128  1.0000
  C   C326      1.0  0.12012  0.30783  0.88335  1.0000
  H   H306      1.0  0.13753  0.22631  0.89351  1.0000
  N   N25       1.0  0.11920  0.18872  0.75654  1.0000
  H   H307      1.0  0.10928  0.33785  0.91617  1.0000
  H   H308      1.0  0.11854  0.32790  0.86675  1.0000
  C   C327      1.0  0.30508  0.27011  0.79385  1.0000
  C   C328      1.0  0.28417  0.29472  0.80364  1.0000
  C   C329      1.0  0.29387  0.32817  0.79536  1.0000
  C   C330      1.0  0.32420  0.33683  0.77711  1.0000
  C   C331      1.0  0.34449  0.31212  0.76717  1.0000
  C   C332      1.0  0.33515  0.27901  0.77564  1.0000
  H   H309      1.0  0.26088  0.28799  0.81778  1.0000
  H   H310      1.0  0.27776  0.34711  0.80285  1.0000
  Fe  Fe57      1.0  0.00496  0.19056  0.74336  1.0000
  H   H311      1.0  0.35124  0.26021  0.76778  1.0000
  C   C333      1.0  0.24625  0.14670  0.92412  1.0000
  C   C334      1.0  0.27197  0.16087  0.90319  1.0000
  C   C335      1.0  0.30579  0.15998  0.90784  1.0000
  H   H312      1.0  0.19696  0.04945  0.80310  1.0000
  C   C336      1.0  0.25582  0.00889  0.74828  1.0000
  N   N26       1.0  0.20188  0.01152  0.77726  1.0000
  C   C337      1.0  0.41985  0.37211  0.82906  1.0000
  C   C338      1.0  0.03685  0.37003  0.88456  1.0000
  C   C339      1.0  0.16180  0.32809  0.77966  1.0000
  C   C340      1.0  0.16959  0.38071  0.79432  1.0000
  S   S118      1.0  0.04230  0.03705  0.81592  1.0000
  H   H313      1.0  0.16174  0.30148  0.78384  1.0000
  H   H314      1.0  0.43806  0.00754  0.93224  1.0000
  C   C341      1.0  0.38671  0.20837  0.88259  1.0000
  H   H315      1.0  0.40051  0.17584  0.79162  1.0000
  H   H316      1.0  0.99606  0.35153  0.91761  1.0000
  C   C342      1.0  0.16199  0.39617  0.76861  1.0000
  H   H317      1.0  0.04049  0.39242  0.89323  1.0000
  H   H318      1.0  0.12843  0.23615  0.94280  1.0000
  H   H319      1.0  0.07138  0.41381  0.84407  1.0000
  N   N27       1.0  0.41883  0.38869  0.78001  1.0000
  S   S119      1.0  0.05929  0.99058  0.74919  1.0000
  S   S120      1.0  0.99682  0.18245  0.79034  1.0000
  Fe  Fe58      1.0  0.46700  0.24075  0.74792  1.0000
  C   C343      1.0  0.41835  0.39664  0.80626  1.0000
  N   N28       1.0  0.05656  0.36436  0.86037  1.0000
  H   H320      1.0  0.08704  0.47782  0.84491  1.0000
  C   C344      1.0  0.13617  0.17468  0.73235  1.0000
  H   H321      1.0  0.29412  0.04395  0.75271  1.0000
  H   H322      1.0  0.38335  0.02718  0.79941  1.0000
  H   H323      1.0  0.10047  0.03996  0.77256  1.0000
  H   H324      1.0  0.48253  0.08487  0.86840  1.0000
  H   H325      1.0  0.15970  0.16239  0.73755  1.0000
  H   H326      1.0  0.42466  0.30604  0.79430  1.0000
  S   S121      1.0  0.37139  0.02386  0.74318  1.0000
  H   H327      1.0  0.98801  0.30013  0.89814  1.0000
  C   C345      1.0  0.43753  0.99991  0.88934  1.0000
  C   C346      1.0  0.12675  0.22031  0.75967  1.0000
  H   H328      1.0  0.42243  0.35026  0.75470  1.0000
  C   C347      1.0  0.09735  0.16951  0.77668  1.0000
  H   H329      1.0  0.99860  0.37395  0.79187  1.0000
  H   H330      1.0  0.04979  0.25254  0.74019  1.0000
  S   S122      1.0  0.11293  0.29427  0.96773  1.0000
  C   C348      1.0  0.09021  0.21388  0.80422  1.0000
  C   C349      1.0  0.26323  0.21742  0.94960  1.0000
  H   H331      1.0  0.00798  0.46303  0.83899  1.0000
  H   H332      1.0  0.12996  0.48513  0.80240  1.0000
  Fe  Fe59      1.0  0.37787  0.28721  0.95353  1.0000
  H   H333      1.0  0.15483  0.00887  0.80537  1.0000
  H   H334      1.0  0.27225  0.99723  0.73298  1.0000
  H   H335      1.0  0.17516  0.33408  0.81972  1.0000
  H   H336      1.0  0.41372  0.40496  0.73727  1.0000
  H   H337      1.0  0.28439  0.43962  0.94545  1.0000
  C   C350      1.0  0.08269  0.18169  0.80087  1.0000
  S   S123      1.0  0.19841  0.46483  0.79214  1.0000
  C   C351      1.0  0.46136  0.04814  0.90274  1.0000
  C   C352      1.0  0.25723  0.27520  0.91386  1.0000
  C   C353      1.0  0.28942  0.26320  0.91696  1.0000
  C   C354      1.0  0.03592  0.33741  0.78329  1.0000
  H   H338      1.0  0.02495  0.28976  0.85453  1.0000
  H   H339      1.0  0.42264  0.32001  0.84246  1.0000
  C   C355      1.0  0.25439  0.13195  0.94985  1.0000
  S   S124      1.0  0.42813  0.27920  0.74321  1.0000
  H   H340      1.0  0.31194  0.27661  0.90571  1.0000
  H   H341      1.0  0.01923  0.25499  0.79125  1.0000
  H   H342      1.0  0.06578  0.16612  0.81693  1.0000
  H   H343      1.0  0.09268  0.38414  0.82477  1.0000
  H   H344      1.0  0.11932  0.15639  0.72619  1.0000
  H   H345      1.0  0.44003  0.43073  0.75252  1.0000
  C   C356      1.0  0.15422  0.34431  0.75420  1.0000
  H   H346      1.0  0.30825  0.29789  0.72427  1.0000
  C   C357      1.0  0.42371  0.10544  0.75193  1.0000
  H   H347      1.0  0.46908  0.05304  0.83234  1.0000
  C   C358      1.0  0.29247  0.23401  0.93484  1.0000
  Fe  Fe60      1.0  0.48012  0.16957  0.76747  1.0000
  H   H348      1.0  0.20179  0.07912  0.90104  1.0000
  S   S125      1.0  0.00846  0.44191  0.76504  1.0000
  C   C359      1.0  0.08243  0.38891  0.84621  1.0000
  S   S126      1.0  0.35666  0.14451  0.93877  1.0000
  C   C360      1.0  0.39801  0.17594  0.84495  1.0000
  H   H349      1.0  0.10367  0.38898  0.85850  1.0000
  H   H350      1.0  0.39598  0.21901  0.73506  1.0000
  H   H351      1.0  0.41874  0.37843  0.84996  1.0000
  N   N29       1.0  0.15435  0.37792  0.74900  1.0000
  H   H352      1.0  0.11804  0.25844  0.78592  1.0000
  C   C361      1.0  0.41667  0.41500  0.75671  1.0000
  C   C362      1.0  0.22241  0.99739  0.75744  1.0000
  C   C363      1.0  0.26975  0.45934  0.95342  1.0000
  H   H353      1.0  0.28541  0.05375  0.92140  1.0000
  H   H354      1.0  0.36229  0.24709  0.82294  1.0000
  H   H355      1.0  0.06712  0.29536  0.77796  1.0000
  H   H356      1.0  0.35975  0.34866  0.94374  1.0000
  C   C364      1.0  0.00735  0.31808  0.88756  1.0000
  S   S127      1.0  0.47600  0.21418  0.78913  1.0000
  C   C365      1.0  0.42166  0.35661  0.77556  1.0000
  C   C366      1.0  0.01185  0.34703  0.89846  1.0000
  H   H357      1.0  0.14406  0.23554  0.74371  1.0000
  C   C367      1.0  0.05286  0.33565  0.84993  1.0000
  H   H358      1.0  0.39310  0.21901  0.78403  1.0000
  H   H359      1.0  0.25459  0.29781  0.89991  1.0000
  C   C368      1.0  0.22738  0.06904  0.90284  1.0000
  C   C369      1.0  0.14673  0.39411  0.72199  1.0000
  H   H360      1.0  0.40730  0.15344  0.83757  1.0000
  H   H361      1.0  0.36758  0.31859  0.75275  1.0000
  C   C370      1.0  0.13668  0.47302  0.82191  1.0000
  C   C371      1.0  0.02510  0.08875  0.75549  1.0000
  C   C372      1.0  0.22542  0.44778  0.92628  1.0000
  N   N30       1.0  0.23232  0.06053  0.93211  1.0000
  H   H362      1.0  0.35763  0.19050  0.79564  1.0000
  H   H363      1.0  0.44389  0.01422  0.74193  1.0000
  C   C373      1.0  0.21337  0.03781  0.78775  1.0000
  H   H364      1.0  0.18572  0.20336  0.94781  1.0000
  C   C374      1.0  0.16736  0.99827  0.78690  1.0000
  H   H365      1.0  0.14785  0.32998  0.73866  1.0000
  H   H366      1.0  0.08196  0.30578  0.72688  1.0000
  Fe  Fe61      1.0  0.04473  0.99170  0.79492  1.0000
  Fe  Fe62      1.0  0.04157  0.48583  0.76754  1.0000
  H   H367      1.0  0.26601  0.19486  0.96347  1.0000
  H   H368      1.0  0.14477  0.42121  0.72125  1.0000
  N   N31       1.0  0.44667  0.01241  0.86171  1.0000
  H   H369      1.0  0.03140  0.11322  0.74275  1.0000
  C   C375      1.0  0.03614  0.99444  0.90841  1.0000
  H   H370      1.0  0.19725  0.44670  0.92991  1.0000
  H   H371      1.0  0.23460  0.45931  0.90445  1.0000
  C   C376      1.0  0.01863  0.00613  0.88646  1.0000
  C   C377      1.0  0.46684  0.02633  0.73020  1.0000
  H   H372      1.0  0.98883  0.99286  0.85639  1.0000
  H   H373      1.0  0.23452  0.12164  0.96635  1.0000
  C   C378      1.0  0.06874  0.25630  0.72168  1.0000
  H   H374      1.0  0.47381  0.05564  0.76172  1.0000
  H   H375      1.0  0.45306  0.00241  0.81945  1.0000
  C   C379      1.0  0.26957  0.04451  0.96579  1.0000
  H   H376      1.0  0.41055  0.99676  0.83850  1.0000
  H   H377      1.0  0.18015  0.06537  0.94842  1.0000
  C   C380      1.0  0.20537  0.05961  0.95316  1.0000
  C   C381      1.0  0.48388  0.04982  0.74124  1.0000
  H   H378      1.0  0.32085  0.96170  0.12140  1.0000
  S   S128      1.0  0.17687  0.84322  0.03551  1.0000
  Fe  Fe63      1.0  0.36492  0.73415  0.00735  1.0000
  S   S129      1.0  0.37941  0.75974  0.04128  1.0000
  S   S130      1.0  0.33307  0.68820  0.02009  1.0000
  C   C382      1.0  0.41774  0.52552  0.11594  1.0000
  S   S131      1.0  0.41995  0.81333  0.99218  1.0000
  Fe  Fe64      1.0  0.43117  0.76430  0.01563  1.0000
  H   H379      1.0  0.14775  0.55128  0.02551  1.0000
  Fe  Fe65      1.0  0.36651  0.80538  0.01440  1.0000
  S   S132      1.0  0.33583  0.84362  0.03499  1.0000
  C   C383      1.0  0.46720  0.96549  0.07822  1.0000
  H   H380      1.0  0.31083  0.91452  0.03306  1.0000
  Fe  Fe66      1.0  0.43720  0.58567  0.00818  1.0000
  H   H381      1.0  0.02919  0.84072  0.01553  1.0000
  Fe  Fe67      1.0  0.37676  0.60737  0.04766  1.0000
  S   S133      1.0  0.34042  0.60117  0.01765  1.0000
  S   S134      1.0  0.35806  0.61298  0.09300  1.0000
  Fe  Fe68      1.0  0.36776  0.55483  0.01094  1.0000
  C   C384      1.0  0.32564  0.97851  0.05070  1.0000
  H   H382      1.0  0.01952  0.82833  0.05289  1.0000
  N   N32       1.0  0.06838  0.51836  0.03479  1.0000
  S   S135      1.0  0.40090  0.55860  0.04335  1.0000
  S   S136      1.0  0.41623  0.63520  0.01485  1.0000
  C   C385      1.0  0.27842  0.64344  0.97372  1.0000
  Fe  Fe69      1.0  0.08704  0.62207  0.06202  1.0000
  S   S137      1.0  0.09575  0.66493  0.08366  1.0000
  C   C386      1.0  0.02861  0.95727  0.98964  1.0000
  Fe  Fe70      1.0  0.15238  0.58899  0.07589  1.0000
  S   S138      1.0  0.16604  0.62944  0.09861  1.0000
  S   S139      1.0  0.18935  0.54816  0.06928  1.0000
  Fe  Fe71      1.0  0.11099  0.62690  0.11678  1.0000
  S   S140      1.0  0.09772  0.63169  0.16200  1.0000
  Fe  Fe72      1.0  0.14947  0.66330  0.06328  1.0000
  S   S141      1.0  0.17607  0.71089  0.04399  1.0000
  S   S142      1.0  0.09813  0.58347  0.09697  1.0000
  S   S143      1.0  0.14013  0.62334  0.03866  1.0000
  H   H383      1.0  0.11212  0.72452  0.02657  1.0000
  Fe  Fe73      1.0  0.29802  0.74436  0.17776  1.0000
  S   S144      1.0  0.25545  0.70979  0.17575  1.0000
  S   S145      1.0  0.34463  0.74619  0.14494  1.0000
  Fe  Fe74      1.0  0.22174  0.75130  0.18554  1.0000
  S   S146      1.0  0.17698  0.76326  0.16364  1.0000
  S   S147      1.0  0.26428  0.78772  0.18306  1.0000
  C   C387      1.0  0.20006  0.59501  0.20013  1.0000
  H   H384      1.0  0.43478  0.62768  0.08163  1.0000
  S   S148      1.0  0.04237  0.62038  0.03875  1.0000
  S   S149      1.0  0.03961  0.91553  0.99118  1.0000
  H   H385      1.0  0.31536  0.65789  0.21428  1.0000
  C   C388      1.0  0.15241  0.72750  0.16563  1.0000
  C   C389      1.0  0.15787  0.69919  0.18397  1.0000
  C   C390      1.0  0.13943  0.67009  0.18412  1.0000
  C   C391      1.0  0.11636  0.66911  0.16536  1.0000
  C   C392      1.0  0.11038  0.69762  0.14753  1.0000
  C   C393      1.0  0.12798  0.72693  0.14799  1.0000
  H   H386      1.0  0.08019  0.97579  0.98187  1.0000
  S   S150      1.0  0.41772  0.73510  0.98353  1.0000
  H   H387      1.0  0.09214  0.69708  0.13336  1.0000
  H   H388      1.0  0.12325  0.74889  0.13414  1.0000
  C   C394      1.0  0.20149  0.52656  0.10003  1.0000
  H   H389      1.0  0.26344  0.63165  0.15141  1.0000
  H   H390      1.0  0.15512  0.53509  0.12655  1.0000
  H   H391      1.0  0.21743  0.52862  0.98323  1.0000
  C   C395      1.0  0.28962  0.69502  0.02748  1.0000
  C   C396      1.0  0.27696  0.72685  0.02390  1.0000
  C   C397      1.0  0.24191  0.73167  0.02825  1.0000
  C   C398      1.0  0.21958  0.70465  0.03673  1.0000
  C   C399      1.0  0.23220  0.67284  0.04054  1.0000
  C   C400      1.0  0.26723  0.66807  0.03607  1.0000
  H   H392      1.0  0.29406  0.74778  0.01796  1.0000
  H   H393      1.0  0.23218  0.75633  0.02546  1.0000
  C   C401      1.0  0.44237  0.80211  0.08230  1.0000
  C   C402      1.0  0.01789  0.65620  0.03806  1.0000
  C   C403      1.0  0.35122  0.70869  0.13133  1.0000
  C   C404      1.0  0.37167  0.70790  0.10547  1.0000
  C   C405      1.0  0.37394  0.67891  0.09304  1.0000
  C   C406      1.0  0.35722  0.65007  0.10731  1.0000
  C   C407      1.0  0.33891  0.65039  0.13408  1.0000
  C   C408      1.0  0.33527  0.67967  0.14573  1.0000
  H   H394      1.0  0.38526  0.72987  0.09483  1.0000
  H   H395      1.0  0.38855  0.67889  0.07252  1.0000
  H   H396      1.0  0.32715  0.62799  0.14583  1.0000
  H   H397      1.0  0.32049  0.67966  0.16606  1.0000
  C   C409      1.0  0.41856  0.55939  0.11681  1.0000
  C   C410      1.0  0.35602  0.96295  0.04290  1.0000
  C   C411      1.0  0.48415  0.69143  0.03822  1.0000
  C   C412      1.0  0.99432  0.96580  0.99304  1.0000
  H   H398      1.0  0.48655  0.58189  0.06809  1.0000
  H   H399      1.0  0.02864  0.53756  0.01326  1.0000
  C   C413      1.0  0.99321  0.49374  0.98293  1.0000
  C   C414      1.0  0.46734  0.56615  0.08187  1.0000
  C   C415      1.0  0.23714  0.55520  0.18054  1.0000
  H   H400      1.0  0.46985  0.62365  0.10149  1.0000
  H   H401      1.0  0.26244  0.62834  0.99161  1.0000
  H   H402      1.0  0.34281  0.90685  0.98741  1.0000
  H   H403      1.0  0.15379  0.95480  0.20140  1.0000
  H   H404      1.0  0.45840  0.78116  0.08647  1.0000
  H   H405      1.0  0.30377  0.64629  0.98011  1.0000
  H   H406      1.0  0.42683  0.62136  0.11913  1.0000
  H   H407      1.0  0.05424  0.72796  0.01359  1.0000
  N   N33       1.0  0.26555  0.92915  0.01672  1.0000
  C   C416      1.0  0.23239  0.50939  0.97469  1.0000
  C   C417      1.0  0.05367  0.98210  0.98465  1.0000
  H   H408      1.0  0.01477  0.50824  0.04400  1.0000
  C   C418      1.0  0.10545  0.79206  0.21291  1.0000
  H   H409      1.0  0.17542  0.98194  0.17129  1.0000
  H   H410      1.0  0.44585  0.93134  0.02114  1.0000
  C   C419      1.0  0.22124  0.84333  0.03431  1.0000
  C   C420      1.0  0.23466  0.84799  0.05833  1.0000
  C   C421      1.0  0.26979  0.84769  0.05833  1.0000
  C   C422      1.0  0.29179  0.84140  0.03469  1.0000
  C   C423      1.0  0.27847  0.83615  0.01070  1.0000
  C   C424      1.0  0.24320  0.83757  0.01039  1.0000
  H   H411      1.0  0.21783  0.85236  0.07689  1.0000
  H   H412      1.0  0.27990  0.85217  0.07681  1.0000
  H   H413      1.0  0.29536  0.83184  0.99219  1.0000
  H   H414      1.0  0.23296  0.83352  0.99188  1.0000
  H   H415      1.0  0.25021  0.51373  0.07931  1.0000
  N   N34       1.0  0.25561  0.57984  0.16290  1.0000
  H   H416      1.0  0.39796  0.50992  0.12910  1.0000
  C   C425      1.0  0.06262  0.58088  0.21902  1.0000
  S   S151      1.0  0.40928  0.95476  0.18518  1.0000
  C   C426      1.0  0.00025  0.66585  0.01559  1.0000
  C   C427      1.0  0.47531  0.51091  0.00456  1.0000
  C   C428      1.0  0.45406  0.82826  0.06153  1.0000
  C   C429      1.0  0.21970  0.62008  0.18275  1.0000
  C   C430      1.0  0.20878  0.56231  0.19909  1.0000
  C   C431      1.0  0.24666  0.93405  0.04387  1.0000
  H   H417      1.0  0.27703  0.64345  0.03917  1.0000
  H   H418      1.0  0.05611  0.85439  0.03776  1.0000
  H   H419      1.0  0.35949  0.62057  0.19618  1.0000
  C   C432      1.0  0.13552  0.49942  0.03382  1.0000
  S   S152      1.0  0.33970  0.50721  0.01241  1.0000
  H   H420      1.0  0.21506  0.65188  0.04706  1.0000
  H   H421      1.0  0.36653  0.96430  0.02103  1.0000
  C   C433      1.0  0.31687  0.91519  0.98871  1.0000
  C   C434      1.0  0.28500  0.57163  0.14347  1.0000
  C   C435      1.0  0.29857  0.91954  0.01460  1.0000
  C   C436      1.0  0.23302  0.51120  0.09887  1.0000
  H   H422      1.0  0.22105  0.92217  0.04706  1.0000
  H   H423      1.0  0.19416  0.54264  0.21301  1.0000
  H   H424      1.0  0.39896  0.56977  0.13075  1.0000
  H   H425      1.0  0.29060  0.59095  0.12489  1.0000
  H   H426      1.0  0.30777  0.56875  0.15415  1.0000
  H   H427      1.0  0.28024  0.54842  0.13541  1.0000
  N   N35       1.0  0.06044  0.80345  0.03260  1.0000
  C   C437      1.0  0.09206  0.80150  0.04038  1.0000
  C   C438      1.0  0.04682  0.77740  0.02322  1.0000
  C   C439      1.0  0.11125  0.77325  0.03807  1.0000
  C   C440      1.0  0.06519  0.74865  0.02090  1.0000
  C   C441      1.0  0.09762  0.74667  0.02831  1.0000
  Fe  Fe75      1.0  0.09534  0.90598  0.97990  1.0000
  H   H428      1.0  0.10299  0.82203  0.04795  1.0000
  H   H429      1.0  0.21373  0.64555  0.18424  1.0000
  C   C442      1.0  0.44232  0.51199  0.09772  1.0000
  H   H430      1.0  0.25976  0.92307  0.06143  1.0000
  H   H431      1.0  0.17644  0.69957  0.19788  1.0000
  C   C443      1.0  0.32797  0.57682  0.20875  1.0000
  C   C444      1.0  0.26390  0.50196  0.98281  1.0000
  S   S153      1.0  0.34851  0.77954  0.98195  1.0000
  N   N36       1.0  0.38911  0.82884  0.09151  1.0000
  C   C445      1.0  0.40026  0.85443  0.07101  1.0000
  C   C446      1.0  0.40956  0.80271  0.09705  1.0000
  C   C447      1.0  0.35436  0.82837  0.10645  1.0000
  C   C448      1.0  0.31242  0.97725  0.07898  1.0000
  H   H432      1.0  0.40049  0.78200  0.11277  1.0000
  H   H433      1.0  0.34409  0.85359  0.10579  1.0000
  H   H434      1.0  0.33781  0.81311  0.09676  1.0000
  H   H435      1.0  0.35346  0.81782  0.12878  1.0000
  H   H436      1.0  0.46232  0.69192  0.02746  1.0000
  H   H437      1.0  0.08625  0.59475  0.21685  1.0000
  C   C449      1.0  0.25012  0.93517  0.99341  1.0000
  H   H438      1.0  0.08791  0.56767  0.02598  1.0000
  H   H439      1.0  0.44151  0.87458  0.03930  1.0000
  H   H440      1.0  0.44944  0.51889  0.00830  1.0000
  C   C450      1.0  0.46516  0.94856  0.00970  1.0000
  H   H441      1.0  0.38370  0.87466  0.06608  1.0000
  N   N37       1.0  0.44339  0.57916  0.10007  1.0000
  C   C451      1.0  0.03140  0.63259  0.21733  1.0000
  S   S154      1.0  0.36011  0.55071  0.19646  1.0000
  C   C452      1.0  0.24774  0.61203  0.16428  1.0000
  S   S155      1.0  0.38574  0.93025  0.11696  1.0000
  H   H442      1.0  0.13660  0.77205  0.04372  1.0000
  C   C453      1.0  0.04039  0.83313  0.03493  1.0000
  H   H443      1.0  0.02754  0.66704  0.07793  1.0000
  S   S156      1.0  0.32825  0.93292  0.18980  1.0000
  H   H444      1.0  0.24466  0.52991  0.18068  1.0000
  C   C454      1.0  0.36126  0.94677  0.09169  1.0000
  C   C455      1.0  0.37341  0.94646  0.06340  1.0000
  C   C456      1.0  0.17951  0.52340  0.12544  1.0000
  N   N38       1.0  0.22673  0.74447  0.09559  1.0000
  C   C457      1.0  0.26041  0.75314  0.08921  1.0000
  C   C458      1.0  0.21683  0.71220  0.10369  1.0000
  C   C459      1.0  0.28522  0.72912  0.09028  1.0000
  C   C460      1.0  0.24099  0.68754  0.10481  1.0000
  C   C461      1.0  0.27535  0.69611  0.09772  1.0000
  C   C462      1.0  0.20136  0.76989  0.09191  1.0000
  H   H445      1.0  0.26821  0.77864  0.08242  1.0000
  H   H446      1.0  0.19012  0.70526  0.10832  1.0000
  H   H447      1.0  0.31189  0.73587  0.08442  1.0000
  H   H448      1.0  0.23302  0.66192  0.10996  1.0000
  H   H449      1.0  0.29432  0.67721  0.09707  1.0000
  H   H450      1.0  0.17533  0.76034  0.10045  1.0000
  H   H451      1.0  0.20629  0.79064  0.10310  1.0000
  H   H452      1.0  0.20199  0.77899  0.06932  1.0000
  S   S157      1.0  0.13670  0.92214  0.00173  1.0000
  S   S158      1.0  0.48135  0.75961  0.03202  1.0000
  C   C463      1.0  0.44377  0.61471  0.10065  1.0000
  H   H453      1.0  0.48601  0.52237  0.06564  1.0000
  C   C464      1.0  0.43285  0.85452  0.05575  1.0000
  C   C465      1.0  0.12769  0.53266  0.02913  1.0000
  H   H454      1.0  0.02154  0.77876  0.01751  1.0000
  S   S159      1.0  0.40595  0.57805  0.97512  1.0000
  C   C466      1.0  0.33048  0.96173  0.09952  1.0000
  C   C467      1.0  0.24255  0.49285  0.12299  1.0000
  H   H455      1.0  0.44561  0.95625  0.06951  1.0000
  Fe  Fe76      1.0  0.38160  0.62526  0.98433  1.0000
  C   C468      1.0  0.30982  0.63184  0.21632  1.0000
  C   C469      1.0  0.01539  0.67496  0.05991  1.0000
  Fe  Fe77      1.0  0.37103  0.95261  0.15622  1.0000
  H   H456      1.0  0.22406  0.94322  0.99498  1.0000
  Fe  Fe78      1.0  0.15747  0.87177  0.99846  1.0000
  C   C470      1.0  0.03315  0.52868  0.03494  1.0000
  H   H457      1.0  0.39697  0.93469  0.05726  1.0000
  C   C471      1.0  0.46722  0.53240  0.08043  1.0000
  H   H458      1.0  0.47931  0.82791  0.04961  1.0000
  C   C472      1.0  0.18855  0.50411  0.14929  1.0000
  H   H459      1.0  0.05662  0.64342  0.21847  1.0000
  C   C473      1.0  0.99618  0.70363  0.05899  1.0000
  H   H460      1.0  0.24411  0.96080  0.04485  1.0000
  H   H461      1.0  0.14392  0.64810  0.19801  1.0000
  Fe  Fe79      1.0  0.34398  0.49916  0.19305  1.0000
  S   S160      1.0  0.11338  0.85407  0.98042  1.0000
  C   C474      1.0  0.09381  0.54176  0.02960  1.0000
  H   H462      1.0  0.17107  0.50112  0.16872  1.0000
  H   H463      1.0  0.41563  0.87592  0.21512  1.0000
  H   H464      1.0  0.05191  0.80099  0.21403  1.0000
  C   C475      1.0  0.45668  0.98136  0.00154  1.0000
  C   C476      1.0  0.22009  0.48884  0.14818  1.0000
  H   H465      1.0  0.99450  0.71801  0.07599  1.0000
  H   H466      1.0  0.34480  0.82473  0.19273  1.0000
  H   H467      1.0  0.00189  0.65136  0.99867  1.0000
  H   H468      1.0  0.15843  0.78799  0.21688  1.0000
  H   H469      1.0  0.10645  0.77460  0.19816  1.0000
  H   H470      1.0  0.27356  0.51542  0.99762  1.0000
  H   H471      1.0  0.02769  0.54893  0.04764  1.0000
  H   H472      1.0  0.46591  0.95315  0.10015  1.0000
  C   C477      1.0  0.33482  0.61065  0.20619  1.0000
  H   H473      1.0  0.38633  0.77986  0.18791  1.0000
  H   H474      1.0  0.19635  0.89341  0.21639  1.0000
  H   H475      1.0  0.19649  0.96928  0.20076  1.0000
  H   H476      1.0  0.17874  0.60094  0.21499  1.0000
  H   H477      1.0  0.02417  0.64324  0.19689  1.0000
  C   C478      1.0  0.17147  0.97625  0.19447  1.0000
  H   H478      1.0  0.23174  0.84368  0.21715  1.0000
  C   C479      1.0  0.35368  0.81152  0.21103  1.0000
  Fe  Fe80      1.0  0.31705  0.98630  0.19155  1.0000
  H   H479      1.0  0.16170  0.49207  0.03388  1.0000
  S   S161      1.0  0.32422  0.48969  0.15445  1.0000
  C   C480      1.0  0.37704  0.78645  0.20835  1.0000
  Fe  Fe81      1.0  0.36570  0.93857  0.21904  1.0000
  H   H480      1.0  0.45749  0.83123  0.21862  1.0000
  H   H481      1.0  0.21365  0.65465  0.96950  1.0000
  H   H482      1.0  0.01794  0.58187  0.31614  1.0000
  H   H483      1.0  0.02552  0.65903  0.46281  1.0000
  S   S162      1.0  0.13094  0.92347  0.34038  1.0000
  H   H484      1.0  0.40675  0.75057  0.23034  1.0000
  H   H485      1.0  0.32477  0.55666  0.27095  1.0000
  S   S163      1.0  0.36778  0.90137  0.25795  1.0000
  C   C481      1.0  0.05654  0.77818  0.40208  1.0000
  C   C482      1.0  0.38821  0.76977  0.23215  1.0000
  C   C483      1.0  0.03172  0.57223  0.38184  1.0000
  H   H486      1.0  0.02800  0.51089  0.40684  1.0000
  S   S164      1.0  0.25904  0.80357  0.26245  1.0000
  S   S165      1.0  0.18635  0.96023  0.38780  1.0000
  C   C484      1.0  0.98805  0.50996  0.34424  1.0000
  H   H487      1.0  0.12218  0.85506  0.28443  1.0000
  S   S166      1.0  0.24629  0.64544  0.24214  1.0000
  S   S167      1.0  0.48592  0.70184  0.30787  1.0000
  S   S168      1.0  0.24798  0.66162  0.43549  1.0000
  S   S169      1.0  0.29867  0.73041  0.22384  1.0000
  S   S170      1.0  0.09491  0.97731  0.29781  1.0000
  S   S171      1.0  0.17266  0.64801  0.41866  1.0000
  H   H488      1.0  0.19131  0.88806  0.30526  1.0000
  Fe  Fe82      1.0  0.20791  0.62176  0.44540  1.0000
  H   H489      1.0  0.10000  0.62296  0.40619  1.0000
  Fe  Fe83      1.0  0.21011  0.68990  0.41237  1.0000
  S   S172      1.0  0.22624  0.71872  0.36991  1.0000
  H   H490      1.0  0.30811  0.60997  0.45637  1.0000
  H   H491      1.0  0.25700  0.90433  0.31036  1.0000
  Fe  Fe84      1.0  0.13367  0.51868  0.28271  1.0000
  S   S173      1.0  0.13004  0.51440  0.32925  1.0000
  S   S174      1.0  0.12799  0.56925  0.25928  1.0000
  H   H492      1.0  0.01280  0.61892  0.36465  1.0000
  H   H493      1.0  0.13443  0.66441  0.30072  1.0000
  S   S175      1.0  0.16681  0.92999  0.25913  1.0000
  H   H494      1.0  0.10635  0.88534  0.25924  1.0000
  C   C485      1.0  0.45752  0.81470  0.44982  1.0000
  C   C486      1.0  0.24960  0.94681  0.33122  1.0000
  H   H495      1.0  0.06096  0.85974  0.35129  1.0000
  C   C487      1.0  0.42258  0.66224  0.44894  1.0000
  H   H496      1.0  0.32863  0.64809  0.41717  1.0000
  C   C488      1.0  0.34153  0.81929  0.23760  1.0000
  C   C489      1.0  0.25061  0.98109  0.32805  1.0000
  H   H497      1.0  0.39534  0.60328  0.40074  1.0000
  C   C490      1.0  0.27807  0.61922  0.22963  1.0000
  C   C491      1.0  0.47736  0.86891  0.45415  1.0000
  S   S176      1.0  0.22365  0.49426  0.34287  1.0000
  H   H498      1.0  0.26287  0.94425  0.23919  1.0000
  S   S177      1.0  0.03141  0.72219  0.34250  1.0000
  H   H499      1.0  0.24259  0.93266  0.35185  1.0000
  Fe  Fe85      1.0  0.45773  0.70178  0.35115  1.0000
  S   S178      1.0  0.41503  0.66553  0.36727  1.0000
  Fe  Fe86      1.0  0.05764  0.76141  0.30981  1.0000
  S   S179      1.0  0.11062  0.78153  0.30531  1.0000
  C   C492      1.0  0.19773  0.54021  0.37661  1.0000
  S   S180      1.0  0.04039  0.74191  0.27359  1.0000
  H   H500      1.0  0.26604  0.90602  0.26129  1.0000
  C   C493      1.0  0.40330  0.61960  0.41415  1.0000
  C   C494      1.0  0.41538  0.65139  0.40273  1.0000
  C   C495      1.0  0.42579  0.67245  0.42004  1.0000
  N   N39       1.0  0.32899  0.65732  0.45901  1.0000
  H   H501      1.0  0.43487  0.69712  0.41131  1.0000
  H   H502      1.0  0.05643  0.65166  0.38070  1.0000
  C   C496      1.0  0.09470  0.59198  0.27450  1.0000
  C   C497      1.0  0.06718  0.57609  0.29254  1.0000
  C   C498      1.0  0.03953  0.59435  0.30275  1.0000
  C   C499      1.0  0.03966  0.62864  0.29559  1.0000
  C   C500      1.0  0.06763  0.64467  0.27820  1.0000
  C   C501      1.0  0.09488  0.62629  0.26733  1.0000
  H   H503      1.0  0.06681  0.54962  0.29795  1.0000
  H   H504      1.0  0.08789  0.53441  0.22146  1.0000
  H   H505      1.0  0.06785  0.67110  0.27242  1.0000
  H   H506      1.0  0.11603  0.63867  0.25319  1.0000
  H   H507      1.0  0.22794  0.83901  0.30582  1.0000
  H   H508      1.0  0.03332  0.97524  0.39010  1.0000
  C   C502      1.0  0.13471  0.79961  0.22335  1.0000
  Fe  Fe87      1.0  0.14502  0.95218  0.29770  1.0000
  C   C503      1.0  0.16492  0.62171  0.30885  1.0000
  H   H509      1.0  0.42936  0.67898  0.46246  1.0000
  S   S181      1.0  0.18357  0.49339  0.27537  1.0000
  S   S182      1.0  0.22320  0.56899  0.44742  1.0000
  C   C504      1.0  0.00785  0.97331  0.38546  1.0000
  C   C505      1.0  0.99939  0.84640  0.38017  1.0000
  C   C506      1.0  0.19302  0.73464  0.35247  1.0000
  C   C507      1.0  0.15943  0.72281  0.36048  1.0000
  C   C508      1.0  0.13370  0.73604  0.34558  1.0000
  C   C509      1.0  0.14158  0.76157  0.32318  1.0000
  C   C510      1.0  0.17510  0.77289  0.31515  1.0000
  C   C511      1.0  0.20071  0.75942  0.32960  1.0000
  H   H510      1.0  0.15331  0.70358  0.37811  1.0000
  H   H511      1.0  0.10779  0.72714  0.35187  1.0000
  H   H512      1.0  0.18135  0.79230  0.29767  1.0000
  H   H513      1.0  0.22656  0.76862  0.32318  1.0000
  Fe  Fe88      1.0  0.15146  0.96751  0.35557  1.0000
  H   H514      1.0  0.03805  0.49908  0.32415  1.0000
  H   H515      1.0  0.31342  0.79441  0.29593  1.0000
  C   C512      1.0  0.22196  0.54945  0.41783  1.0000
  C   C513      1.0  0.19846  0.55764  0.39937  1.0000
  C   C514      1.0  0.29600  0.56428  0.22176  1.0000
  C   C515      1.0  0.22115  0.51533  0.37197  1.0000
  C   C516      1.0  0.24471  0.50769  0.39028  1.0000
  C   C517      1.0  0.24470  0.52421  0.41335  1.0000
  Fe  Fe89      1.0  0.99605  0.77534  0.28042  1.0000
  H   H516      1.0  0.99794  0.85721  0.35820  1.0000
  H   H517      1.0  0.29037  0.53829  0.22395  1.0000
  H   H518      1.0  0.26280  0.51767  0.42753  1.0000
  S   S183      1.0  0.45387  0.75666  0.34802  1.0000
  C   C518      1.0  0.03367  0.52847  0.22362  1.0000
  C   C519      1.0  0.02146  0.60620  0.46624  1.0000
  C   C520      1.0  0.08722  0.78874  0.38547  1.0000
  C   C521      1.0  0.00297  0.54478  0.22338  1.0000
  H   H519      1.0  0.00067  0.86681  0.39262  1.0000
  S   S184      1.0  0.01581  0.79761  0.31405  1.0000
  C   C522      1.0  0.20021  0.87859  0.28601  1.0000
  C   C523      1.0  0.23228  0.83791  0.26151  1.0000
  C   C524      1.0  0.22299  0.85323  0.23639  1.0000
  C   C525      1.0  0.20294  0.88144  0.23601  1.0000
  C   C526      1.0  0.19145  0.89421  0.26079  1.0000
  H   H520      1.0  0.39183  0.58441  0.45168  1.0000
  C   C527      1.0  0.08099  0.60888  0.39888  1.0000
  C   C528      1.0  0.40025  0.87197  0.25959  1.0000
  C   C529      1.0  0.41943  0.86338  0.23541  1.0000
  C   C530      1.0  0.44306  0.83795  0.23745  1.0000
  C   C531      1.0  0.44782  0.82093  0.26363  1.0000
  C   C532      1.0  0.42899  0.82983  0.28780  1.0000
  C   C533      1.0  0.40538  0.85527  0.28576  1.0000
  C   C534      1.0  0.13314  0.82195  0.24247  1.0000
  C   C535      1.0  0.35503  0.71936  0.43504  1.0000
  H   H521      1.0  0.43251  0.81708  0.30808  1.0000
  H   H522      1.0  0.39077  0.86183  0.30458  1.0000
  C   C536      1.0  0.27468  0.93217  0.25716  1.0000
  H   H523      1.0  0.35164  0.70298  0.39554  1.0000
  S   S185      1.0  0.18685  0.71353  0.44915  1.0000
  H   H524      1.0  0.07749  0.85842  0.28501  1.0000
  C   C537      1.0  0.05646  0.62498  0.38469  1.0000
  H   H525      1.0  0.06881  0.50993  0.38498  1.0000
  N   N40       1.0  0.05532  0.55668  0.39643  1.0000
  H   H526      1.0  0.36529  0.74350  0.42566  1.0000
  N   N41       1.0  0.35219  0.80244  0.26086  1.0000
  C   C538      1.0  0.19715  0.61058  0.31272  1.0000
  H   H527      1.0  0.46184  0.79131  0.44216  1.0000
  S   S186      1.0  0.00383  0.65048  0.30768  1.0000
  C   C539      1.0  0.22100  0.85085  0.28627  1.0000
  H   H528      1.0  0.10980  0.77424  0.38700  1.0000
  H   H529      1.0  0.24706  0.57535  0.24345  1.0000
  C   C540      1.0  0.48310  0.83894  0.44401  1.0000
  C   C541      1.0  0.26665  0.98252  0.27831  1.0000
  N   N42       1.0  0.02944  0.82601  0.38162  1.0000
  H   H530      1.0  0.26292  0.48864  0.38677  1.0000
  S   S187      1.0  0.03175  0.92582  0.35362  1.0000
  C   C542      1.0  0.10216  0.86003  0.27086  1.0000
  C   C543      1.0  0.25742  0.93099  0.30766  1.0000
  H   H531      1.0  0.09924  0.56216  0.41561  1.0000
  C   C544      1.0  0.18643  0.67765  0.30225  1.0000
  H   H532      1.0  0.17952  0.54629  0.36250  1.0000
  H   H533      1.0  0.33107  0.83576  0.28803  1.0000
  C   C545      1.0  0.06373  0.54661  0.22137  1.0000
  C   C546      1.0  0.33718  0.80927  0.28863  1.0000
  C   C547      1.0  0.41024  0.63055  0.46035  1.0000
  S   S188      1.0  0.21564  0.73654  0.23186  1.0000
  H   H534      1.0  0.06566  0.51221  0.42200  1.0000
  H   H535      1.0  0.27268  0.52552  0.29554  1.0000
  H   H536      1.0  0.99474  0.60616  0.46454  1.0000
  H   H537      1.0  0.38406  0.76483  0.27681  1.0000
  H   H538      1.0  0.23180  0.96437  0.42632  1.0000
  S   S189      1.0  0.09517  0.67415  0.46557  1.0000
  C   C548      1.0  0.05454  0.52068  0.40273  1.0000
  H   H539      1.0  0.35490  0.80341  0.30404  1.0000
  H   H540      1.0  0.03426  0.50187  0.22530  1.0000
  H   H541      1.0  0.37763  0.52692  0.25931  1.0000
  H   H542      1.0  0.18202  0.70382  0.29800  1.0000
  H   H543      1.0  0.05505  0.75533  0.41654  1.0000
  C   C549      1.0  0.33416  0.66562  0.43054  1.0000
  C   C550      1.0  0.07432  0.82912  0.24092  1.0000
  N   N43       1.0  0.21809  0.66647  0.30569  1.0000
  C   C551      1.0  0.08028  0.57448  0.40431  1.0000
  H   H544      1.0  0.18059  0.57693  0.40291  1.0000
  H   H545      1.0  0.24874  0.62467  0.31362  1.0000
  H   H546      1.0  0.00399  0.78898  0.41303  1.0000
  C   C552      1.0  0.15937  0.65546  0.30380  1.0000
  C   C553      1.0  0.24675  0.68964  0.30292  1.0000
  C   C554      1.0  0.00280  0.57910  0.22130  1.0000
  Fe  Fe90      1.0  0.25393  0.69822  0.22204  1.0000
  C   C555      1.0  0.22355  0.63346  0.31123  1.0000
  H   H547      1.0  0.11248  0.82624  0.35371  1.0000
  C   C556      1.0  0.08878  0.81809  0.36694  1.0000
  H   H548      1.0  0.23927  0.71557  0.29758  1.0000
  H   H549      1.0  0.25709  0.68758  0.32295  1.0000
  H   H550      1.0  0.26696  0.68421  0.28604  1.0000
  N   N44       1.0  0.10314  0.83618  0.25119  1.0000
  Fe  Fe91      1.0  0.48545  0.75704  0.30582  1.0000
  H   H551      1.0  0.43499  0.92450  0.46305  1.0000
  C   C557      1.0  0.02775  0.79733  0.39997  1.0000
  Fe  Fe92      1.0  0.26038  0.77044  0.22914  1.0000
  C   C558      1.0  0.37527  0.77798  0.25842  1.0000
  C   C559      1.0  0.42650  0.82074  0.46547  1.0000
  C   C560      1.0  0.35020  0.71048  0.46400  1.0000
  C   C561      1.0  0.07500  0.80691  0.22171  1.0000
  Fe  Fe93      1.0  0.08261  0.95156  0.34183  1.0000
  C   C562      1.0  0.27144  0.58531  0.23282  1.0000
  H   H552      1.0  0.32325  0.83870  0.23959  1.0000
  H   H553      1.0  0.48030  0.97531  0.39029  1.0000
  Fe  Fe94      1.0  0.01050  0.70519  0.30670  1.0000
  C   C563      1.0  0.05952  0.83668  0.36544  1.0000
  C   C564      1.0  0.29631  0.51286  0.29102  1.0000
  C   C565      1.0  0.03184  0.60660  0.37585  1.0000
  C   C566      1.0  0.40134  0.60894  0.44291  1.0000
  N   N45       1.0  0.26543  0.94889  0.28161  1.0000
  H   H554      1.0  0.01231  0.55808  0.37518  1.0000
  C   C567      1.0  0.35546  0.51334  0.27105  1.0000
  H   H555      1.0  0.14442  0.60416  0.30947  1.0000
  H   H556      1.0  0.20187  0.58440  0.31630  1.0000
  H   H557      1.0  0.15577  0.82693  0.25108  1.0000
  S   S190      1.0  0.47672  0.78812  0.26509  1.0000
  C   C568      1.0  0.07354  0.63647  0.46739  1.0000
  Fe  Fe95      1.0  0.15169  0.66927  0.45717  1.0000
  C   C569      1.0  0.32549  0.53028  0.27726  1.0000
  H   H558      1.0  0.05043  0.84027  0.24782  1.0000
  H   H559      1.0  0.30266  0.93275  0.25137  1.0000
  C   C570      1.0  0.34706  0.69679  0.41814  1.0000
  H   H560      1.0  0.01310  0.63993  0.23473  1.0000
  C   C571      1.0  0.03889  0.63612  0.46528  1.0000
  C   C572      1.0  0.00023  0.95068  0.36836  1.0000
  C   C573      1.0  0.01817  0.49211  0.34165  1.0000
  C   C574      1.0  0.48130  0.97720  0.43391  1.0000
  N   N46       1.0  0.03238  0.59666  0.21947  1.0000
  Fe  Fe96      1.0  0.16707  0.82020  0.64890  1.0000
  S   S191      1.0  0.12112  0.83903  0.63101  1.0000
  S   S192      1.0  0.16183  0.79548  0.69351  1.0000
  Fe  Fe97      1.0  0.21531  0.84615  0.59584  1.0000
  S   S193      1.0  0.17319  0.86609  0.57300  1.0000
  S   S194      1.0  0.26922  0.85229  0.57368  1.0000
  Fe  Fe98      1.0  0.15337  0.88391  0.61331  1.0000
  S   S195      1.0  0.13402  0.93470  0.61518  1.0000
  Fe  Fe99      1.0  0.14513  0.81921  0.59257  1.0000
  S   S196      1.0  0.11318  0.78952  0.57058  1.0000
  S   S197      1.0  0.19731  0.86715  0.63494  1.0000
  S   S198      1.0  0.18926  0.79697  0.61167  1.0000
  H   H561      1.0  0.19609  0.93888  0.69361  1.0000
  Fe  Fe100     1.0  0.47221  0.52877  0.53582  1.0000
  Fe  Fe101     1.0  0.42513  0.77356  0.58383  1.0000
  S   S199      1.0  0.37423  0.79578  0.59426  1.0000
  S   S200      1.0  0.44055  0.72441  0.60300  1.0000
  C   C575      1.0  0.28019  0.75295  0.48863  1.0000
  S   S201      1.0  0.40604  0.86147  0.55262  1.0000
  C   C576      1.0  0.11100  0.94790  0.69579  1.0000
  Fe  Fe102     1.0  0.40531  0.84056  0.59799  1.0000
  S   S202      1.0  0.39373  0.86894  0.63503  1.0000
  Fe  Fe103     1.0  0.38034  0.81391  0.54795  1.0000
  S   S203      1.0  0.34384  0.81400  0.51623  1.0000
  H   H562      1.0  0.14656  0.72673  0.55443  1.0000
  S   S204      1.0  0.42918  0.78808  0.53764  1.0000
  C   C577      1.0  0.41987  0.97286  0.63198  1.0000
  S   S205      1.0  0.39120  0.52171  0.50140  1.0000
  C   C578      1.0  0.45285  0.70005  0.65534  1.0000
  C   C579      1.0  0.05046  0.76817  0.63759  1.0000
  S   S206      1.0  0.47023  0.55107  0.49170  1.0000
  Fe  Fe104     1.0  0.41837  0.56688  0.50826  1.0000
  C   C580      1.0  0.31831  0.75034  0.53274  1.0000
  S   S207      1.0  0.42266  0.54869  0.55296  1.0000
  C   C581      1.0  0.23672  0.93434  0.53852  1.0000
  S   S208      1.0  0.45541  0.81650  0.59050  1.0000
  H   H563      1.0  0.43694  0.68233  0.56375  1.0000
  C   C582      1.0  0.14246  0.94509  0.70523  1.0000
  C   C583      1.0  0.19859  0.81375  0.51478  1.0000
  S   S209      1.0  0.43582  0.97969  0.52223  1.0000
  H   H564      1.0  0.04384  0.96781  0.53918  1.0000
  H   H565      1.0  0.14591  0.57737  0.68330  1.0000
  H   H566      1.0  0.00732  0.69835  0.63311  1.0000
  H   H567      1.0  0.19064  0.51039  0.48898  1.0000
  C   C584      1.0  0.26554  0.94974  0.52206  1.0000
  H   H568      1.0  0.29122  0.62800  0.48678  1.0000
  H   H569      1.0  0.33267  0.74922  0.54994  1.0000
  C   C585      1.0  0.22087  0.94829  0.56144  1.0000
  C   C586      1.0  0.99335  0.75871  0.70630  1.0000
  C   C587      1.0  0.07922  0.71511  0.71189  1.0000
  C   C588      1.0  0.43968  0.72588  0.63860  1.0000
  C   C589      1.0  0.42660  0.75326  0.65024  1.0000
  C   C590      1.0  0.42678  0.75483  0.67861  1.0000
  H   H570      1.0  0.17818  0.62368  0.69576  1.0000
  H   H571      1.0  0.43648  0.63235  0.54108  1.0000
  H   H572      1.0  0.41613  0.77321  0.63753  1.0000
  H   H573      1.0  0.41679  0.77606  0.68754  1.0000
  H   H574      1.0  0.19002  0.98385  0.59752  1.0000
  C   C591      1.0  0.43953  0.91921  0.68556  1.0000
  C   C592      1.0  0.41532  0.90265  0.67406  1.0000
  C   C593      1.0  0.42533  0.88469  0.65194  1.0000
  H   H575      1.0  0.22320  0.73489  0.55965  1.0000
  H   H576      1.0  0.33330  0.67236  0.49824  1.0000
  H   H577      1.0  0.05962  0.50738  0.52110  1.0000
  H   H578      1.0  0.38860  0.90517  0.68140  1.0000
  Fe  Fe105     1.0  0.22168  0.68156  0.47318  1.0000
  N   N47       1.0  0.47511  0.96817  0.60558  1.0000
  C   C594      1.0  0.29218  0.88870  0.57471  1.0000
  C   C595      1.0  0.28178  0.90902  0.59483  1.0000
  C   C596      1.0  0.29970  0.93845  0.59470  1.0000
  C   C597      1.0  0.32776  0.94814  0.57417  1.0000
  C   C598      1.0  0.33859  0.92764  0.55425  1.0000
  C   C599      1.0  0.32095  0.89784  0.55469  1.0000
  H   H579      1.0  0.26000  0.90209  0.61056  1.0000
  C   C600      1.0  0.22734  0.81402  0.52785  1.0000
  H   H580      1.0  0.36027  0.93484  0.53839  1.0000
  H   H581      1.0  0.32924  0.88206  0.53919  1.0000
  C   C601      1.0  0.07388  0.80806  0.56742  1.0000
  C   C602      1.0  0.06967  0.84129  0.57002  1.0000
  C   C603      1.0  0.03803  0.85572  0.56825  1.0000
  C   C604      1.0  0.01001  0.83669  0.56533  1.0000
  C   C605      1.0  0.01412  0.80335  0.56300  1.0000
  C   C606      1.0  0.04625  0.78930  0.56326  1.0000
  H   H582      1.0  0.09093  0.85606  0.57292  1.0000
  C   C607      1.0  0.14960  0.50177  0.60722  1.0000
  C   C608      1.0  0.04104  0.74073  0.62656  1.0000
  H   H583      1.0  0.04950  0.76378  0.56056  1.0000
  C   C609      1.0  0.28223  0.81671  0.65210  1.0000
  H   H584      1.0  0.27860  0.93869  0.50469  1.0000
  H   H585      1.0  0.07955  0.95972  0.57698  1.0000
  C   C610      1.0  0.13058  0.76406  0.70039  1.0000
  C   C611      1.0  0.12026  0.74994  0.67857  1.0000
  C   C612      1.0  0.09505  0.72503  0.68440  1.0000
  H   H586      1.0  0.46280  0.68150  0.69656  1.0000
  H   H587      1.0  0.43121  0.93462  0.70132  1.0000
  H   H588      1.0  0.13191  0.75799  0.65722  1.0000
  H   H589      1.0  0.08738  0.71387  0.66755  1.0000
  C   C613      1.0  0.01531  0.71950  0.64162  1.0000
  C   C614      1.0  0.45496  0.97875  0.62758  1.0000
  C   C615      1.0  0.17174  0.94124  0.68640  1.0000
  C   C616      1.0  0.13775  0.94178  0.64906  1.0000
  H   H590      1.0  0.46272  0.67873  0.64645  1.0000
  C   C617      1.0  0.17916  0.78473  0.51806  1.0000
  C   C618      1.0  0.45700  0.65039  0.53447  1.0000
  C   C619      1.0  0.10869  0.94664  0.66769  1.0000
  C   C620      1.0  0.13945  0.49104  0.65795  1.0000
  C   C621      1.0  0.13391  0.59272  0.69811  1.0000
  N   N48       1.0  0.18845  0.75667  0.53354  1.0000
  H   H591      1.0  0.42057  0.90439  0.49798  1.0000
  H   H592      1.0  0.19187  0.93554  0.64404  1.0000
  C   C622      1.0  0.27825  0.97872  0.52871  1.0000
  Fe  Fe106     1.0  0.44394  0.50392  0.48884  1.0000
  C   C623      1.0  0.21600  0.75702  0.54713  1.0000
  S   S210      1.0  0.13504  0.50457  0.69049  1.0000
  N   N49       1.0  0.00048  0.94302  0.56454  1.0000
  C   C624      1.0  0.05348  0.95056  0.58087  1.0000
  C   C625      1.0  0.27811  0.72474  0.50864  1.0000
  H   H593      1.0  0.07043  0.78479  0.62602  1.0000
  H   H594      1.0  0.98813  0.96809  0.52610  1.0000
  H   H595      1.0  0.03530  0.88156  0.56939  1.0000
  H   H596      1.0  0.08415  0.94811  0.66078  1.0000
  Fe  Fe107     1.0  0.39958  0.50164  0.54507  1.0000
  C   C626      1.0  0.16763  0.72658  0.53678  1.0000
  H   H597      1.0  0.05587  0.92960  0.62350  1.0000
  H   H598      1.0  0.48188  0.88058  0.56819  1.0000
  C   C627      1.0  0.16933  0.93936  0.65835  1.0000
  N   N50       1.0  0.22697  0.50734  0.51658  1.0000
  H   H599      1.0  0.30738  0.53786  0.50759  1.0000
  S   S211      1.0  0.25089  0.69089  0.50804  1.0000
  N   N51       1.0  0.23341  0.97683  0.56772  1.0000
  C   C628      1.0  0.40560  0.95536  0.61407  1.0000
  H   H600      1.0  0.17291  0.50368  0.52580  1.0000
  C   C629      1.0  0.00680  0.92145  0.61181  1.0000
  H   H601      1.0  0.15637  0.78482  0.50841  1.0000
  H   H602      1.0  0.35024  0.85012  0.69949  1.0000
  C   C630      1.0  0.03436  0.77372  0.66386  1.0000
  H   H603      1.0  0.08644  0.56623  0.70499  1.0000
  C   C631      1.0  0.23585  0.78567  0.54447  1.0000
  C   C632      1.0  0.04015  0.93364  0.60707  1.0000
  H   H604      1.0  0.24305  0.83612  0.52530  1.0000
  H   H605      1.0  0.37863  0.94941  0.61779  1.0000
  S   S212      1.0  0.18377  0.63932  0.48483  1.0000
  C   C633      1.0  0.10018  0.58642  0.71056  1.0000
  H   H606      1.0  0.25804  0.78591  0.55489  1.0000
  C   C634      1.0  0.29740  0.72352  0.53057  1.0000
  C   C635      1.0  0.99987  0.72568  0.66790  1.0000
  H   H607      1.0  0.99295  0.90488  0.68350  1.0000
  C   C636      1.0  0.42628  0.94472  0.59166  1.0000
  C   C637      1.0  0.45733  0.67848  0.54727  1.0000
  C   C638      1.0  0.14783  0.51307  0.63316  1.0000
  Fe  Fe108     1.0  0.45415  0.83388  0.54520  1.0000
  H   H608      1.0  0.18303  0.70429  0.54075  1.0000
  H   H609      1.0  0.15674  0.72469  0.51743  1.0000
  C   C639      1.0  0.31976  0.77888  0.51317  1.0000
  C   C640      1.0  0.29148  0.48878  0.52693  1.0000
  H   H610      1.0  0.29594  0.70181  0.54618  1.0000
  C   C641      1.0  0.31299  0.82235  0.66126  1.0000
  H   H611      1.0  0.04216  0.79488  0.67246  1.0000
  C   C642      1.0  0.19329  0.51661  0.50994  1.0000
  H   H612      1.0  0.30175  0.80198  0.47578  1.0000
  H   H613      1.0  0.19126  0.83588  0.50234  1.0000
  C   C643      1.0  0.33710  0.67915  0.47569  1.0000
  C   C644      1.0  0.48421  0.89798  0.65446  1.0000
  H   H614      1.0  0.08143  0.49064  0.56598  1.0000
  H   H615      1.0  0.39747  0.85555  0.48733  1.0000
  S   S213      1.0  0.40359  0.61907  0.49662  1.0000
  C   C645      1.0  0.45998  0.88164  0.64275  1.0000
  N   N52       1.0  0.31577  0.81635  0.68909  1.0000
  H   H616      1.0  0.99276  0.78861  0.56023  1.0000
  C   C646      1.0  0.31474  0.62493  0.47207  1.0000
  C   C647      1.0  0.03318  0.95501  0.55966  1.0000
  C   C648      1.0  0.45325  0.70176  0.68367  1.0000
  H   H617      1.0  0.18949  0.54349  0.50945  1.0000
  C   C649      1.0  0.30084  0.77995  0.49098  1.0000
  C   C650      1.0  0.07314  0.57681  0.47209  1.0000
  S   S214      1.0  0.01745  0.53883  0.47040  1.0000
  C   C651      1.0  0.25414  0.80505  0.67164  1.0000
  C   C652      1.0  0.46116  0.95175  0.58747  1.0000
  H   H618      1.0  0.33460  0.83149  0.64588  1.0000
  H   H619      1.0  0.99635  0.90777  0.63191  1.0000
  C   C653      1.0  0.44028  0.72916  0.69530  1.0000
  H   H620      1.0  0.29143  0.95405  0.61032  1.0000
  H   H621      1.0  0.23016  0.80047  0.66483  1.0000
  H   H622      1.0  0.15257  0.53878  0.63400  1.0000
  H   H623      1.0  0.36984  0.81677  0.68325  1.0000
  H   H624      1.0  0.15620  0.51864  0.58801  1.0000
  H   H625      1.0  0.41523  0.93078  0.57791  1.0000
  H   H626      1.0  0.19885  0.93587  0.57451  1.0000
  H   H627      1.0  0.46811  0.86762  0.62600  1.0000
  H   H628      1.0  0.08818  0.95028  0.71016  1.0000
  H   H629      1.0  0.28029  0.82146  0.62996  1.0000
  H   H630      1.0  0.11746  0.60686  0.47220  1.0000
  H   H631      1.0  0.33350  0.61126  0.48374  1.0000
  C   C654      1.0  0.15198  0.61857  0.70514  1.0000
  N   N53       1.0  0.00975  0.75230  0.67881  1.0000
  C   C655      1.0  0.47413  0.91748  0.67538  1.0000
  C   C656      1.0  0.34802  0.82345  0.69825  1.0000
  C   C657      1.0  0.28625  0.52042  0.51381  1.0000
  H   H632      1.0  0.22734  0.91124  0.53404  1.0000
  C   C658      1.0  0.48318  0.64575  0.51305  1.0000
  H   H633      1.0  0.24985  0.55381  0.49812  1.0000
  H   H634      1.0  0.47697  0.94382  0.56975  1.0000
  H   H635      1.0  0.05379  0.73590  0.60642  1.0000
  C   C659      1.0  0.25366  0.52929  0.50863  1.0000
  H   H636      1.0  0.26540  0.75425  0.47171  1.0000
  C   C660      1.0  0.04662  0.48821  0.53671  1.0000
  C   C661      1.0  0.44153  0.90595  0.48012  1.0000
  C   C662      1.0  0.28819  0.80532  0.70843  1.0000
  C   C663      1.0  0.25699  0.79940  0.70001  1.0000
  C   C664      1.0  0.42165  0.85096  0.47526  1.0000
  H   H637      1.0  0.46467  0.91422  0.48755  1.0000
  H   H638      1.0  0.22982  0.97940  0.61093  1.0000
  H   H639      1.0  0.40632  0.80216  0.47029  1.0000
  H   H640      1.0  0.08649  0.55392  0.47472  1.0000
  C   C665      1.0  0.09071  0.60676  0.47059  1.0000
  H   H641      1.0  0.40397  0.98065  0.64974  1.0000
  H   H642      1.0  0.48449  0.72323  0.54894  1.0000
  C   C666      1.0  0.48396  0.70144  0.53884  1.0000
  H   H643      1.0  0.23511  0.79055  0.71537  1.0000
  N   N54       1.0  0.44711  0.87431  0.46996  1.0000
  H   H644      1.0  0.35631  0.72774  0.47741  1.0000
  H   H645      1.0  0.01269  0.76558  0.71870  1.0000
  H   H646      1.0  0.48240  0.62397  0.50299  1.0000
  S   S215      1.0  0.04575  0.68599  0.71865  1.0000
  S   S216      1.0  0.34702  0.98698  0.57329  1.0000
  H   H647      1.0  0.35021  0.80935  0.71908  1.0000
  C   C667      1.0  0.03855  0.57651  0.46975  1.0000
  Fe  Fe109     1.0  0.24394  0.65437  0.84849  1.0000
  S   S217      1.0  0.23474  0.66861  0.80418  1.0000
  S   S218      1.0  0.28769  0.62282  0.85956  1.0000
  Fe  Fe110     1.0  0.17712  0.68095  0.87225  1.0000
  S   S219      1.0  0.16137  0.69561  0.83010  1.0000
  S   S220      1.0  0.14777  0.69386  0.91212  1.0000
  Fe  Fe111     1.0  0.18214  0.64741  0.81977  1.0000
  S   S221      1.0  0.16498  0.61593  0.78967  1.0000
  Fe  Fe112     1.0  0.21479  0.71571  0.81797  1.0000
  S   S222      1.0  0.21729  0.76753  0.79431  1.0000
  S   S223      1.0  0.19257  0.63046  0.86342  1.0000
  S   S224      1.0  0.22935  0.70351  0.86082  1.0000
  Fe  Fe113     1.0  0.35276  0.94378  0.83312  1.0000
  S   S225      1.0  0.38514  0.93913  0.79222  1.0000
  S   S226      1.0  0.37029  0.94157  0.87496  1.0000
  Fe  Fe114     1.0  0.28786  0.94855  0.80800  1.0000
  S   S227      1.0  0.31388  0.94426  0.76489  1.0000
  S   S228      1.0  0.23172  0.95232  0.81914  1.0000
  Fe  Fe115     1.0  0.34350  0.90476  0.78659  1.0000
  S   S229      1.0  0.35226  0.85416  0.77465  1.0000
  H   H648      1.0  0.04263  0.57184  0.74396  1.0000
  H   H649      1.0  0.10832  0.80900  0.84404  1.0000
  S   S230      1.0  0.31410  0.90632  0.82895  1.0000
  C   C668      1.0  0.00288  0.95022  0.88344  1.0000
  H   H650      1.0  0.21014  0.83738  0.82935  1.0000
  S   S231      1.0  0.15143  0.84919  0.90000  1.0000
  H   H651      1.0  0.24750  0.53217  0.73984  1.0000
  S   S232      1.0  0.34263  0.54146  0.76964  1.0000
  C   C669      1.0  0.05335  0.70128  0.92040  1.0000
  H   H652      1.0  0.21824  0.56587  0.73589  1.0000
  C   C670      1.0  0.24927  0.96612  0.86825  1.0000
  H   H653      1.0  0.43549  0.62033  0.76555  1.0000
  H   H654      1.0  0.22231  0.75943  0.94801  1.0000
  S   S233      1.0  0.12235  0.92320  0.93674  1.0000
  H   H655      1.0  0.30319  0.68659  0.87395  1.0000
  C   C671      1.0  0.21515  0.86131  0.83614  1.0000
  H   H656      1.0  0.05115  0.95155  0.93386  1.0000
  S   S234      1.0  0.05211  0.90904  0.76406  1.0000
  H   H657      1.0  0.33788  0.70245  0.90822  1.0000
  H   H658      1.0  0.12890  0.73792  0.95292  1.0000
  S   S235      1.0  0.47553  0.68447  0.79332  1.0000
  H   H659      1.0  0.48213  0.77841  0.95485  1.0000
  Fe  Fe116     1.0  0.09166  0.94841  0.76229  1.0000
  H   H660      1.0  0.38177  0.60121  0.75284  1.0000
  Fe  Fe117     1.0  0.03739  0.91771  0.80848  1.0000
  S   S236      1.0  0.02568  0.88168  0.84783  1.0000
  H   H661      1.0  0.99007  0.93311  0.87335  1.0000
  H   H662      1.0  0.35609  0.60060  0.93498  1.0000
  H   H663      1.0  0.10040  0.52894  0.76198  1.0000
  H   H664      1.0  0.40108  0.82846  0.81292  1.0000
  Fe  Fe118     1.0  0.01836  0.95152  0.75402  1.0000
  C   C672      1.0  0.48281  0.89047  0.91663  1.0000
  H   H665      1.0  0.14970  0.56611  0.75870  1.0000
  H   H666      1.0  0.39675  0.78972  0.80093  1.0000
  S   S237      1.0  0.04823  0.73011  0.84562  1.0000
  S   S238      1.0  0.41652  0.79766  0.91544  1.0000
  H   H667      1.0  0.01280  0.72530  0.94357  1.0000
  H   H668      1.0  0.28551  0.59141  0.80636  1.0000
  C   C673      1.0  0.03267  0.83993  0.84593  1.0000
  C   C674      1.0  0.03247  0.82686  0.82107  1.0000
  C   C675      1.0  0.03611  0.79284  0.82090  1.0000
  C   C676      1.0  0.04113  0.77223  0.84535  1.0000
  C   C677      1.0  0.04208  0.78557  0.86992  1.0000
  H   H669      1.0  0.07796  0.72115  0.75506  1.0000
  H   H670      1.0  0.15646  0.97948  0.90055  1.0000
  H   H671      1.0  0.03262  0.61347  0.73011  1.0000
  H   H672      1.0  0.00018  0.88983  0.90925  1.0000
  H   H673      1.0  0.46151  0.89159  0.73475  1.0000
  C   C678      1.0  0.14362  0.82411  0.77649  1.0000
  C   C679      1.0  0.34916  0.65255  0.92399  1.0000
  C   C680      1.0  0.26274  0.57787  0.80474  1.0000
  C   C681      1.0  0.10079  0.54525  0.77736  1.0000
  S   S239      1.0  0.37238  0.66448  0.94883  1.0000
  H   H674      1.0  0.39407  0.63770  0.81505  1.0000
  H   H675      1.0  0.09064  0.64538  0.75182  1.0000
  C   C682      1.0  0.26865  0.73416  0.95439  1.0000
  C   C683      1.0  0.43068  0.54285  0.80176  1.0000
  C   C684      1.0  0.44338  0.57479  0.79149  1.0000
  C   C685      1.0  0.42593  0.59561  0.77353  1.0000
  Fe  Fe119     1.0  0.16526  0.93523  0.95850  1.0000
  C   C686      1.0  0.25788  0.56872  0.77915  1.0000
  H   H676      1.0  0.44421  0.52667  0.81562  1.0000
  H   H677      1.0  0.10090  0.76541  0.79700  1.0000
  H   H678      1.0  0.13923  0.90138  0.79370  1.0000
  C   C687      1.0  0.38327  0.90166  0.88613  1.0000
  C   C688      1.0  0.38512  0.89163  0.91446  1.0000
  C   C689      1.0  0.39468  0.85950  0.92366  1.0000
  C   C690      1.0  0.40349  0.83765  0.90443  1.0000
  C   C691      1.0  0.40207  0.84788  0.87609  1.0000
  C   C692      1.0  0.39155  0.87968  0.86697  1.0000
  H   H679      1.0  0.37894  0.90860  0.92933  1.0000
  C   C693      1.0  0.98857  0.50796  0.87245  1.0000
  H   H680      1.0  0.40923  0.83121  0.86116  1.0000
  H   H681      1.0  0.39064  0.88733  0.84500  1.0000
  C   C694      1.0  0.22304  0.96371  0.85253  1.0000
  Fe  Fe120     1.0  0.01871  0.68368  0.76248  1.0000
  H   H682      1.0  0.42772  0.62834  0.83491  1.0000
  C   C695      1.0  0.30126  0.92100  0.96485  1.0000
  H   H683      1.0  0.19545  0.49700  0.94995  1.0000
  C   C696      1.0  0.18963  0.96910  0.86403  1.0000
  C   C697      1.0  0.12491  0.77107  0.80441  1.0000
  C   C698      1.0  0.21413  0.70708  0.95848  1.0000
  H   H684      1.0  0.47290  0.81743  0.86269  1.0000
  N   N55       1.0  0.08506  0.60499  0.72985  1.0000
  C   C699      1.0  0.12973  0.58848  0.79476  1.0000
  C   C700      1.0  0.10227  0.58898  0.81619  1.0000
  C   C701      1.0  0.07388  0.56784  0.81790  1.0000
  C   C702      1.0  0.07309  0.54589  0.79844  1.0000
  H   H685      1.0  0.34749  0.50667  0.87071  1.0000
  C   C703      1.0  0.12881  0.56646  0.77551  1.0000
  H   H686      1.0  0.10259  0.60609  0.83096  1.0000
  H   H687      1.0  0.05231  0.56883  0.83404  1.0000
  H   H688      1.0  0.14625  0.75981  0.79197  1.0000
  S   S240      1.0  0.14491  0.94555  0.74068  1.0000
  C   C704      1.0  0.14811  0.73699  0.90941  1.0000
  C   C705      1.0  0.13765  0.75253  0.93287  1.0000
  C   C706      1.0  0.13887  0.78708  0.93044  1.0000
  C   C707      1.0  0.15001  0.80601  0.90444  1.0000
  C   C708      1.0  0.16018  0.79035  0.88114  1.0000
  C   C709      1.0  0.15939  0.75605  0.88362  1.0000
  C   C710      1.0  0.04570  0.63783  0.87401  1.0000
  C   C711      1.0  0.11948  0.82270  0.82411  1.0000
  H   H689      1.0  0.16886  0.80468  0.86106  1.0000
  H   H690      1.0  0.16748  0.74448  0.86540  1.0000
  C   C712      1.0  0.25515  0.79091  0.78909  1.0000
  C   C713      1.0  0.25414  0.82495  0.78065  1.0000
  C   C714      1.0  0.28373  0.84455  0.77692  1.0000
  C   C715      1.0  0.31481  0.82999  0.78036  1.0000
  C   C716      1.0  0.31601  0.79580  0.78796  1.0000
  C   C717      1.0  0.28613  0.77634  0.79285  1.0000
  H   H691      1.0  0.23031  0.83625  0.77720  1.0000
  H   H692      1.0  0.28265  0.87085  0.77072  1.0000
  H   H693      1.0  0.33999  0.78431  0.79031  1.0000
  H   H694      1.0  0.28715  0.75001  0.79903  1.0000
  C   C718      1.0  0.31045  0.63467  0.88474  1.0000
  C   C719      1.0  0.31459  0.66781  0.88728  1.0000
  C   C720      1.0  0.33436  0.67674  0.90657  1.0000
  Fe  Fe121     1.0  0.14423  0.87286  0.93901  1.0000
  H   H695      1.0  0.30992  0.70237  0.96261  1.0000
  S   S241      1.0  0.08059  0.95272  0.80772  1.0000
  H   H696      1.0  0.21312  0.97657  0.74915  1.0000
  S   S242      1.0  0.18981  0.88638  0.95703  1.0000
  C   C721      1.0  0.28632  0.85440  0.89299  1.0000
  Fe  Fe122     1.0  0.01898  0.70592  0.81828  1.0000
  C   C722      1.0  0.11562  0.75320  0.72797  1.0000
  H   H697      1.0  0.48629  0.79192  0.72398  1.0000
  H   H698      1.0  0.42028  0.69607  0.89701  1.0000
  H   H699      1.0  0.21591  0.89563  0.87823  1.0000
  H   H700      1.0  0.04636  0.76986  0.88875  1.0000
  H   H701      1.0  0.03593  0.78276  0.80172  1.0000
  H   H702      1.0  0.16923  0.96705  0.85205  1.0000
  H   H703      1.0  0.00179  0.50939  0.96336  1.0000
  C   C723      1.0  0.34301  0.55322  0.84496  1.0000
  H   H704      1.0  0.26251  0.97507  0.90758  1.0000
  H   H705      1.0  0.48696  0.86900  0.87862  1.0000
  H   H706      1.0  0.42427  0.97630  0.89526  1.0000
  C   C724      1.0  0.18241  0.97601  0.89149  1.0000
  C   C725      1.0  0.01939  0.70719  0.92970  1.0000
  C   C726      1.0  0.20859  0.97784  0.90733  1.0000
  H   H707      1.0  0.19034  0.87073  0.84496  1.0000
  C   C727      1.0  0.14716  0.85839  0.77324  1.0000
  S   S243      1.0  0.19884  0.97965  0.94309  1.0000
  C   C728      1.0  0.03723  0.81920  0.87033  1.0000
  H   H708      1.0  0.22633  0.87904  0.81767  1.0000
  H   H709      1.0  0.11410  0.86935  0.83948  1.0000
  S   S244      1.0  0.32379  0.98671  0.81573  1.0000
  C   C729      1.0  0.00289  0.66698  0.90254  1.0000
  H   H710      1.0  0.12375  0.76384  0.74484  1.0000
  C   C730      1.0  0.22424  0.54341  0.74968  1.0000
  H   H711      1.0  0.20311  0.52514  0.75163  1.0000
  C   C731      1.0  0.99393  0.68994  0.92077  1.0000
  N   N56       1.0  0.22909  0.55187  0.77693  1.0000
  C   C732      1.0  0.48481  0.88473  0.94515  1.0000
  N   N57       1.0  0.26321  0.67546  0.96683  1.0000
  H   H712      1.0  0.29022  0.80092  0.73050  1.0000
  H   H713      1.0  0.18121  0.53165  0.79778  1.0000
  C   C733      1.0  0.04959  0.59827  0.74258  1.0000
  Fe  Fe123     1.0  0.35262  0.97919  0.77432  1.0000
  C   C734      1.0  0.39546  0.58477  0.76639  1.0000
  S   S245      1.0  0.04405  0.50497  0.72210  1.0000
  C   C735      1.0  0.26399  0.83535  0.85477  1.0000
  N   N58       1.0  0.03629  0.66170  0.89325  1.0000
  H   H714      1.0  0.12348  0.75919  0.82649  1.0000
  S   S246      1.0  0.47996  0.58883  0.80261  1.0000
  C   C736      1.0  0.20445  0.54416  0.79964  1.0000
  C   C737      1.0  0.12274  0.85690  0.82165  1.0000
  C   C738      1.0  0.34482  0.61939  0.92159  1.0000
  S   S247      1.0  0.00009  0.95712  0.79888  1.0000
  H   H715      1.0  0.30556  0.85372  0.90658  1.0000
  C   C739      1.0  0.13671  0.87480  0.79602  1.0000
  H   H716      1.0  0.32272  0.58484  0.89984  1.0000
  S   S248      1.0  0.27634  0.49043  0.82412  1.0000
  H   H717      1.0  0.42186  0.71978  0.92490  1.0000
  C   C740      1.0  0.20856  0.55271  0.82557  1.0000
  H   H718      1.0  0.25823  0.89340  0.91044  1.0000
  H   H719      1.0  0.43190  0.79725  0.81886  1.0000
  H   H720      1.0  0.26610  0.81946  0.83877  1.0000
  H   H721      1.0  0.28148  0.63026  0.95529  1.0000
  H   H722      1.0  0.25508  0.93549  0.94893  1.0000
  C   C741      1.0  0.06136  0.67828  0.90210  1.0000
  H   H723      1.0  0.14998  0.65768  0.73039  1.0000
  H   H724      1.0  0.32051  0.54589  0.83724  1.0000
  S   S249      1.0  0.03693  0.52047  0.79979  1.0000
  H   H725      1.0  0.08778  0.67443  0.89439  1.0000
  H   H726      1.0  0.02883  0.84279  0.80216  1.0000
  C   C742      1.0  0.28827  0.83340  0.87282  1.0000
  H   H727      1.0  0.39034  0.50752  0.80289  1.0000
  C   C743      1.0  0.46428  0.67417  0.94001  1.0000
  H   H728      1.0  0.24143  0.57644  0.84805  1.0000
  C   C744      1.0  0.23614  0.87798  0.87670  1.0000
  N   N59       1.0  0.38599  0.59413  0.84504  1.0000
  C   C745      1.0  0.40097  0.57293  0.86358  1.0000
  C   C746      1.0  0.35730  0.58471  0.83583  1.0000
  C   C747      1.0  0.38741  0.54118  0.87310  1.0000
  H   H729      1.0  0.44274  0.96725  0.84564  1.0000
  H   H730      1.0  0.48078  0.90450  0.95767  1.0000
  C   C748      1.0  0.39964  0.62774  0.83624  1.0000
  H   H731      1.0  0.42376  0.58043  0.87084  1.0000
  H   H732      1.0  0.34531  0.60157  0.82124  1.0000
  H   H733      1.0  0.18870  0.54676  0.84334  1.0000
  H   H734      1.0  0.38819  0.64390  0.85132  1.0000
  H   H735      1.0  0.30896  0.81634  0.87064  1.0000
  N   N60       1.0  0.23844  0.85754  0.85682  1.0000
  N   N61       1.0  0.13005  0.80674  0.80176  1.0000
  Fe  Fe124     1.0  0.48240  0.70249  0.74743  1.0000
  H   H736      1.0  0.03743  0.82920  0.88959  1.0000
  H   H737      1.0  0.05672  0.61582  0.88505  1.0000
  S   S250      1.0  0.03898  0.66086  0.80101  1.0000
  C   C749      1.0  0.40025  0.53195  0.79452  1.0000
  H   H738      1.0  0.06479  0.64913  0.85622  1.0000
  C   C750      1.0  0.22928  0.67690  0.96528  1.0000
  C   C751      1.0  0.23797  0.56958  0.82809  1.0000
  H   H739      1.0  0.39566  0.85183  0.94556  1.0000
  C   C752      1.0  0.25997  0.87672  0.89509  1.0000
  H   H740      1.0  0.15175  0.81151  0.75866  1.0000
  C   C753      1.0  0.35823  0.53129  0.86367  1.0000
  C   C754      1.0  0.32585  0.61052  0.90174  1.0000
  H   H741      1.0  0.04575  0.89404  0.90384  1.0000
  C   C755      1.0  0.43709  0.71142  0.90634  1.0000
  C   C756      1.0  0.38236  0.55307  0.77708  1.0000
  C   C757      1.0  0.47325  0.80959  0.73605  1.0000
  H   H742      1.0  0.02357  0.62976  0.86508  1.0000
  N   N62       1.0  0.43612  0.82068  0.77692  1.0000
  C   C758      1.0  0.43881  0.85367  0.76732  1.0000
  C   C759      1.0  0.45326  0.79875  0.76181  1.0000
  H   H743      1.0  0.39955  0.52436  0.88761  1.0000
  C   C760      1.0  0.08969  0.72904  0.73372  1.0000
  H   H744      1.0  0.42561  0.87113  0.77950  1.0000
  C   C761      1.0  0.41544  0.80841  0.80380  1.0000
  C   C762      1.0  0.45902  0.86541  0.74192  1.0000
  H   H745      1.0  0.27495  0.96098  0.85992  1.0000
  C   C763      1.0  0.02188  0.90356  0.91438  1.0000
  C   C764      1.0  0.03690  0.96055  0.91724  1.0000
  H   H746      1.0  0.01030  0.51789  0.85746  1.0000
  S   S251      1.0  0.44087  0.73188  0.73056  1.0000
  S   S252      1.0  0.00299  0.73045  0.77863  1.0000
  C   C765      1.0  0.10254  0.63054  0.73665  1.0000
  H   H747      1.0  0.15757  0.87220  0.75309  1.0000
  H   H748      1.0  0.45156  0.77267  0.76972  1.0000
  C   C766      1.0  0.47612  0.84318  0.72608  1.0000
  S   S253      1.0  0.48279  0.95295  0.76521  1.0000
  H   H749      1.0  0.07348  0.71476  0.92680  1.0000
  N   N63       1.0  0.46621  0.69230  0.91402  1.0000
  C   C767      1.0  0.24214  0.97375  0.89546  1.0000
  S   S254      1.0  0.47792  0.87160  0.81867  1.0000
  H   H750      1.0  0.18716  0.70804  0.95746  1.0000
  H   H751      1.0  0.44533  0.73397  0.89133  1.0000
  H   H752      1.0  0.13097  0.79898  0.94855  1.0000
  Fe  Fe125     1.0  0.32001  0.49188  0.78932  1.0000
  C   C768      1.0  0.23395  0.73589  0.95308  1.0000
  N   N64       1.0  0.01997  0.93898  0.90508  1.0000
  C   C769      1.0  0.22017  0.49146  0.95588  1.0000
  H   H753      1.0  0.44146  0.67419  0.95520  1.0000
  Fe  Fe126     1.0  0.40281  0.78359  0.96175  1.0000
  H   H754      1.0  0.99325  0.54410  0.89962  1.0000
  C   C770      1.0  0.00194  0.98394  0.87382  1.0000
  H   H755      1.0  0.47692  0.91468  0.90672  1.0000
  C   C771      1.0  0.28300  0.70352  0.96118  1.0000
  H   H756      1.0  0.31516  0.91777  0.94461  1.0000
  H   H757      1.0  0.27735  0.57507  0.76111  1.0000
  H   H758      1.0  0.04522  0.60393  0.76435  1.0000
  H   H759      1.0  0.28436  0.75634  0.95061  1.0000
  C   C772      1.0  0.13619  0.63772  0.72445  1.0000
  H   H760      1.0  0.02124  0.89835  0.93742  1.0000
  H   H761      1.0  0.16800  0.97118  0.79313  1.0000
  C   C773      1.0  0.26764  0.93098  0.96721  1.0000
  C   C774      1.0  0.82793  0.40774  0.11370  1.0000
  S   S255      1.0  0.65976  0.34973  0.04317  1.0000
  Fe  Fe127     1.0  0.84264  0.23583  0.01212  1.0000
  S   S256      1.0  0.84295  0.25455  0.05305  1.0000
  S   S257      1.0  0.80641  0.19644  0.00675  1.0000
  Fe  Fe128     1.0  0.88726  0.11972  0.98052  1.0000
  S   S258      1.0  0.90272  0.30538  0.01955  1.0000
  Fe  Fe129     1.0  0.89955  0.25376  0.04191  1.0000
  S   S259      1.0  0.93711  0.24529  0.07214  1.0000
  Fe  Fe130     1.0  0.84597  0.30415  0.02702  1.0000
  S   S260      1.0  0.81833  0.34691  0.04316  1.0000
  S   S261      1.0  0.89928  0.23079  0.00305  1.0000
  H   H762      1.0  0.95858  0.00530  0.99517  1.0000
  Fe  Fe131     1.0  0.94414  0.07672  0.99872  1.0000
  H   H763      1.0  0.96058  0.31000  0.08322  1.0000
  Fe  Fe132     1.0  0.89147  0.10211  0.04262  1.0000
  S   S262      1.0  0.84929  0.09880  0.01760  1.0000
  S   S263      1.0  0.88419  0.11285  0.08727  1.0000
  Fe  Fe133     1.0  0.87160  0.05085  0.00889  1.0000
  S   S264      1.0  0.53371  0.13045  0.06171  1.0000
  C   C775      1.0  0.77084  0.09148  0.98564  1.0000
  H   H764      1.0  0.78593  0.07444  0.99759  1.0000
  S   S265      1.0  0.91098  0.05186  0.03696  1.0000
  S   S266      1.0  0.92804  0.12761  0.00629  1.0000
  S   S267      1.0  0.91839  0.06592  0.19006  1.0000
  Fe  Fe134     1.0  0.57687  0.13265  0.08720  1.0000
  S   S268      1.0  0.58179  0.17420  0.11156  1.0000
  H   H765      1.0  0.85086  0.33970  0.20392  1.0000
  Fe  Fe135     1.0  0.64390  0.10177  0.10239  1.0000
  S   S269      1.0  0.65334  0.14170  0.12689  1.0000
  S   S270      1.0  0.68566  0.06441  0.09870  1.0000
  Fe  Fe136     1.0  0.59805  0.13554  0.14385  1.0000
  S   S271      1.0  0.58078  0.13129  0.19004  1.0000
  Fe  Fe137     1.0  0.63636  0.17565  0.09194  1.0000
  S   S272      1.0  0.66369  0.22300  0.07305  1.0000
  S   S273      1.0  0.58906  0.09321  0.12140  1.0000
  S   S274      1.0  0.63085  0.13645  0.06554  1.0000
  H   H766      1.0  0.56826  0.48213  0.99056  1.0000
  Fe  Fe138     1.0  0.77444  0.22766  0.17057  1.0000
  H   H767      1.0  0.67913  0.24897  0.98600  1.0000
  S   S275      1.0  0.77853  0.21892  0.12581  1.0000
  H   H768      1.0  0.97273  0.19229  0.00178  1.0000
  H   H769      1.0  0.50924  0.25690  0.97457  1.0000
  S   S276      1.0  0.77794  0.18424  0.20287  1.0000
  C   C776      1.0  0.84020  0.39986  0.13920  1.0000
  H   H770      1.0  0.66765  0.17887  0.00929  1.0000
  H   H771      1.0  0.57382  0.24739  0.05365  1.0000
  H   H772      1.0  0.74526  0.26276  0.08312  1.0000
  Fe  Fe139     1.0  0.88112  0.02427  0.19249  1.0000
  S   S277      1.0  0.62121  0.42636  0.00546  1.0000
  C   C777      1.0  0.85424  0.13706  0.21389  1.0000
  H   H773      1.0  0.86847  0.41266  0.04771  1.0000
  C   C778      1.0  0.94231  0.37474  0.03657  1.0000
  C   C779      1.0  0.63778  0.16668  0.19381  1.0000
  C   C780      1.0  0.64543  0.27744  0.01106  1.0000
  C   C781      1.0  0.96923  0.15181  0.06866  1.0000
  C   C782      1.0  0.69640  0.47137  0.01974  1.0000
  H   H774      1.0  0.63461  0.18044  0.17380  1.0000
  H   H775      1.0  0.94973  0.05079  0.13443  1.0000
  C   C783      1.0  0.70434  0.05182  0.12901  1.0000
  C   C784      1.0  0.73471  0.03439  0.12683  1.0000
  H   H776      1.0  0.74640  0.02887  0.10665  1.0000
  H   H777      1.0  0.87755  0.39325  0.01678  1.0000
  C   C785      1.0  0.76563  0.20405  0.02293  1.0000
  C   C786      1.0  0.75511  0.23629  0.02439  1.0000
  C   C787      1.0  0.72296  0.24201  0.03864  1.0000
  C   C788      1.0  0.70220  0.21557  0.05277  1.0000
  C   C789      1.0  0.71252  0.18336  0.05086  1.0000
  C   C790      1.0  0.74383  0.17763  0.03531  1.0000
  C   C791      1.0  0.72788  0.47153  0.08814  1.0000
  H   H778      1.0  0.71470  0.26694  0.03954  1.0000
  H   H779      1.0  0.69681  0.16281  0.06181  1.0000
  H   H780      1.0  0.75171  0.15272  0.03387  1.0000
  C   C792      1.0  0.80892  0.19023  0.11505  1.0000
  C   C793      1.0  0.81285  0.18347  0.08748  1.0000
  C   C794      1.0  0.83701  0.16092  0.07831  1.0000
  C   C795      1.0  0.85610  0.14364  0.09713  1.0000
  C   C796      1.0  0.85176  0.14989  0.12487  1.0000
  C   C797      1.0  0.82876  0.17357  0.13365  1.0000
  H   H781      1.0  0.79736  0.19596  0.07305  1.0000
  H   H782      1.0  0.84031  0.15650  0.05681  1.0000
  H   H783      1.0  0.86617  0.13636  0.13966  1.0000
  H   H784      1.0  0.82627  0.17865  0.15487  1.0000
  C   C798      1.0  0.73702  0.33027  0.14931  1.0000
  C   C799      1.0  0.79205  0.32087  0.12408  1.0000
  H   H785      1.0  0.89998  0.31695  0.10181  1.0000
  Fe  Fe140     1.0  0.85197  0.45392  0.21326  1.0000
  C   C800      1.0  0.50289  0.22524  0.05187  1.0000
  H   H786      1.0  0.69513  0.30610  0.13698  1.0000
  C   C801      1.0  0.77659  0.30101  0.10846  1.0000
  S   S278      1.0  0.84121  0.28570  0.98694  1.0000
  H   H787      1.0  0.96345  0.43830  0.05353  1.0000
  H   H788      1.0  0.79230  0.28951  0.09262  1.0000
  H   H789      1.0  0.82189  0.38855  0.10219  1.0000
  H   H790      1.0  0.79520  0.41437  0.01918  1.0000
  C   C802      1.0  0.75027  0.02437  0.15059  1.0000
  C   C803      1.0  0.66372  0.17571  0.20789  1.0000
  H   H791      1.0  0.89618  0.18874  0.15799  1.0000
  C   C804      1.0  0.94943  0.18021  0.06617  1.0000
  N   N65       1.0  0.71624  0.48293  0.06143  1.0000
  H   H792      1.0  0.53733  0.19677  0.07499  1.0000
  H   H793      1.0  0.84842  0.00450  0.11005  1.0000
  H   H794      1.0  0.92412  0.17876  0.06087  1.0000
  C   C805      1.0  0.88917  0.40391  0.03284  1.0000
  N   N66       1.0  0.95021  0.03065  0.09693  1.0000
  C   C806      1.0  0.93371  0.00073  0.10172  1.0000
  C   C807      1.0  0.84095  0.00477  0.06758  1.0000
  C   C808      1.0  0.70419  0.35111  0.04097  1.0000
  C   C809      1.0  0.71841  0.36381  0.06177  1.0000
  C   C810      1.0  0.75354  0.36319  0.06174  1.0000
  C   C811      1.0  0.77452  0.34811  0.04188  1.0000
  C   C812      1.0  0.76042  0.33517  0.02111  1.0000
  C   C813      1.0  0.72533  0.33732  0.02029  1.0000
  H   H795      1.0  0.70217  0.37404  0.07803  1.0000
  H   H796      1.0  0.76437  0.37358  0.07765  1.0000
  H   H797      1.0  0.77653  0.32369  0.00559  1.0000
  H   H798      1.0  0.71457  0.32717  0.00429  1.0000
  S   S279      1.0  0.81329  0.45076  0.06938  1.0000
  H   H799      1.0  0.91193  0.99577  0.11798  1.0000
  C   C814      1.0  0.77208  0.33556  0.14463  1.0000
  C   C815      1.0  0.51559  0.46694  0.99867  1.0000
  S   S280      1.0  0.59173  0.35669  0.99066  1.0000
  H   H800      1.0  0.72150  0.34118  0.16565  1.0000
  H   H801      1.0  0.77175  0.25680  0.01465  1.0000
  C   C816      1.0  0.70466  0.04822  0.17907  1.0000
  H   H802      1.0  0.78502  0.47372  0.02020  1.0000
  H   H803      1.0  0.91086  0.05556  0.11957  1.0000
  C   C817      1.0  0.93900  0.05564  0.11461  1.0000
  H   H804      1.0  0.82744  0.14133  0.21622  1.0000
  S   S281      1.0  0.84365  0.02062  0.16315  1.0000
  Fe  Fe141     1.0  0.76599  0.27565  0.21360  1.0000
  C   C818      1.0  0.68943  0.05877  0.15524  1.0000
  C   C819      1.0  0.84303  0.45775  0.14341  1.0000
  C   C820      1.0  0.96144  0.35025  0.04956  1.0000
  H   H805      1.0  0.81931  0.32465  0.12031  1.0000
  H   H806      1.0  0.70999  0.43450  0.05171  1.0000
  N   N67       1.0  0.74219  0.29585  0.11327  1.0000
  N   N68       1.0  0.94744  0.17670  0.14581  1.0000
  H   H807      1.0  0.50033  0.01163  0.03927  1.0000
  C   C821      1.0  0.95087  0.14533  0.13969  1.0000
  S   S282      1.0  0.72871  0.24799  0.19483  1.0000
  C   C822      1.0  0.61508  0.14087  0.20621  1.0000
  C   C823      1.0  0.60706  0.21974  0.02689  1.0000
  C   C824      1.0  0.91711  0.19512  0.14025  1.0000
  H   H808      1.0  0.66089  0.29973  0.00519  1.0000
  H   H809      1.0  0.93171  0.13434  0.13007  1.0000
  H   H810      1.0  0.59226  0.19710  0.03373  1.0000
  C   C825      1.0  0.61579  0.27703  0.03024  1.0000
  S   S283      1.0  0.81132  0.25921  0.18581  1.0000
  C   C826      1.0  0.84740  0.98974  0.09376  1.0000
  H   H811      1.0  0.90877  0.18949  0.12072  1.0000
  C   C827      1.0  0.70775  0.46067  0.04519  1.0000
  N   N69       1.0  0.90917  0.37895  0.04733  1.0000
  C   C828      1.0  0.78808  0.42968  0.00100  1.0000
  H   H812      1.0  0.69278  0.05357  0.19926  1.0000
  C   C829      1.0  0.83171  0.46565  0.11758  1.0000
  H   H813      1.0  0.70948  0.28973  0.08381  1.0000
  C   C830      1.0  0.72238  0.31030  0.13325  1.0000
  S   S284      1.0  0.75372  0.01839  0.20715  1.0000
  H   H814      1.0  0.96812  0.21487  0.16387  1.0000
  C   C831      1.0  0.91224  0.33356  0.08382  1.0000
  C   C832      1.0  0.59636  0.24808  0.03818  1.0000
  C   C833      1.0  0.64808  0.19029  0.99724  1.0000
  H   H815      1.0  0.68057  0.19610  0.19852  1.0000
  C   C834      1.0  0.90152  0.10170  0.20214  1.0000
  C   C835      1.0  0.72610  0.27495  0.09693  1.0000
  H   H816      1.0  0.94697  0.08075  0.10385  1.0000
  C   C836      1.0  0.91108  0.15363  0.21828  1.0000
  H   H817      1.0  0.84926  0.47715  0.15456  1.0000
  H   H818      1.0  0.60838  0.29892  0.03947  1.0000
  H   H819      1.0  0.69037  0.45378  0.00658  1.0000
  C   C837      1.0  0.84769  0.42491  0.15407  1.0000
  C   C838      1.0  0.97807  0.03668  0.07673  1.0000
  H   H820      1.0  0.79920  0.13466  0.98997  1.0000
  C   C839      1.0  0.77417  0.48284  0.97802  1.0000
  H   H821      1.0  0.92219  0.22208  0.13692  1.0000
  S   S285      1.0  0.86337  0.41494  0.18568  1.0000
  Fe  Fe142     1.0  0.57724  0.41002  0.98673  1.0000
  C   C840      1.0  0.96193  0.20998  0.07176  1.0000
  H   H822      1.0  0.62689  0.17221  0.99882  1.0000
  C   C841      1.0  0.94624  0.32956  0.07332  1.0000
  H   H823      1.0  0.73775  0.44614  0.08902  1.0000
  C   C842      1.0  0.78265  0.46310  0.00155  1.0000
  H   H824      1.0  0.64435  0.47499  0.19063  1.0000
  H   H825      1.0  0.55210  0.06228  0.20752  1.0000
  H   H826      1.0  0.84388  0.37447  0.14749  1.0000
  Fe  Fe143     1.0  0.89787  0.28262  0.98169  1.0000
  C   C843      1.0  0.97172  0.45350  0.03365  1.0000
  N   N70       1.0  0.63628  0.22038  0.00811  1.0000
  C   C844      1.0  0.51340  0.16723  0.05038  1.0000
  H   H827      1.0  0.71076  0.25490  0.11096  1.0000
  H   H828      1.0  0.78367  0.35077  0.15718  1.0000
  H   H829      1.0  0.66592  0.07198  0.15725  1.0000
  H   H830      1.0  0.95420  0.39030  0.01780  1.0000
  C   C845      1.0  0.89397  0.35855  0.07048  1.0000
  N   N71       1.0  0.77281  0.10904  0.10986  1.0000
  C   C846      1.0  0.74713  0.12991  0.11652  1.0000
  C   C847      1.0  0.79058  0.09430  0.12997  1.0000
  C   C848      1.0  0.73848  0.13630  0.14398  1.0000
  C   C849      1.0  0.78234  0.09985  0.15770  1.0000
  C   C850      1.0  0.75590  0.12078  0.16471  1.0000
  C   C851      1.0  0.78035  0.10174  0.08115  1.0000
  H   H831      1.0  0.73328  0.14182  0.10053  1.0000
  H   H832      1.0  0.81121  0.07806  0.12465  1.0000
  H   H833      1.0  0.71845  0.15326  0.14909  1.0000
  H   H834      1.0  0.79608  0.08769  0.17366  1.0000
  H   H835      1.0  0.74887  0.12495  0.18616  1.0000
  H   H836      1.0  0.80442  0.08824  0.07766  1.0000
  H   H837      1.0  0.75928  0.08677  0.07654  1.0000
  H   H838      1.0  0.78342  0.12494  0.06620  1.0000
  H   H839      1.0  0.50788  0.24761  0.05995  1.0000
  C   C852      1.0  0.51975  0.19640  0.06037  1.0000
  Fe  Fe144     1.0  0.63832  0.37430  0.00564  1.0000
  H   H840      1.0  0.86741  0.36115  0.07838  1.0000
  H   H841      1.0  0.95916  0.12870  0.06493  1.0000
  S   S286      1.0  0.83850  0.00623  0.01213  1.0000
  H   H842      1.0  0.70668  0.47221  0.10558  1.0000
  H   H843      1.0  0.90510  0.42579  0.02272  1.0000
  C   C853      1.0  0.82446  0.44066  0.10266  1.0000
  C   C854      1.0  0.65554  0.24867  0.00030  1.0000
  H   H844      1.0  0.84950  0.08998  0.19983  1.0000
  C   C855      1.0  0.86671  0.10771  0.20492  1.0000
  C   C856      1.0  0.73520  0.03114  0.17682  1.0000
  S   S287      1.0  0.90650  0.07110  0.96992  1.0000
  S   S288      1.0  0.52298  0.42475  0.99775  1.0000
  H   H845      1.0  0.77368  0.01103  0.14859  1.0000
  C   C857      1.0  0.97130  0.19033  0.15837  1.0000
  Fe  Fe145     1.0  0.80782  0.00117  0.20177  1.0000
  H   H846      1.0  0.83706  0.03100  0.06396  1.0000
  C   C858      1.0  0.92356  0.12456  0.20911  1.0000
  H   H847      1.0  0.49622  0.07198  0.03682  1.0000
  H   H848      1.0  0.95041  0.11980  0.20747  1.0000
  C   C859      1.0  0.77824  0.12516  0.98150  1.0000
  C   C860      1.0  0.98509  0.99896  0.99208  1.0000
  H   H849      1.0  0.93005  0.48615  0.03840  1.0000
  C   C861      1.0  0.97926  0.12708  0.14550  1.0000
  C   C862      1.0  0.48979  0.16718  0.03172  1.0000
  C   C863      1.0  0.51473  0.99323  0.97961  1.0000
  H   H850      1.0  0.73918  0.05355  0.97654  1.0000
  H   H851      1.0  0.98214  0.10238  0.14036  1.0000
  H   H852      1.0  0.65904  0.19585  0.97476  1.0000
  C   C864      1.0  0.95281  0.48089  0.02518  1.0000
  C   C865      1.0  0.78439  0.41627  0.97688  1.0000
  C   C866      1.0  0.74444  0.07982  0.97359  1.0000
  H   H853      1.0  0.78841  0.39019  0.97670  1.0000
  H   H854      1.0  0.98212  0.25296  0.99473  1.0000
  H   H855      1.0  0.88780  0.34605  0.97212  1.0000
  S   S289      1.0  0.75899  0.32997  0.21682  1.0000
  H   H856      1.0  0.98781  0.34726  0.04108  1.0000
  H   H857      1.0  0.80665  0.42561  0.45213  1.0000
  C   C867      1.0  0.73737  0.34423  0.24707  1.0000
  C   C868      1.0  0.52066  0.46674  0.42030  1.0000
  Fe  Fe146     1.0  0.84044  0.45199  0.27562  1.0000
  N   N72       1.0  0.51164  0.06668  0.24011  1.0000
  S   S290      1.0  0.84635  0.41819  0.31535  1.0000
  H   H858      1.0  0.92646  0.05906  0.24803  1.0000
  C   C869      1.0  0.93054  0.44337  0.33489  1.0000
  C   C870      1.0  0.72178  0.32242  0.27007  1.0000
  H   H859      1.0  0.73314  0.33405  0.46072  1.0000
  S   S291      1.0  0.88691  0.46113  0.24373  1.0000
  S   S292      1.0  0.77063  0.23559  0.24926  1.0000
  H   H860      1.0  0.93285  0.00242  0.24128  1.0000
  H   H861      1.0  0.86976  0.06317  0.42426  1.0000
  H   H862      1.0  0.76170  0.99458  0.30101  1.0000
  H   H863      1.0  0.49034  0.26058  0.45491  1.0000
  S   S293      1.0  0.71986  0.16280  0.44148  1.0000
  C   C871      1.0  0.73622  0.37824  0.24819  1.0000
  C   C872      1.0  0.49976  0.09442  0.40781  1.0000
  Fe  Fe147     1.0  0.73617  0.20690  0.22876  1.0000
  H   H864      1.0  0.72895  0.37974  0.42213  1.0000
  H   H865      1.0  0.97118  0.18632  0.42955  1.0000
  H   H866      1.0  0.83248  0.29254  0.30393  1.0000
  Fe  Fe148     1.0  0.67260  0.19231  0.43852  1.0000
  S   S294      1.0  0.66472  0.22412  0.39848  1.0000
  H   H867      1.0  0.80438  0.15052  0.46118  1.0000
  S   S295      1.0  0.84422  0.00890  0.23143  1.0000
  C   C873      1.0  0.85570  0.28561  0.26276  1.0000
  C   C874      1.0  0.75904  0.10634  0.25951  1.0000
  S   S296      1.0  0.55014  0.02072  0.30339  1.0000
  H   H868      1.0  0.84679  0.46706  0.46204  1.0000
  S   S297      1.0  0.69440  0.44900  0.37301  1.0000
  S   S298      1.0  0.68439  0.38193  0.32644  1.0000
  C   C875      1.0  0.55779  0.46768  0.46428  1.0000
  S   S299      1.0  0.61756  0.45233  0.43392  1.0000
  C   C876      1.0  0.54976  0.21217  0.23336  1.0000
  S   S300      1.0  0.70522  0.03214  0.33396  1.0000
  H   H869      1.0  0.70703  0.04129  0.25911  1.0000
  H   H870      1.0  0.68720  0.47976  0.24984  1.0000
  S   S301      1.0  0.63712  0.14946  0.45498  1.0000
  S   S302      1.0  0.91686  0.01429  0.40600  1.0000
  C   C877      1.0  0.69642  0.30325  0.44812  1.0000
  H   H871      1.0  0.50048  0.07102  0.31087  1.0000
  C   C878      1.0  0.51212  0.09813  0.24614  1.0000
  S   S303      1.0  0.93583  0.29327  0.29692  1.0000
  Fe  Fe149     1.0  0.52058  0.20119  0.31888  1.0000
  C   C879      1.0  0.84702  0.32899  0.22581  1.0000
  S   S304      1.0  0.56731  0.17233  0.30886  1.0000
  N   N73       1.0  0.75509  0.03826  0.27336  1.0000
  S   S305      1.0  0.94874  0.25270  0.43469  1.0000
  C   C880      1.0  0.66824  0.46841  0.23942  1.0000
  S   S306      1.0  0.51212  0.26556  0.39673  1.0000
  S   S307      1.0  0.93934  0.22401  0.36488  1.0000
  S   S308      1.0  0.52353  0.25597  0.31642  1.0000
  C   C881      1.0  0.71988  0.39037  0.27219  1.0000
  H   H872      1.0  0.80795  0.10278  0.27322  1.0000
  H   H873      1.0  0.83325  0.47207  0.35107  1.0000
  C   C882      1.0  0.95113  0.18531  0.44712  1.0000
  S   S309      1.0  0.61291  0.00656  0.35447  1.0000
  C   C883      1.0  0.58066  0.20777  0.24349  1.0000
  H   H874      1.0  0.84802  0.32310  0.45502  1.0000
  C   C884      1.0  0.55419  0.06242  0.30684  1.0000
  C   C885      1.0  0.58624  0.07652  0.30591  1.0000
  C   C886      1.0  0.58953  0.11022  0.30695  1.0000
  C   C887      1.0  0.56108  0.12996  0.30929  1.0000
  C   C888      1.0  0.52878  0.11576  0.31129  1.0000
  C   C889      1.0  0.52539  0.08197  0.30987  1.0000
  H   H875      1.0  0.60863  0.06171  0.30344  1.0000
  H   H876      1.0  0.61428  0.12134  0.30554  1.0000
  S   S310      1.0  0.49560  0.19255  0.36312  1.0000
  H   H877      1.0  0.58189  0.19001  0.36607  1.0000
  C   C890      1.0  0.57415  0.46110  0.43836  1.0000
  Fe  Fe150     1.0  0.98601  0.19540  0.35302  1.0000
  C   C891      1.0  0.93603  0.21436  0.45424  1.0000
  C   C892      1.0  0.87875  0.15615  0.42640  1.0000
  C   C893      1.0  0.95142  0.01353  0.30387  1.0000
  H   H878      1.0  0.53829  0.19215  0.22554  1.0000
  H   H879      1.0  0.53598  0.11170  0.24361  1.0000
  H   H880      1.0  0.86692  0.26236  0.26974  1.0000
  Fe  Fe151     1.0  0.66406  0.99519  0.33284  1.0000
  C   C894      1.0  0.50520  0.07593  0.38585  1.0000
  C   C895      1.0  0.62270  0.23688  0.39849  1.0000
  C   C896      1.0  0.61221  0.25080  0.37339  1.0000
  C   C897      1.0  0.57832  0.25972  0.37287  1.0000
  C   C898      1.0  0.55496  0.25564  0.39756  1.0000
  C   C899      1.0  0.56583  0.24285  0.42284  1.0000
  C   C900      1.0  0.59951  0.23299  0.42323  1.0000
  H   H881      1.0  0.63020  0.25442  0.35426  1.0000
  H   H882      1.0  0.57039  0.27032  0.35341  1.0000
  H   H883      1.0  0.54819  0.23996  0.44209  1.0000
  H   H884      1.0  0.60757  0.22241  0.44266  1.0000
  C   C901      1.0  0.67421  0.30082  0.42892  1.0000
  C   C902      1.0  0.52830  0.05041  0.38670  1.0000
  C   C903      1.0  0.69150  0.35399  0.40500  1.0000
  C   C904      1.0  0.69015  0.05844  0.42238  1.0000
  C   C905      1.0  0.71048  0.07882  0.40082  1.0000
  C   C906      1.0  0.71668  0.06992  0.37383  1.0000
  C   C907      1.0  0.70172  0.04118  0.36829  1.0000
  C   C908      1.0  0.68149  0.02095  0.38994  1.0000
  C   C909      1.0  0.67582  0.02950  0.41687  1.0000
  H   H885      1.0  0.72179  0.10113  0.40505  1.0000
  H   H886      1.0  0.73242  0.08566  0.35718  1.0000
  C   C910      1.0  0.78566  0.08940  0.27019  1.0000
  H   H887      1.0  0.65988  0.01386  0.43338  1.0000
  C   C911      1.0  0.90129  0.14138  0.40732  1.0000
  H   H888      1.0  0.62446  0.31019  0.39855  1.0000
  C   C912      1.0  0.78325  0.05511  0.27703  1.0000
  C   C913      1.0  0.86102  0.29880  0.23450  1.0000
  H   H889      1.0  0.77574  0.33813  0.29874  1.0000
  Fe  Fe152     1.0  0.64053  0.46031  0.38855  1.0000
  C   C914      1.0  0.53376  0.24236  0.23372  1.0000
  C   C915      1.0  0.71375  0.35739  0.42405  1.0000
  H   H890      1.0  0.92135  0.15582  0.39344  1.0000
  H   H891      1.0  0.64876  0.11835  0.26581  1.0000
  C   C916      1.0  0.70539  0.33453  0.29401  1.0000
  C   C917      1.0  0.70443  0.36850  0.29526  1.0000
  C   C918      1.0  0.72909  0.05468  0.26249  1.0000
  H   H892      1.0  0.69359  0.31742  0.31177  1.0000
  C   C919      1.0  0.87386  0.38513  0.31033  1.0000
  C   C920      1.0  0.88504  0.37787  0.28346  1.0000
  C   C921      1.0  0.90482  0.35015  0.27973  1.0000
  C   C922      1.0  0.91370  0.32941  0.30278  1.0000
  C   C923      1.0  0.90342  0.33708  0.32970  1.0000
  C   C924      1.0  0.88334  0.36481  0.33345  1.0000
  H   H893      1.0  0.87738  0.39279  0.26550  1.0000
  H   H894      1.0  0.91258  0.34432  0.25886  1.0000
  H   H895      1.0  0.91000  0.32109  0.34762  1.0000
  H   H896      1.0  0.87456  0.37010  0.35433  1.0000
  H   H897      1.0  0.69768  0.28339  0.46511  1.0000
  H   H898      1.0  0.56789  0.45600  0.39623  1.0000
  N   N74       1.0  0.82261  0.33240  0.27327  1.0000
  H   H899      1.0  0.64900  0.23250  0.24636  1.0000
  H   H900      1.0  0.56481  0.15080  0.38200  1.0000
  H   H901      1.0  0.53666  0.29126  0.24428  1.0000
  H   H902      1.0  0.94085  0.10417  0.27295  1.0000
  C   C925      1.0  0.54544  0.04353  0.40978  1.0000
  H   H903      1.0  0.69011  0.37374  0.38791  1.0000
  H   H904      1.0  0.79934  0.37598  0.28579  1.0000
  N   N75       1.0  0.54002  0.06183  0.43123  1.0000
  H   H905      1.0  0.97111  0.45211  0.30013  1.0000
  S   S311      1.0  0.69657  0.17168  0.25395  1.0000
  C   C926      1.0  0.61904  0.12351  0.23225  1.0000
  C   C927      1.0  0.71613  0.33179  0.44573  1.0000
  N   N76       1.0  0.88509  0.48178  0.33444  1.0000
  H   H906      1.0  0.91173  0.32384  0.46607  1.0000
  N   N77       1.0  0.85414  0.13771  0.44461  1.0000
  C   C928      1.0  0.80154  0.34944  0.29374  1.0000
  C   C929      1.0  0.73068  0.08890  0.25541  1.0000
  C   C930      1.0  0.87252  0.08933  0.42478  1.0000
  C   C931      1.0  0.54913  0.26781  0.24369  1.0000
  C   C932      1.0  0.89818  0.10774  0.40659  1.0000
  C   C933      1.0  0.95956  0.03853  0.31852  1.0000
  H   H907      1.0  0.76989  0.99106  0.26398  1.0000
  H   H908      1.0  0.71002  0.10176  0.24685  1.0000
  H   H909      1.0  0.60187  0.10335  0.24186  1.0000
  H   H910      1.0  0.88169  0.18226  0.42702  1.0000
  H   H911      1.0  0.91574  0.09592  0.39206  1.0000
  C   C934      1.0  0.75349  0.00229  0.28034  1.0000
  Fe  Fe153     1.0  0.67374  0.43397  0.33604  1.0000
  S   S312      1.0  0.95879  0.06247  0.45569  1.0000
  H   H912      1.0  0.56269  0.02309  0.41062  1.0000
  H   H913      1.0  0.66078  0.30822  0.37177  1.0000
  H   H914      1.0  0.94729  0.46703  0.40477  1.0000
  C   C935      1.0  0.62780  0.22744  0.26403  1.0000
  N   N78       1.0  0.59521  0.23261  0.25377  1.0000
  H   H915      1.0  0.67015  0.99857  0.38601  1.0000
  H   H916      1.0  0.81281  0.34813  0.31329  1.0000
  C   C936      1.0  0.89952  0.45456  0.34710  1.0000
  C   C937      1.0  0.93596  0.05311  0.26775  1.0000
  C   C938      1.0  0.55560  0.46109  0.41628  1.0000
  H   H917      1.0  0.59468  0.17150  0.39869  1.0000
  Fe  Fe154     1.0  0.59355  0.99114  0.31778  1.0000
  S   S313      1.0  0.68043  0.48467  0.31054  1.0000
  C   C939      1.0  0.85079  0.10473  0.44396  1.0000
  H   H918      1.0  0.50939  0.38463  0.45153  1.0000
  C   C940      1.0  0.94395  0.07874  0.28179  1.0000
  S   S314      1.0  0.68271  0.06766  0.45664  1.0000
  H   H919      1.0  0.50626  0.46595  0.40332  1.0000
  H   H920      1.0  0.76029  0.13295  0.25448  1.0000
  H   H921      1.0  0.95217  0.13251  0.45744  1.0000
  H   H922      1.0  0.81647  0.36864  0.23843  1.0000
  S   S315      1.0  0.80587  0.44200  0.24553  1.0000
  C   C941      1.0  0.50434  0.47357  0.44615  1.0000
  H   H923      1.0  0.65406  0.44861  0.25464  1.0000
  C   C942      1.0  0.58016  0.26256  0.25353  1.0000
  H   H924      1.0  0.80390  0.04202  0.28546  1.0000
  C   C943      1.0  0.94039  0.15479  0.46293  1.0000
  C   C944      1.0  0.55686  0.05306  0.45590  1.0000
  H   H925      1.0  0.62962  0.20158  0.27419  1.0000
  C   C945      1.0  0.82765  0.34546  0.24556  1.0000
  Fe  Fe155     1.0  0.49468  0.24727  0.35989  1.0000
  H   H926      1.0  0.53226  0.03551  0.36990  1.0000
  H   H927      1.0  0.94175  0.42171  0.34499  1.0000
  C   C946      1.0  0.64526  0.13224  0.24602  1.0000
  C   C947      1.0  0.83620  0.30279  0.28197  1.0000
  H   H928      1.0  0.71962  0.41655  0.27295  1.0000
  C   C948      1.0  0.51748  0.08699  0.43048  1.0000
  H   H929      1.0  0.59174  0.28237  0.26151  1.0000
  C   C949      1.0  0.66697  0.15890  0.23432  1.0000
  N   N79       1.0  0.94007  0.02102  0.27870  1.0000
  N   N80       1.0  0.67165  0.32618  0.40793  1.0000
  H   H930      1.0  0.65850  0.27876  0.43129  1.0000
  H   H931      1.0  0.83681  0.17958  0.46413  1.0000
  C   C950      1.0  0.64855  0.32278  0.38784  1.0000
  H   H932      1.0  0.72252  0.29621  0.26951  1.0000
  H   H933      1.0  0.64189  0.34711  0.37708  1.0000
  S   S316      1.0  0.61934  0.44210  0.35359  1.0000
  Fe  Fe156     1.0  0.96151  0.26375  0.33040  1.0000
  Fe  Fe157     1.0  0.97178  0.24661  0.39104  1.0000
  N   N81       1.0  0.61669  0.15088  0.36312  1.0000
  C   C951      1.0  0.64190  0.16992  0.34619  1.0000
  C   C952      1.0  0.61856  0.11733  0.36665  1.0000
  C   C953      1.0  0.66911  0.15539  0.33121  1.0000
  C   C954      1.0  0.64542  0.10200  0.35207  1.0000
  C   C955      1.0  0.67071  0.12118  0.33409  1.0000
  C   C956      1.0  0.58815  0.16648  0.37839  1.0000
  H   H934      1.0  0.64092  0.19650  0.34405  1.0000
  H   H935      1.0  0.59892  0.10221  0.38035  1.0000
  H   H936      1.0  0.68867  0.17055  0.31730  1.0000
  H   H937      1.0  0.64627  0.07542  0.35425  1.0000
  H   H938      1.0  0.69140  0.10949  0.32234  1.0000
  H   H939      1.0  0.83141  0.09011  0.45854  1.0000
  H   H940      1.0  0.96192  0.09099  0.31854  1.0000
  H   H941      1.0  0.59934  0.38319  0.46231  1.0000
  C   C957      1.0  0.93026  0.99447  0.26424  1.0000
  H   H942      1.0  0.59243  0.18401  0.24399  1.0000
  Fe  Fe158     1.0  0.92523  0.02178  0.44893  1.0000
  H   H943      1.0  0.96857  0.03245  0.33847  1.0000
  C   C958      1.0  0.98215  0.99254  0.39749  1.0000
  C   C959      1.0  0.95580  0.07133  0.30736  1.0000
  H   H944      1.0  0.74833  0.39529  0.23052  1.0000
  C   C960      1.0  0.94694  0.46041  0.30970  1.0000
  C   C961      1.0  0.96702  0.47423  0.38723  1.0000
  H   H945      1.0  0.68298  0.45741  0.22202  1.0000
  H   H946      1.0  0.51245  0.10099  0.44779  1.0000
  S   S317      1.0  0.86221  0.19778  0.23110  1.0000
  C   C962      1.0  0.83096  0.15298  0.46500  1.0000
  Fe  Fe159     1.0  0.68388  0.12123  0.46166  1.0000
  H   H947      1.0  0.50656  0.13083  0.31341  1.0000
  H   H948      1.0  0.56348  0.05667  0.24233  1.0000
  C   C963      1.0  0.87646  0.16032  0.22030  1.0000
  H   H949      1.0  0.58290  0.04410  0.45001  1.0000
  S   S318      1.0  0.98092  0.14003  0.35620  1.0000
  H   H950      1.0  0.88670  0.44109  0.36654  1.0000
  H   H951      1.0  0.55940  0.07455  0.46696  1.0000
  H   H952      1.0  0.92838  0.17119  0.22355  1.0000
  H   H953      1.0  0.63082  0.24337  0.28002  1.0000
  H   H954      1.0  0.54090  0.02463  0.23155  1.0000
  H   H955      1.0  0.57184  0.38745  0.43657  1.0000
  H   H956      1.0  0.50935  0.24606  0.22657  1.0000
  C   C964      1.0  0.54355  0.05179  0.22973  1.0000
  H   H957      1.0  0.98670  0.36707  0.33251  1.0000
  H   H958      1.0  0.72717  0.99256  0.28199  1.0000
  H   H959      1.0  0.49112  0.08103  0.36841  1.0000
  C   C965      1.0  0.57394  0.37586  0.45822  1.0000
  H   H960      1.0  0.57280  0.34865  0.45957  1.0000
  Fe  Fe160     1.0  0.81223  0.21638  0.21983  1.0000
  C   C966      1.0  0.52309  0.47462  0.46801  1.0000
  H   H961      1.0  0.70073  0.98721  0.46680  1.0000
  C   C967      1.0  0.94899  0.98977  0.39178  1.0000
  H   H962      1.0  0.87598  0.28558  0.21946  1.0000
  H   H963      1.0  0.95418  0.98810  0.31281  1.0000
  Fe  Fe161     1.0  0.66196  0.33741  0.57005  1.0000
  S   S319      1.0  0.61307  0.34766  0.55382  1.0000
  S   S320      1.0  0.65949  0.31088  0.61414  1.0000
  Fe  Fe162     1.0  0.70464  0.37237  0.51658  1.0000
  S   S321      1.0  0.65858  0.38534  0.49645  1.0000
  S   S322      1.0  0.75348  0.38590  0.48714  1.0000
  Fe  Fe163     1.0  0.63586  0.39768  0.53821  1.0000
  C   C968      1.0  0.52576  0.17396  0.59610  1.0000
  Fe  Fe164     1.0  0.64046  0.33425  0.51390  1.0000
  S   S323      1.0  0.61895  0.30181  0.48774  1.0000
  S   S324      1.0  0.68330  0.38916  0.55733  1.0000
  S   S325      1.0  0.68804  0.31967  0.53104  1.0000
  S   S326      1.0  0.54180  0.20708  0.66861  1.0000
  C   C969      1.0  0.50422  0.40359  0.65348  1.0000
  C   C970      1.0  0.77901  0.22084  0.51560  1.0000
  S   S327      1.0  0.87897  0.27795  0.60803  1.0000
  H   H964      1.0  0.51070  0.47977  0.48808  1.0000
  C   C971      1.0  0.71079  0.23293  0.57858  1.0000
  S   S328      1.0  0.89303  0.35453  0.57829  1.0000
  C   C972      1.0  0.90271  0.47687  0.70676  1.0000
  Fe  Fe165     1.0  0.90661  0.32248  0.61620  1.0000
  S   S329      1.0  0.90926  0.33265  0.66029  1.0000
  Fe  Fe166     1.0  0.86991  0.30826  0.56780  1.0000
  S   S330      1.0  0.81935  0.30819  0.55149  1.0000
  H   H965      1.0  0.53777  0.32114  0.69650  1.0000
  H   H966      1.0  0.53557  0.47442  0.60497  1.0000
  N   N82       1.0  0.89720  0.44197  0.71816  1.0000
  H   H967      1.0  0.57174  0.46699  0.48166  1.0000
  Fe  Fe167     1.0  0.97820  0.02371  0.48640  1.0000
  C   C973      1.0  0.90175  0.34294  0.47804  1.0000
  S   S331      1.0  0.51885  0.02155  0.53756  1.0000
  Fe  Fe168     1.0  0.91850  0.06856  0.49172  1.0000
  S   S332      1.0  0.89846  0.11583  0.50505  1.0000
  S   S333      1.0  0.94060  0.03295  0.52302  1.0000
  C   C974      1.0  0.80417  0.27410  0.53805  1.0000
  H   H968      1.0  0.95793  0.18582  0.68710  1.0000
  H   H969      1.0  0.87890  0.18131  0.51008  1.0000
  H   H970      1.0  0.62398  0.43860  0.63746  1.0000
  N   N83       1.0  0.51701  0.31612  0.65957  1.0000
  C   C975      1.0  0.51921  0.08899  0.53546  1.0000
  C   C976      1.0  0.53849  0.06064  0.53370  1.0000
  C   C977      1.0  0.57394  0.06341  0.52897  1.0000
  C   C978      1.0  0.59013  0.09426  0.52618  1.0000
  H   H971      1.0  0.58905  0.04177  0.52732  1.0000
  H   H972      1.0  0.61753  0.09606  0.52253  1.0000
  H   H973      1.0  0.62651  0.25956  0.54708  1.0000
  H   H974      1.0  0.84464  0.24193  0.54790  1.0000
  C   C979      1.0  0.90635  0.19069  0.67904  1.0000
  C   C980      1.0  0.94149  0.18905  0.67135  1.0000
  H   H975      1.0  0.50509  0.20443  0.47443  1.0000
  C   C981      1.0  0.92437  0.36505  0.48535  1.0000
  C   C982      1.0  0.89950  0.20026  0.63022  1.0000
  C   C983      1.0  0.88529  0.19502  0.65848  1.0000
  H   H976      1.0  0.72593  0.24971  0.58721  1.0000
  C   C984      1.0  0.80893  0.21805  0.52764  1.0000
  C   C985      1.0  0.77425  0.27698  0.52594  1.0000
  H   H977      1.0  0.85808  0.19579  0.66434  1.0000
  H   H978      1.0  0.49181  0.08710  0.53880  1.0000
  C   C986      1.0  0.82750  0.45551  0.47852  1.0000
  Fe  Fe169     1.0  0.63976  0.16420  0.49677  1.0000
  C   C987      1.0  0.93400  0.36634  0.66513  1.0000
  C   C988      1.0  0.93776  0.39508  0.64570  1.0000
  C   C989      1.0  0.80482  0.43204  0.47297  1.0000
  C   C990      1.0  0.91405  0.15332  0.48547  1.0000
  H   H979      1.0  0.49371  0.21052  0.63231  1.0000
  H   H980      1.0  0.92690  0.39623  0.62659  1.0000
  C   C991      1.0  0.91024  0.21282  0.47715  1.0000
  C   C992      1.0  0.78001  0.41666  0.49432  1.0000
  C   C993      1.0  0.77789  0.42482  0.52126  1.0000
  C   C994      1.0  0.80078  0.44801  0.52688  1.0000
  C   C995      1.0  0.60675  0.45901  0.57109  1.0000
  H   H981      1.0  0.89845  0.23514  0.48277  1.0000
  C   C996      1.0  0.87083  0.38978  0.71680  1.0000
  H   H982      1.0  0.75932  0.41251  0.53796  1.0000
  Fe  Fe170     1.0  0.59276  0.46852  0.68927  1.0000
  H   H983      1.0  0.97907  0.43522  0.54729  1.0000
  S   S334      1.0  0.95229  0.21723  0.58854  1.0000
  C   C997      1.0  0.58074  0.28280  0.50463  1.0000
  H   H984      1.0  0.84144  0.24531  0.68913  1.0000
  H   H985      1.0  0.71351  0.15783  0.55721  1.0000
  C   C998      1.0  0.52092  0.25065  0.53281  1.0000
  C   C999      1.0  0.52781  0.28302  0.53634  1.0000
  C   C1000     1.0  0.55789  0.29904  0.52235  1.0000
  H   H986      1.0  0.86694  0.40942  0.52230  1.0000
  C   C1001     1.0  0.97326  0.05993  0.70537  1.0000
  H   H987      1.0  0.51021  0.29558  0.55007  1.0000
  H   H988      1.0  0.56306  0.32406  0.52494  1.0000
  C   C1002     1.0  0.57329  0.23721  0.65355  1.0000
  C   C1003     1.0  0.57678  0.24947  0.62491  1.0000
  C   C1004     1.0  0.60268  0.27261  0.61257  1.0000
  C   C1005     1.0  0.62573  0.28291  0.62868  1.0000
  C   C1006     1.0  0.62215  0.27059  0.65721  1.0000
  C   C1007     1.0  0.59572  0.24823  0.66971  1.0000
  H   H989      1.0  0.55936  0.24126  0.61225  1.0000
  H   H990      1.0  0.60490  0.28228  0.59063  1.0000
  H   H991      1.0  0.64020  0.27827  0.66951  1.0000
  H   H992      1.0  0.59334  0.23857  0.69163  1.0000
  C   C1008     1.0  0.72333  0.20241  0.57328  1.0000
  H   H993      1.0  0.90929  0.48013  0.68363  1.0000
  C   C1009     1.0  0.61592  0.43973  0.59471  1.0000
  C   C1010     1.0  0.76168  0.25051  0.51472  1.0000
  H   H994      1.0  0.85604  0.37451  0.70650  1.0000
  H   H995      1.0  0.96478  0.25907  0.64927  1.0000
  C   C1011     1.0  0.87797  0.42277  0.70561  1.0000
  H   H996      1.0  0.62181  0.41416  0.59421  1.0000
  C   C1012     1.0  0.84453  0.32165  0.47810  1.0000
  C   C1013     1.0  0.94791  0.36528  0.68999  1.0000
  C   C1014     1.0  0.82156  0.24452  0.53871  1.0000
  H   H997      1.0  0.98286  0.23360  0.49161  1.0000
  C   C1015     1.0  0.70642  0.48163  0.52696  1.0000
  C   C1016     1.0  0.54389  0.23441  0.51531  1.0000
  H   H998      1.0  0.53975  0.17759  0.61348  1.0000
  S   S335      1.0  0.67133  0.21023  0.48002  1.0000
  C   C1017     1.0  0.95380  0.42308  0.65175  1.0000
  N   N84       1.0  0.66033  0.22189  0.55981  1.0000
  H   H999      1.0  0.92904  0.40649  0.50705  1.0000
  H   H1000     1.0  0.51774  0.40619  0.60881  1.0000
  H   H1001     1.0  0.51787  0.00031  0.60130  1.0000
  C   C1018     1.0  0.96708  0.42222  0.67684  1.0000
  C   C1019     1.0  0.95563  0.19323  0.64302  1.0000
  H   H1002     1.0  0.60674  0.22343  0.56948  1.0000
  H   H1003     1.0  0.74853  0.19537  0.57742  1.0000
  C   C1020     1.0  0.91176  0.38935  0.50106  1.0000
  S   S336      1.0  0.76423  0.18610  0.50280  1.0000
  C   C1021     1.0  0.62741  0.23236  0.55219  1.0000
  H   H1004     1.0  0.95047  0.12005  0.55151  1.0000
  Fe  Fe171     1.0  0.71622  0.17765  0.48448  1.0000
  H   H1005     1.0  0.66940  0.26583  0.57609  1.0000
  C   C1022     1.0  0.70368  0.18137  0.56186  1.0000
  H   H1006     1.0  0.84967  0.29626  0.48761  1.0000
  C   C1023     1.0  0.67891  0.24215  0.57191  1.0000
  C   C1024     1.0  0.85853  0.26557  0.69177  1.0000
  S   S337      1.0  0.68419  0.13310  0.50485  1.0000
  H   H1007     1.0  0.76088  0.29993  0.52513  1.0000
  H   H1008     1.0  0.73857  0.25301  0.50560  1.0000
  H   H1009     1.0  0.93444  0.17704  0.53690  1.0000
  C   C1025     1.0  0.51007  0.03286  0.68964  1.0000
  C   C1026     1.0  0.54146  0.32553  0.67385  1.0000
  H   H1010     1.0  0.97497  0.39214  0.71506  1.0000
  H   H1011     1.0  0.84780  0.28958  0.68429  1.0000
  H   H1012     1.0  0.65660  0.17500  0.54671  1.0000
  H   H1013     1.0  0.53244  0.40759  0.54342  1.0000
  H   H1014     1.0  0.54983  0.06806  0.68987  1.0000
  H   H1015     1.0  0.53888  0.20921  0.51290  1.0000
  H   H1016     1.0  0.52099  0.02557  0.66981  1.0000
  S   S338      1.0  0.91777  0.29386  0.54213  1.0000
  S   S339      1.0  0.59130  0.16080  0.52732  1.0000
  C   C1027     1.0  0.53548  0.11980  0.53350  1.0000
  C   C1028     1.0  0.69588  0.46530  0.50654  1.0000
  H   H1017     1.0  0.50241  0.31423  0.61960  1.0000
  C   C1029     1.0  0.85505  0.36851  0.50200  1.0000
  S   S340      1.0  0.60399  0.44208  0.54061  1.0000
  H   H1018     1.0  0.88324  0.20534  0.61435  1.0000
  S   S341      1.0  0.88257  0.03135  0.48210  1.0000
  C   C1030     1.0  0.49869  0.39816  0.62675  1.0000
  H   H1019     1.0  0.59902  0.36005  0.61893  1.0000
  N   N85       1.0  0.54669  0.38671  0.47827  1.0000
  C   C1031     1.0  0.89914  0.18237  0.49256  1.0000
  H   H1020     1.0  0.72754  0.47253  0.53726  1.0000
  H   H1021     1.0  0.53218  0.48123  0.64053  1.0000
  S   S342      1.0  0.95618  0.30816  0.59433  1.0000
  H   H1022     1.0  0.95521  0.44573  0.63721  1.0000
  Fe  Fe172     1.0  0.52200  0.20649  0.71448  1.0000
  C   C1032     1.0  0.66811  0.47694  0.49390  1.0000
  H   H1023     1.0  0.52065  0.14168  0.53505  1.0000
  Fe  Fe173     1.0  0.92820  0.26652  0.58287  1.0000
  H   H1024     1.0  0.52738  0.41569  0.65595  1.0000
  C   C1033     1.0  0.49416  0.40431  0.51712  1.0000
  H   H1025     1.0  0.59135  0.23786  0.48755  1.0000
  C   C1034     1.0  0.57099  0.12243  0.52897  1.0000
  C   C1035     1.0  0.96109  0.17123  0.53534  1.0000
  H   H1026     1.0  0.62263  0.22244  0.53315  1.0000
  H   H1027     1.0  0.79959  0.45369  0.54792  1.0000
  C   C1036     1.0  0.67186  0.19143  0.55550  1.0000
  H   H1028     1.0  0.94051  0.01666  0.71294  1.0000
  C   C1037     1.0  0.52637  0.05655  0.70122  1.0000
  H   H1029     1.0  0.59100  0.34841  0.67067  1.0000
  H   H1030     1.0  0.54181  0.03347  0.47079  1.0000
  C   C1038     1.0  0.57139  0.34130  0.65943  1.0000
  C   C1039     1.0  0.57591  0.34783  0.63033  1.0000
  H   H1031     1.0  0.55356  0.34335  0.59346  1.0000
  Fe  Fe174     1.0  0.53381  0.42449  0.71719  1.0000
  C   C1040     1.0  0.97600  0.22856  0.51474  1.0000
  H   H1032     1.0  0.95155  0.36307  0.47933  1.0000
  H   H1033     1.0  0.82229  0.19510  0.52866  1.0000
  S   S343      1.0  0.58268  0.41446  0.69111  1.0000
  C   C1041     1.0  0.52711  0.40207  0.52344  1.0000
  H   H1034     1.0  0.88301  0.26253  0.67823  1.0000
  C   C1042     1.0  0.57351  0.25066  0.50088  1.0000
  C   C1043     1.0  0.55323  0.39315  0.50366  1.0000
  C   C1044     1.0  0.87693  0.39104  0.50958  1.0000
  C   C1045     1.0  0.96492  0.39296  0.69562  1.0000
  C   C1046     1.0  0.93469  0.20044  0.62252  1.0000
  C   C1047     1.0  0.55085  0.33803  0.61600  1.0000
  C   C1048     1.0  0.82569  0.46327  0.50558  1.0000
  C   C1049     1.0  0.97006  0.13896  0.54419  1.0000
  Fe  Fe175     1.0  0.94151  0.33696  0.55597  1.0000
  C   C1050     1.0  0.61694  0.45352  0.61923  1.0000
  H   H1035     1.0  0.53432  0.19317  0.57792  1.0000
  H   H1036     1.0  0.82804  0.36952  0.50927  1.0000
  C   C1051     1.0  0.52171  0.32158  0.63100  1.0000
  H   H1037     1.0  0.81748  0.32668  0.48542  1.0000
  S   S344      1.0  0.98303  0.45893  0.68518  1.0000
  H   H1038     1.0  0.53282  0.14965  0.58979  1.0000
  H   H1039     1.0  0.98285  0.19311  0.63713  1.0000
  H   H1040     1.0  0.94490  0.34331  0.70530  1.0000
  H   H1041     1.0  0.57882  0.39192  0.50858  1.0000
  H   H1042     1.0  0.70885  0.44354  0.50074  1.0000
  H   H1043     1.0  0.49061  0.27208  0.67892  1.0000
  C   C1052     1.0  0.60975  0.48680  0.61981  1.0000
  N   N86       1.0  0.48898  0.17591  0.60452  1.0000
  S   S345      1.0  0.98388  0.36979  0.53172  1.0000
  H   H1044     1.0  0.86826  0.43289  0.68668  1.0000
  H   H1045     1.0  0.94832  0.23218  0.52011  1.0000
  C   C1053     1.0  0.51447  0.38909  0.47184  1.0000
  H   H1046     1.0  0.83283  0.14092  0.48658  1.0000
  S   S346      1.0  0.88873  0.19050  0.71401  1.0000
  S   S347      1.0  0.54243  0.47905  0.71322  1.0000
  H   H1047     1.0  0.97601  0.30034  0.67887  1.0000
  N   N87       1.0  0.86756  0.34506  0.48621  1.0000
  H   H1048     1.0  0.65942  0.46364  0.47858  1.0000
  N   N88       1.0  0.98551  0.19510  0.52514  1.0000
  H   H1049     1.0  0.96839  0.06713  0.68414  1.0000
  Fe  Fe176     1.0  0.90810  0.99495  0.51042  1.0000
  H   H1050     1.0  0.91004  0.29184  0.71036  1.0000
  H   H1051     1.0  0.61747  0.28967  0.71759  1.0000
  Fe  Fe177     1.0  0.72680  0.14178  0.86556  1.0000
  S   S348      1.0  0.72433  0.15704  0.82010  1.0000
  S   S349      1.0  0.76459  0.10542  0.88065  1.0000
  Fe  Fe178     1.0  0.66136  0.17505  0.88354  1.0000
  S   S350      1.0  0.65254  0.19154  0.83938  1.0000
  S   S351      1.0  0.62909  0.18929  0.92173  1.0000
  Fe  Fe179     1.0  0.66940  0.14114  0.83115  1.0000
  S   S352      1.0  0.65573  0.10934  0.79999  1.0000
  Fe  Fe180     1.0  0.70790  0.20582  0.83228  1.0000
  S   S353      1.0  0.72030  0.25559  0.80628  1.0000
  S   S354      1.0  0.67293  0.12320  0.87617  1.0000
  S   S355      1.0  0.71569  0.19208  0.87693  1.0000
  Fe  Fe181     1.0  0.84592  0.43402  0.85908  1.0000
  S   S356      1.0  0.88544  0.42227  0.82454  1.0000
  S   S357      1.0  0.85627  0.43357  0.90294  1.0000
  Fe  Fe182     1.0  0.79183  0.44248  0.82142  1.0000
  S   S358      1.0  0.82672  0.43096  0.78393  1.0000
  H   H1052     1.0  0.59300  0.47655  0.84636  1.0000
  Fe  Fe183     1.0  0.84448  0.39068  0.81436  1.0000
  S   S359      1.0  0.85332  0.33730  0.81044  1.0000
  Fe  Fe184     1.0  0.86339  0.46371  0.79867  1.0000
  S   S360      1.0  0.96765  0.23099  0.73875  1.0000
  S   S361      1.0  0.80645  0.39975  0.85075  1.0000
  H   H1053     1.0  0.95085  0.33340  0.80659  1.0000
  Fe  Fe185     1.0  0.62143  0.37038  0.94772  1.0000
  S   S362      1.0  0.62445  0.34444  0.90985  1.0000
  C   C1054     1.0  0.90323  0.39618  0.75360  1.0000
  C   C1055     1.0  0.69063  0.26699  0.74186  1.0000
  H   H1054     1.0  0.72822  0.04384  0.80435  1.0000
  C   C1056     1.0  0.58897  0.04522  0.78075  1.0000
  N   N89       1.0  0.72581  0.10116  0.95806  1.0000
  C   C1057     1.0  0.84649  0.27142  0.91185  1.0000
  H   H1055     1.0  0.58399  0.25139  0.86290  1.0000
  S   S363      1.0  0.60300  0.42222  0.94258  1.0000
  H   H1056     1.0  0.78870  0.17159  0.88262  1.0000
  C   C1058     1.0  0.94185  0.47036  0.88591  1.0000
  H   H1057     1.0  0.74361  0.41370  0.93090  1.0000
  H   H1058     1.0  0.55447  0.28989  0.88976  1.0000
  H   H1059     1.0  0.83150  0.19181  0.90850  1.0000
  C   C1059     1.0  0.68517  0.44488  0.89800  1.0000
  S   S364      1.0  0.63894  0.37098  0.74750  1.0000
  C   C1060     1.0  0.72154  0.46090  0.85397  1.0000
  H   H1060     1.0  0.84890  0.09244  0.94374  1.0000
  Fe  Fe186     1.0  0.64850  0.43376  0.96154  1.0000
  H   H1061     1.0  0.87768  0.35114  0.75019  1.0000
  C   C1061     1.0  0.77067  0.42123  0.92918  1.0000
  C   C1062     1.0  0.89646  0.27940  0.75472  1.0000
  H   H1062     1.0  0.72130  0.36335  0.82862  1.0000
  N   N90       1.0  0.85688  0.07563  0.85279  1.0000
  S   S365      1.0  0.91483  0.18373  0.78677  1.0000
  H   H1063     1.0  0.68521  0.06705  0.95891  1.0000
  H   H1064     1.0  0.71946  0.15099  0.94030  1.0000
  H   H1065     1.0  0.91179  0.10853  0.76276  1.0000
  H   H1066     1.0  0.63744  0.47321  0.83426  1.0000
  Fe  Fe187     1.0  0.60396  0.40948  0.73143  1.0000
  C   C1063     1.0  0.88759  0.28737  0.87055  1.0000
  S   S366      1.0  0.73726  0.45306  0.82044  1.0000
  S   S367      1.0  0.87238  0.15816  0.94693  1.0000
  C   C1064     1.0  0.61622  0.33612  0.76587  1.0000
  C   C1065     1.0  0.58348  0.32937  0.76091  1.0000
  C   C1066     1.0  0.56720  0.29933  0.77286  1.0000
  H   H1067     1.0  0.89395  0.09998  0.87031  1.0000
  H   H1068     1.0  0.65266  0.04098  0.87727  1.0000
  C   C1067     1.0  0.63185  0.31366  0.78407  1.0000
  C   C1068     1.0  0.68087  0.23482  0.75409  1.0000
  H   H1069     1.0  0.54210  0.29405  0.76873  1.0000
  S   S368      1.0  0.92932  0.30231  0.94093  1.0000
  C   C1069     1.0  0.85582  0.29106  0.88600  1.0000
  C   C1070     1.0  0.58365  0.27604  0.78970  1.0000
  N   N91       1.0  0.90091  0.24599  0.90711  1.0000
  S   S369      1.0  0.96785  0.15077  0.74045  1.0000
  C   C1071     1.0  0.97617  0.32513  0.80003  1.0000
  H   H1070     1.0  0.91855  0.29153  0.75955  1.0000
  C   C1072     1.0  0.83861  0.04723  0.85371  1.0000
  H   H1071     1.0  0.78704  0.39961  0.92676  1.0000
  C   C1073     1.0  0.88871  0.06242  0.75913  1.0000
  C   C1074     1.0  0.68335  0.01400  0.80559  1.0000
  C   C1075     1.0  0.91910  0.07125  0.79702  1.0000
  C   C1076     1.0  0.84498  0.24694  0.76996  1.0000
  N   N92       1.0  0.55254  0.23794  0.90253  1.0000
  C   C1077     1.0  0.90700  0.08325  0.77216  1.0000
  C   C1078     1.0  0.64150  0.01260  0.84578  1.0000
  C   C1079     1.0  0.62681  0.24189  0.73969  1.0000
  C   C1080     1.0  0.54665  0.26985  0.90654  1.0000
  C   C1081     1.0  0.87845  0.39823  0.91353  1.0000
  C   C1082     1.0  0.87512  0.38537  0.94185  1.0000
  C   C1083     1.0  0.89122  0.35614  0.95030  1.0000
  C   C1084     1.0  0.91136  0.34012  0.93056  1.0000
  C   C1085     1.0  0.91588  0.35371  0.90239  1.0000
  C   C1086     1.0  0.89916  0.38253  0.89391  1.0000
  H   H1072     1.0  0.85946  0.39751  0.95720  1.0000
  S   S370      1.0  0.61977  0.46254  0.72657  1.0000
  H   H1073     1.0  0.93144  0.34151  0.88703  1.0000
  H   H1074     1.0  0.90261  0.39250  0.87220  1.0000
  H   H1075     1.0  0.52862  0.11470  0.72410  1.0000
  H   H1076     1.0  0.65728  0.31869  0.78779  1.0000
  H   H1077     1.0  0.54792  0.18742  0.92072  1.0000
  H   H1078     1.0  0.84613  0.09747  0.81289  1.0000
  H   H1079     1.0  0.92669  0.45033  0.88174  1.0000
  C   C1087     1.0  0.69626  0.44026  0.87040  1.0000
  H   H1080     1.0  0.62533  0.17629  0.75276  1.0000
  H   H1081     1.0  0.65124  0.30078  0.87215  1.0000
  H   H1082     1.0  0.66646  0.42811  0.91068  1.0000
  H   H1083     1.0  0.68593  0.42009  0.86213  1.0000
  C   C1088     1.0  0.61817  0.08626  0.80065  1.0000
  C   C1089     1.0  0.58840  0.09010  0.81893  1.0000
  C   C1090     1.0  0.55882  0.07193  0.81771  1.0000
  C   C1091     1.0  0.55907  0.04931  0.79871  1.0000
  C   C1092     1.0  0.87314  0.26281  0.77627  1.0000
  C   C1093     1.0  0.61822  0.06390  0.78150  1.0000
  H   H1084     1.0  0.58798  0.10751  0.83357  1.0000
  H   H1085     1.0  0.53568  0.07554  0.83144  1.0000
  H   H1086     1.0  0.62176  0.19048  0.78627  1.0000
  H   H1087     1.0  0.64108  0.06098  0.76714  1.0000
  C   C1094     1.0  0.62962  0.23240  0.91956  1.0000
  C   C1095     1.0  0.64316  0.25185  0.89451  1.0000
  C   C1096     1.0  0.64154  0.28615  0.89193  1.0000
  C   C1097     1.0  0.62763  0.30140  0.91470  1.0000
  C   C1098     1.0  0.61486  0.28207  0.94013  1.0000
  C   C1099     1.0  0.61527  0.24753  0.94236  1.0000
  H   H1088     1.0  0.65427  0.24056  0.87677  1.0000
  C   C1100     1.0  0.66138  0.03378  0.85699  1.0000
  S   S371      1.0  0.86100  0.00325  0.75351  1.0000
  H   H1089     1.0  0.76379  0.48408  0.93621  1.0000
  C   C1101     1.0  0.75625  0.27847  0.80980  1.0000
  C   C1102     1.0  0.78117  0.26466  0.82493  1.0000
  C   C1103     1.0  0.81075  0.28299  0.82552  1.0000
  C   C1104     1.0  0.81511  0.31539  0.81154  1.0000
  C   C1105     1.0  0.78957  0.32956  0.79735  1.0000
  C   C1106     1.0  0.76047  0.31098  0.79614  1.0000
  H   H1090     1.0  0.77803  0.23960  0.83554  1.0000
  H   H1091     1.0  0.83037  0.27189  0.83658  1.0000
  H   H1092     1.0  0.79276  0.35450  0.78649  1.0000
  H   H1093     1.0  0.74130  0.32173  0.78432  1.0000
  C   C1107     1.0  0.79481  0.12058  0.89848  1.0000
  C   C1108     1.0  0.80181  0.15431  0.89592  1.0000
  C   C1109     1.0  0.82618  0.16572  0.91044  1.0000
  C   C1110     1.0  0.84388  0.01917  0.87238  1.0000
  H   H1094     1.0  0.61827  0.44692  0.86531  1.0000
  H   H1095     1.0  0.80696  0.07221  0.91739  1.0000
  C   C1111     1.0  0.89230  0.01805  0.79684  1.0000
  H   H1096     1.0  0.82994  0.99643  0.87270  1.0000
  C   C1112     1.0  0.90995  0.42908  0.74179  1.0000
  C   C1113     1.0  0.63892  0.18931  0.76634  1.0000
  C   C1114     1.0  0.53113  0.27715  0.93250  1.0000
  C   C1115     1.0  0.88161  0.02969  0.77125  1.0000
  S   S372      1.0  0.94419  0.09647  0.81252  1.0000
  H   H1097     1.0  0.52702  0.30250  0.93576  1.0000
  C   C1116     1.0  0.83618  0.10976  0.93023  1.0000
  H   H1098     1.0  0.58684  0.39258  0.82913  1.0000
  H   H1099     1.0  0.69840  0.21996  0.76523  1.0000
  H   H1100     1.0  0.92054  0.02926  0.82878  1.0000
  H   H1101     1.0  0.87190  0.99880  0.90495  1.0000
  Fe  Fe188     1.0  0.95673  0.22044  0.78559  1.0000
  N   N93       1.0  0.65240  0.00339  0.82020  1.0000
  N   N94       1.0  0.67087  0.37731  0.82246  1.0000
  C   C1117     1.0  0.68251  0.40192  0.80118  1.0000
  C   C1118     1.0  0.63693  0.37371  0.83237  1.0000
  C   C1119     1.0  0.66016  0.42464  0.79014  1.0000
  C   C1120     1.0  0.61376  0.39566  0.82146  1.0000
  C   C1121     1.0  0.62557  0.42143  0.80036  1.0000
  C   C1122     1.0  0.69459  0.35413  0.83446  1.0000
  H   H1102     1.0  0.70928  0.40437  0.79277  1.0000
  H   H1103     1.0  0.66962  0.44421  0.77340  1.0000
  H   H1104     1.0  0.82177  0.27381  0.92399  1.0000
  H   H1105     1.0  0.60793  0.43865  0.79170  1.0000
  H   H1106     1.0  0.69251  0.33001  0.82699  1.0000
  H   H1107     1.0  0.68893  0.35055  0.85768  1.0000
  C   C1123     1.0  0.90992  0.26456  0.88148  1.0000
  H   H1108     1.0  0.93457  0.26187  0.86936  1.0000
  H   H1109     1.0  0.89493  0.30207  0.85020  1.0000
  H   H1110     1.0  0.91832  0.21524  0.94103  1.0000
  H   H1111     1.0  0.92459  0.19981  0.90808  1.0000
  H   H1112     1.0  0.86190  0.23316  0.94205  1.0000
  C   C1124     1.0  0.92497  0.22242  0.91803  1.0000
  H   H1113     1.0  0.90366  0.05132  0.90411  1.0000
  S   S373      1.0  0.52140  0.02766  0.79678  1.0000
  S   S374      1.0  0.94817  0.26298  0.80971  1.0000
  C   C1125     1.0  0.88543  0.04984  0.88992  1.0000
  H   H1114     1.0  0.83845  0.30893  0.87774  1.0000
  C   C1126     1.0  0.84316  0.14347  0.92785  1.0000
  H   H1115     1.0  0.95211  0.00050  0.76114  1.0000
  S   S375      1.0  0.55418  0.41514  0.75806  1.0000
  H   H1116     1.0  0.58438  0.20891  0.87696  1.0000
  C   C1127     1.0  0.75941  0.14670  0.96543  1.0000
  C   C1128     1.0  0.86752  0.02051  0.89052  1.0000
  H   H1117     1.0  0.67476  0.31201  0.71930  1.0000
  Fe  Fe189     1.0  0.95562  0.14641  0.78691  1.0000
  H   H1118     1.0  0.87357  0.12153  0.82801  1.0000
  N   N95       1.0  0.77601  0.43581  0.95386  1.0000
  H   H1119     1.0  0.88024  0.07168  0.73950  1.0000
  C   C1129     1.0  0.66796  0.28665  0.72814  1.0000
  H   H1120     1.0  0.51992  0.19905  0.96695  1.0000
  C   C1130     1.0  0.61547  0.28370  0.79614  1.0000
  H   H1121     1.0  0.58146  0.48256  0.90110  1.0000
  H   H1122     1.0  0.71522  0.27688  0.74386  1.0000
  H   H1123     1.0  0.81866  0.23548  0.73731  1.0000
  H   H1124     1.0  0.95097  0.23336  0.91410  1.0000
  Fe  Fe190     1.0  0.56879  0.46882  0.75111  1.0000
  C   C1131     1.0  0.84040  0.24817  0.74205  1.0000
  C   C1132     1.0  0.63578  0.27410  0.72713  1.0000
  H   H1125     1.0  0.96698  0.44323  0.84287  1.0000
  Fe  Fe191     1.0  0.53089  0.22254  0.77188  1.0000
  H   H1126     1.0  0.54762  0.22547  0.86265  1.0000
  H   H1127     1.0  0.61742  0.00340  0.85773  1.0000
  C   C1133     1.0  0.77077  0.46865  0.95427  1.0000
  H   H1128     1.0  0.82689  0.23361  0.78654  1.0000
  C   C1134     1.0  0.56777  0.23059  0.87495  1.0000
  H   H1129     1.0  0.82020  0.04602  0.83966  1.0000
  H   H1130     1.0  0.87709  0.26219  0.79781  1.0000
  C   C1135     1.0  0.69855  0.47070  0.90902  1.0000
  C   C1136     1.0  0.69269  0.04528  0.84195  1.0000
  C   C1137     1.0  0.88332  0.37656  0.74109  1.0000
  H   H1131     1.0  0.70835  0.06181  0.85031  1.0000
  C   C1138     1.0  0.73330  0.13419  0.95353  1.0000
  H   H1132     1.0  0.62764  0.35379  0.84884  1.0000
  C   C1139     1.0  0.91139  0.03869  0.80950  1.0000
  H   H1133     1.0  0.60353  0.29367  0.95767  1.0000
  C   C1140     1.0  0.52133  0.25157  0.95433  1.0000
  H   H1134     1.0  0.62842  0.26573  0.80905  1.0000
  C   C1141     1.0  0.98021  0.46716  0.84217  1.0000
  S   S376      1.0  0.56664  0.23606  0.80008  1.0000
  H   H1135     1.0  0.60129  0.23272  0.73990  1.0000
  C   C1142     1.0  0.89141  0.27966  0.72702  1.0000
  H   H1136     1.0  0.77760  0.43911  0.90975  1.0000
  Fe  Fe192     1.0  0.92966  0.19033  0.74043  1.0000
  H   H1137     1.0  0.58943  0.02813  0.76587  1.0000
  C   C1143     1.0  0.86939  0.24863  0.92205  1.0000
  S   S377      1.0  0.53638  0.17577  0.75292  1.0000
  C   C1144     1.0  0.81227  0.09833  0.91539  1.0000
  H   H1138     1.0  0.76583  0.17280  0.96172  1.0000
  C   C1145     1.0  0.87974  0.07734  0.87082  1.0000
  C   C1146     1.0  0.54294  0.21269  0.92381  1.0000
  H   H1139     1.0  0.82887  0.11817  0.84197  1.0000
  H   H1140     1.0  0.69251  0.00555  0.78587  1.0000
  H   H1141     1.0  0.97415  0.48421  0.82382  1.0000
  H   H1142     1.0  0.57126  0.34666  0.74692  1.0000
  H   H1143     1.0  0.91319  0.38599  0.77241  1.0000
  H   H1144     1.0  0.67979  0.10719  0.94049  1.0000
  N   N96       1.0  0.64939  0.22260  0.75266  1.0000
  C   C1147     1.0  0.52728  0.21911  0.95003  1.0000
  C   C1148     1.0  0.85098  0.10469  0.83300  1.0000
  H   H1145     1.0  0.71018  0.07992  0.92503  1.0000
  H   H1146     1.0  0.60388  0.23261  0.96152  1.0000
  S   S378      1.0  0.68413  0.47613  0.94362  1.0000
  C   C1149     1.0  0.70385  0.03527  0.81613  1.0000
  H   H1147     1.0  0.90896  0.47557  0.92427  1.0000
  C   C1150     1.0  0.98190  0.29157  0.79963  1.0000
  H   H1148     1.0  0.92549  0.44423  0.75157  1.0000
  H   H1149     1.0  0.66105  0.17425  0.77102  1.0000
  S   S379      1.0  0.82680  0.47813  0.83397  1.0000
  C   C1151     1.0  0.95756  0.03172  0.72147  1.0000
  S   S380      1.0  0.52162  0.25364  0.73221  1.0000
  C   C1152     1.0  0.69892  0.08822  0.94497  1.0000
  S   S381      1.0  0.66930  0.38308  0.96318  1.0000
  H   H1150     1.0  0.51755  0.09369  0.75923  1.0000
  N   N97       1.0  0.97022  0.48180  0.86769  1.0000
  H   H1151     1.0  0.88696  0.99281  0.80636  1.0000
  C   C1153     1.0  0.96407  0.02259  0.74868  1.0000
  C   C1154     1.0  0.93161  0.48468  0.90999  1.0000
  C   C1155     1.0  0.52979  0.09077  0.73772  1.0000
  C   C1156     1.0  0.61811  0.47202  0.85332  1.0000
  H   H1152     1.0  0.55668  0.08458  0.73894  1.0000
  N   N98       1.0  0.51300  0.06494  0.72662  1.0000
  C   C1157     1.0  0.98582  0.04211  0.75968  1.0000
  N   N99       1.0  0.86367  0.26416  0.72098  1.0000
  C   C1158     1.0  0.73545  0.48650  0.86496  1.0000
  H   H1153     1.0  0.53409  0.01051  0.96810  1.0000
  S   S382      1.0  0.49335  0.57589  0.00203  1.0000
  S   S383      1.0  0.65689  0.81042  0.01637  1.0000
  Fe  Fe193     1.0  0.85308  0.72085  0.99678  1.0000
  S   S384      1.0  0.85889  0.75085  0.03070  1.0000
  C   C1159     1.0  0.77791  0.91126  0.14854  1.0000
  C   C1160     1.0  0.54235  0.49006  0.99441  1.0000
  C   C1161     1.0  0.49773  0.72088  0.04349  1.0000
  Fe  Fe194     1.0  0.91317  0.75603  0.00980  1.0000
  S   S385      1.0  0.95552  0.75003  0.03590  1.0000
  Fe  Fe195     1.0  0.84843  0.79402  0.99948  1.0000
  S   S386      1.0  0.81430  0.83722  0.00583  1.0000
  S   S387      1.0  0.57356  0.83278  0.98557  1.0000
  H   H1154     1.0  0.64709  0.73813  0.03483  1.0000
  Fe  Fe196     1.0  0.89049  0.54250  0.01647  1.0000
  Fe  Fe197     1.0  0.83361  0.50174  0.05352  1.0000
  Fe  Fe198     1.0  0.85174  0.56943  0.06657  1.0000
  S   S388      1.0  0.80287  0.54514  0.06252  1.0000
  S   S389      1.0  0.86057  0.59241  0.10423  1.0000
  H   H1155     1.0  0.78496  0.92729  0.10409  1.0000
  H   H1156     1.0  0.48897  0.63869  0.04190  1.0000
  Fe  Fe199     1.0  0.81674  0.56226  0.01657  1.0000
  S   S390      1.0  0.76954  0.57424  0.99762  1.0000
  S   S391      1.0  0.88148  0.52362  0.06226  1.0000
  S   S392      1.0  0.86371  0.59033  0.02097  1.0000
  H   H1157     1.0  0.95329  0.85832  0.20593  1.0000
  Fe  Fe200     1.0  0.58949  0.62018  0.09648  1.0000
  S   S393      1.0  0.60030  0.66368  0.11681  1.0000
  S   S394      1.0  0.90773  0.72342  0.97769  1.0000
  Fe  Fe201     1.0  0.64966  0.58166  0.11782  1.0000
  S   S395      1.0  0.66485  0.62365  0.13788  1.0000
  S   S396      1.0  0.68250  0.53670  0.12374  1.0000
  Fe  Fe202     1.0  0.60955  0.62668  0.15295  1.0000
  S   S397      1.0  0.59215  0.62790  0.19835  1.0000
  Fe  Fe203     1.0  0.65425  0.65536  0.09941  1.0000
  S   S398      1.0  0.68700  0.69882  0.07945  1.0000
  S   S399      1.0  0.59416  0.58312  0.13462  1.0000
  S   S400      1.0  0.64362  0.61348  0.07723  1.0000
  S   S401      1.0  0.94142  0.53732  0.99009  1.0000
  Fe  Fe204     1.0  0.78474  0.73106  0.18060  1.0000
  H   H1158     1.0  0.60283  0.76682  0.01021  1.0000
  S   S402      1.0  0.78866  0.72231  0.13580  1.0000
  H   H1159     1.0  0.76220  0.84010  0.06298  1.0000
  S   S403      1.0  0.54633  0.62207  0.07064  1.0000
  S   S404      1.0  0.74060  0.75855  0.19985  1.0000
  H   H1160     1.0  0.73483  0.96342  0.10652  1.0000
  C   C1162     1.0  0.75123  0.63473  0.17150  1.0000
  H   H1161     1.0  0.50838  0.79432  0.97699  1.0000
  H   H1162     1.0  0.97538  0.59677  0.07546  1.0000
  C   C1163     1.0  0.49850  0.93814  0.00300  1.0000
  H   H1163     1.0  0.77019  0.50898  0.97818  1.0000
  C   C1164     1.0  0.94453  0.97614  0.08562  1.0000
  H   H1164     1.0  0.89126  0.81002  0.19864  1.0000
  C   C1165     1.0  0.72229  0.95180  0.15144  1.0000
  C   C1166     1.0  0.64940  0.66482  0.19948  1.0000
  H   H1165     1.0  0.69482  0.56183  0.21696  1.0000
  C   C1167     1.0  0.54090  0.68981  0.06587  1.0000
  H   H1166     1.0  0.93424  0.57750  0.07628  1.0000
  H   H1167     1.0  0.65094  0.67106  0.17710  1.0000
  H   H1168     1.0  0.97480  0.94673  0.99665  1.0000
  C   C1168     1.0  0.70096  0.53242  0.15482  1.0000
  H   H1169     1.0  0.84608  0.93793  0.03362  1.0000
  H   H1170     1.0  0.71595  0.63747  0.06391  1.0000
  C   C1169     1.0  0.76953  0.92902  0.12405  1.0000
  C   C1170     1.0  0.78650  0.67808  0.02660  1.0000
  C   C1171     1.0  0.85417  0.95619  0.09814  1.0000
  C   C1172     1.0  0.73319  0.65768  0.05474  1.0000
  C   C1173     1.0  0.72474  0.68988  0.05891  1.0000
  C   C1174     1.0  0.74685  0.71591  0.04652  1.0000
  C   C1175     1.0  0.77766  0.70998  0.03062  1.0000
  C   C1176     1.0  0.68400  0.80589  0.08681  1.0000
  C   C1177     1.0  0.62348  0.64356  0.21468  1.0000
  H   H1171     1.0  0.74021  0.74076  0.04926  1.0000
  H   H1172     1.0  0.79475  0.73012  0.02146  1.0000
  C   C1178     1.0  0.81034  0.68721  0.12655  1.0000
  C   C1179     1.0  0.80852  0.67764  0.10042  1.0000
  C   C1180     1.0  0.82423  0.64885  0.09307  1.0000
  C   C1181     1.0  0.84174  0.62944  0.11192  1.0000
  C   C1182     1.0  0.84436  0.63952  0.13773  1.0000
  C   C1183     1.0  0.82870  0.66830  0.14506  1.0000
  H   H1173     1.0  0.79451  0.69224  0.08597  1.0000
  H   H1174     1.0  0.82277  0.64172  0.07283  1.0000
  H   H1175     1.0  0.85815  0.62474  0.15232  1.0000
  H   H1176     1.0  0.83061  0.67565  0.16512  1.0000
  H   H1177     1.0  0.70089  0.96816  0.15234  1.0000
  Fe  Fe205     1.0  0.85948  0.96798  0.16471  1.0000
  Fe  Fe206     1.0  0.62552  0.84679  0.99306  1.0000
  H   H1178     1.0  0.91865  0.68242  0.11649  1.0000
  C   C1184     1.0  0.74140  0.94925  0.12542  1.0000
  H   H1179     1.0  0.77089  0.62699  0.03508  1.0000
  C   C1185     1.0  0.78829  0.78256  0.08063  1.0000
  C   C1186     1.0  0.72823  0.76791  0.09672  1.0000
  H   H1180     1.0  0.60438  0.51643  0.17368  1.0000
  S   S405      1.0  0.82545  0.67220  0.00638  1.0000
  C   C1187     1.0  0.63181  0.69013  0.02774  1.0000
  H   H1181     1.0  0.88359  0.68309  0.03762  1.0000
  C   C1188     1.0  0.74236  0.50704  0.18303  1.0000
  C   C1189     1.0  0.61178  0.51620  0.19416  1.0000
  S   S406      1.0  0.84144  0.50799  0.20379  1.0000
  S   S407      1.0  0.90127  0.97367  0.18972  1.0000
  H   H1182     1.0  0.95896  0.59592  0.04358  1.0000
  H   H1183     1.0  0.56307  0.68974  0.07597  1.0000
  H   H1184     1.0  0.58193  0.55814  0.20348  1.0000
  H   H1185     1.0  0.68458  0.51361  0.99143  1.0000
  C   C1190     1.0  0.71206  0.93875  0.20275  1.0000
  C   C1191     1.0  0.60479  0.74033  0.01184  1.0000
  C   C1192     1.0  0.62961  0.72423  0.02568  1.0000
  C   C1193     1.0  0.85300  0.93738  0.07661  1.0000
  C   C1194     1.0  0.70075  0.81895  0.00873  1.0000
  C   C1195     1.0  0.71358  0.85118  0.00571  1.0000
  C   C1196     1.0  0.74864  0.85684  0.00427  1.0000
  C   C1197     1.0  0.77099  0.83046  0.00461  1.0000
  C   C1198     1.0  0.75825  0.79867  0.00559  1.0000
  C   C1199     1.0  0.72320  0.79281  0.00817  1.0000
  H   H1186     1.0  0.69634  0.87152  0.00610  1.0000
  H   H1187     1.0  0.75831  0.88157  0.00357  1.0000
  H   H1188     1.0  0.77535  0.77847  0.00544  1.0000
  H   H1189     1.0  0.71337  0.76790  0.01024  1.0000
  H   H1190     1.0  0.73501  0.64539  0.13134  1.0000
  H   H1191     1.0  0.79862  0.78650  0.09977  1.0000
  C   C1200     1.0  0.72744  0.51037  0.15843  1.0000
  H   H1192     1.0  0.73671  0.49597  0.14218  1.0000
  N   N100      1.0  0.75232  0.79085  0.08338  1.0000
  H   H1193     1.0  0.66824  0.56686  0.17434  1.0000
  C   C1201     1.0  0.76417  0.65177  0.03842  1.0000
  C   C1202     1.0  0.70876  0.82969  0.07461  1.0000
  C   C1203     1.0  0.49920  0.66126  0.04658  1.0000
  H   H1194     1.0  0.74020  0.65669  0.17868  1.0000
  S   S408      1.0  0.90367  0.80282  0.98239  1.0000
  C   C1204     1.0  0.52615  0.71989  0.05729  1.0000
  H   H1195     1.0  0.75489  0.56502  0.10871  1.0000
  C   C1205     1.0  0.53551  0.52353  0.99549  1.0000
  H   H1196     1.0  0.76495  0.90047  0.19310  1.0000
  C   C1206     1.0  0.97875  0.71346  0.03647  1.0000
  C   C1207     1.0  0.52324  0.96057  0.98795  1.0000
  C   C1208     1.0  0.84067  0.98616  0.04583  1.0000
  S   S409      1.0  0.50892  0.89705  0.01325  1.0000
  S   S410      1.0  0.82357  0.75917  0.19717  1.0000
  C   C1209     1.0  0.52751  0.66027  0.06070  1.0000
  H   H1197     1.0  0.70141  0.85372  0.06536  1.0000
  H   H1198     1.0  0.69131  0.69703  0.20195  1.0000
  H   H1199     1.0  0.88594  0.70892  0.08031  1.0000
  H   H1200     1.0  0.80332  0.79762  0.06215  1.0000
  S   S411      1.0  0.61051  0.89671  0.00342  1.0000
  H   H1201     1.0  0.73548  0.74342  0.10504  1.0000
  H   H1202     1.0  0.79998  0.89571  0.14777  1.0000
  H   H1203     1.0  0.69371  0.95909  0.20123  1.0000
  N   N101      1.0  0.58457  0.68851  0.00270  1.0000
  C   C1210     1.0  0.60889  0.67251  0.01617  1.0000
  C   C1211     1.0  0.58252  0.72203  0.00020  1.0000
  H   H1204     1.0  0.96811  0.70210  0.99703  1.0000
  C   C1212     1.0  0.59939  0.53975  0.21076  1.0000
  H   H1205     1.0  0.61037  0.64592  0.01831  1.0000
  H   H1206     1.0  0.56337  0.73480  0.98943  1.0000
  C   C1213     1.0  0.84583  0.95229  0.05053  1.0000
  S   S412      1.0  0.82124  0.94819  0.20174  1.0000
  H   H1207     1.0  0.98153  0.96329  0.05224  1.0000
  H   H1208     1.0  0.77198  0.61804  0.20923  1.0000
  C   C1214     1.0  0.73066  0.52562  0.20423  1.0000
  C   C1215     1.0  0.89984  0.68675  0.07717  1.0000
  C   C1216     1.0  0.70111  0.52739  0.02822  1.0000
  C   C1217     1.0  0.68939  0.55078  0.17616  1.0000
  S   S413      1.0  0.86564  0.93752  0.12983  1.0000
  H   H1209     1.0  0.49356  0.84887  0.97971  1.0000
  H   H1210     1.0  0.79175  0.75636  0.07772  1.0000
  C   C1218     1.0  0.74305  0.82176  0.07318  1.0000
  N   N102      1.0  0.76095  0.59994  0.13583  1.0000
  C   C1219     1.0  0.78007  0.57966  0.15173  1.0000
  C   C1220     1.0  0.78445  0.58599  0.17831  1.0000
  C   C1221     1.0  0.76929  0.61331  0.18845  1.0000
  C   C1222     1.0  0.75499  0.59202  0.10871  1.0000
  H   H1211     1.0  0.79187  0.55830  0.14400  1.0000
  H   H1212     1.0  0.69894  0.55363  0.02175  1.0000
  C   C1223     1.0  0.50193  0.53401  0.00054  1.0000
  H   H1213     1.0  0.77488  0.60374  0.09191  1.0000
  H   H1214     1.0  0.53731  0.68223  0.98851  1.0000
  N   N103      1.0  0.93478  0.62946  0.06944  1.0000
  C   C1224     1.0  0.93541  0.64284  0.09339  1.0000
  C   C1225     1.0  0.91662  0.64383  0.04950  1.0000
  C   C1226     1.0  0.91829  0.67188  0.09747  1.0000
  C   C1227     1.0  0.89871  0.67247  0.05314  1.0000
  H   H1215     1.0  0.55597  0.64491  0.00181  1.0000
  C   C1228     1.0  0.95166  0.59830  0.06604  1.0000
  H   H1216     1.0  0.67476  0.75615  0.10786  1.0000
  H   H1217     1.0  0.91579  0.63314  0.03067  1.0000
  C   C1229     1.0  0.63444  0.49284  0.20388  1.0000
  H   H1218     1.0  0.71898  0.53356  0.06643  1.0000
  Fe  Fe207     1.0  0.56024  0.88478  0.99125  1.0000
  C   C1230     1.0  0.96367  0.50146  0.00003  1.0000
  H   H1219     1.0  0.53703  0.74256  0.06122  1.0000
  C   C1231     1.0  0.70415  0.54744  0.20067  1.0000
  C   C1232     1.0  0.74796  0.62799  0.14483  1.0000
  H   H1220     1.0  0.79901  0.56947  0.19109  1.0000
  H   H1221     1.0  0.94894  0.63091  0.10956  1.0000
  H   H1222     1.0  0.72966  0.94500  0.21691  1.0000
  C   C1233     1.0  0.69374  0.77498  0.09841  1.0000
  N   N104      1.0  0.73123  0.93493  0.17543  1.0000
  H   H1223     1.0  0.76281  0.49005  0.18561  1.0000
  H   H1224     1.0  0.65733  0.81120  0.08685  1.0000
  H   H1225     1.0  0.72977  0.60053  0.10406  1.0000
  C   C1234     1.0  0.71270  0.51590  0.05340  1.0000
  S   S414      1.0  0.84473  0.51697  0.00742  1.0000
  C   C1235     1.0  0.56192  0.66978  0.98950  1.0000
  C   C1236     1.0  0.97284  0.98212  0.06491  1.0000
  C   C1237     1.0  0.75816  0.91428  0.17416  1.0000
  C   C1238     1.0  0.67213  0.67967  0.21355  1.0000
  H   H1226     1.0  0.91268  0.90314  0.21314  1.0000
  H   H1227     1.0  0.85834  0.91140  0.07988  1.0000
  H   H1228     1.0  0.55621  0.54129  0.99251  1.0000
  C   C1239     1.0  0.69314  0.50497  0.01122  1.0000
  H   H1229     1.0  0.69800  0.91553  0.21228  1.0000
  C   C1240     1.0  0.98089  0.69451  0.01472  1.0000
  H   H1230     1.0  0.65113  0.67750  0.03835  1.0000
  H   H1231     1.0  0.76284  0.70797  0.97304  1.0000
  H   H1232     1.0  0.93095  0.95265  0.08920  1.0000
  H   H1233     1.0  0.82884  0.49115  0.10920  1.0000
  H   H1234     1.0  0.49121  0.95825  0.06609  1.0000
  S   S415      1.0  0.77993  0.68884  0.21554  1.0000
  H   H1235     1.0  0.54912  0.95293  0.98301  1.0000
  H   H1236     1.0  0.74910  0.48750  0.09118  1.0000
  H   H1237     1.0  0.55408  0.78989  0.44356  1.0000
  Fe  Fe208     1.0  0.50386  0.75360  0.36436  1.0000
  C   C1241     1.0  0.96284  0.50140  0.36742  1.0000
  C   C1242     1.0  0.61073  0.60859  0.40807  1.0000
  H   H1238     1.0  0.53856  0.61739  0.37906  1.0000
  S   S416      1.0  0.87507  0.92280  0.26387  1.0000
  Fe  Fe209     1.0  0.87129  0.51376  0.23832  1.0000
  C   C1243     1.0  0.93223  0.48837  0.29708  1.0000
  H   H1239     1.0  0.97942  0.53105  0.22463  1.0000
  C   C1244     1.0  0.63242  0.51599  0.24580  1.0000
  C   C1245     1.0  0.50072  0.97180  0.45567  1.0000
  S   S417      1.0  0.77487  0.74459  0.25799  1.0000
  C   C1246     1.0  0.75040  0.64537  0.29476  1.0000
  C   C1247     1.0  0.62157  0.85886  0.40688  1.0000
  S   S418      1.0  0.85907  0.69616  0.25436  1.0000
  H   H1240     1.0  0.67456  0.58913  0.28177  1.0000
  C   C1248     1.0  0.82720  0.84745  0.27409  1.0000
  C   C1249     1.0  0.53358  0.95950  0.45085  1.0000
  C   C1250     1.0  0.69613  0.57382  0.28755  1.0000
  S   S419      1.0  0.97916  0.80789  0.24370  1.0000
  C   C1251     1.0  0.78281  0.63262  0.28987  1.0000
  Fe  Fe210     1.0  0.69677  0.50005  0.34899  1.0000
  N   N105      1.0  0.59770  0.84298  0.36839  1.0000
  C   C1252     1.0  0.62533  0.82423  0.36198  1.0000
  S   S420      1.0  0.66726  0.74568  0.42043  1.0000
  H   H1241     1.0  0.62993  0.62593  0.33455  1.0000
  S   S421      1.0  0.66313  0.94265  0.35362  1.0000
  H   H1242     1.0  0.76170  0.55552  0.46510  1.0000
  S   S422      1.0  0.64474  0.51235  0.36800  1.0000
  S   S423      1.0  0.58712  0.52281  0.31180  1.0000
  H   H1243     1.0  0.93815  0.60586  0.26132  1.0000
  H   H1244     1.0  0.83706  0.85585  0.29201  1.0000
  S   S424      1.0  0.64697  0.88296  0.29991  1.0000
  S   S425      1.0  0.68653  0.58430  0.46766  1.0000
  H   H1245     1.0  0.75629  0.61603  0.45598  1.0000
  H   H1246     1.0  0.85301  0.79458  0.30055  1.0000
  S   S426      1.0  0.73417  0.54091  0.34940  1.0000
  Fe  Fe211     1.0  0.98753  0.75624  0.34319  1.0000
  N   N106      1.0  0.55902  0.57143  0.39446  1.0000
  H   H1247     1.0  0.74703  0.67056  0.29874  1.0000
  C   C1253     1.0  0.71252  0.89191  0.27073  1.0000
  H   H1248     1.0  0.70814  0.50532  0.40279  1.0000
  Fe  Fe212     1.0  0.64001  0.93171  0.31663  1.0000
  H   H1249     1.0  0.63094  0.56202  0.42352  1.0000
  C   C1254     1.0  0.59591  0.86075  0.39014  1.0000
  Fe  Fe213     1.0  0.53247  0.70314  0.32831  1.0000
  S   S427      1.0  0.92691  0.52551  0.37268  1.0000
  S   S428      1.0  0.58076  0.67445  0.32391  1.0000
  Fe  Fe214     1.0  0.81579  0.71835  0.23363  1.0000
  H   H1250     1.0  0.53336  0.75438  0.23849  1.0000
  C   C1255     1.0  0.94254  0.86180  0.22693  1.0000
  S   S429      1.0  0.51844  0.78016  0.39811  1.0000
  S   S430      1.0  0.96417  0.73651  0.30999  1.0000
  S   S431      1.0  0.53535  0.75845  0.32198  1.0000
  C   C1256     1.0  0.90399  0.67359  0.43451  1.0000
  C   C1257     1.0  0.62101  0.63637  0.24371  1.0000
  C   C1258     1.0  0.93599  0.73036  0.40237  1.0000
  C   C1259     1.0  0.90820  0.73303  0.42296  1.0000
  H   H1251     1.0  0.55377  0.80896  0.24503  1.0000
  H   H1252     1.0  0.68980  0.52265  0.44853  1.0000
  H   H1253     1.0  0.64055  0.64693  0.28012  1.0000
  C   C1260     1.0  0.58431  0.56462  0.31643  1.0000
  C   C1261     1.0  0.61073  0.58036  0.32550  1.0000
  C   C1262     1.0  0.60898  0.61386  0.32805  1.0000
  C   C1263     1.0  0.58060  0.63199  0.32186  1.0000
  C   C1264     1.0  0.55359  0.61619  0.31353  1.0000
  C   C1265     1.0  0.55564  0.58261  0.31054  1.0000
  S   S432      1.0  0.91039  0.55260  0.24020  1.0000
  S   S433      1.0  0.58952  0.94062  0.41772  1.0000
  H   H1254     1.0  0.53156  0.62996  0.30870  1.0000
  H   H1255     1.0  0.53505  0.57062  0.30349  1.0000
  C   C1266     1.0  0.96692  0.94750  0.36315  1.0000
  H   H1256     1.0  0.63292  0.56700  0.32998  1.0000
  H   H1257     1.0  0.85206  0.84924  0.21984  1.0000
  C   C1267     1.0  0.53218  0.55151  0.38706  1.0000
  C   C1268     1.0  0.60970  0.53967  0.23676  1.0000
  H   H1258     1.0  0.97885  0.59161  0.22098  1.0000
  C   C1269     1.0  0.58450  0.62413  0.39564  1.0000
  H   H1259     1.0  0.61213  0.77520  0.45303  1.0000
  S   S434      1.0  0.95211  0.57769  0.42358  1.0000
  C   C1270     1.0  0.78649  0.60010  0.28493  1.0000
  C   C1271     1.0  0.62447  0.75138  0.41650  1.0000
  C   C1272     1.0  0.60298  0.76787  0.43505  1.0000
  C   C1273     1.0  0.57024  0.77637  0.42956  1.0000
  C   C1274     1.0  0.55864  0.76774  0.40586  1.0000
  C   C1275     1.0  0.57974  0.75021  0.38792  1.0000
  C   C1276     1.0  0.61273  0.74249  0.39300  1.0000
  H   H1260     1.0  0.84229  0.51355  0.33458  1.0000
  H   H1261     1.0  0.97556  0.83184  0.38815  1.0000
  H   H1262     1.0  0.57104  0.74318  0.36971  1.0000
  H   H1263     1.0  0.62932  0.72996  0.37848  1.0000
  H   H1264     1.0  0.58463  0.65076  0.39036  1.0000
  C   C1277     1.0  0.94803  0.69923  0.39794  1.0000
  H   H1265     1.0  0.84974  0.58654  0.22534  1.0000
  C   C1278     1.0  0.70141  0.57395  0.43442  1.0000
  C   C1279     1.0  0.69964  0.54086  0.43106  1.0000
  C   C1280     1.0  0.71011  0.53100  0.40505  1.0000
  C   C1281     1.0  0.72325  0.55406  0.38214  1.0000
  C   C1282     1.0  0.72591  0.58731  0.38542  1.0000
  C   C1283     1.0  0.71464  0.59736  0.41159  1.0000
  H   H1266     1.0  0.62708  0.81070  0.34440  1.0000
  S   S435      1.0  0.50426  0.69868  0.37170  1.0000
  H   H1267     1.0  0.73581  0.60531  0.36764  1.0000
  H   H1268     1.0  0.71603  0.62305  0.41402  1.0000
  H   H1269     1.0  0.88609  0.58411  0.37591  1.0000
  H   H1270     1.0  0.93128  0.66708  0.32032  1.0000
  H   H1271     1.0  0.54659  0.85357  0.36217  1.0000
  H   H1272     1.0  0.91577  0.57962  0.32744  1.0000
  H   H1273     1.0  0.96946  0.69700  0.38201  1.0000
  H   H1274     1.0  0.66902  0.83648  0.41421  1.0000
  H   H1275     1.0  0.94143  0.64690  0.41065  1.0000
  H   H1276     1.0  0.89733  0.70455  0.34833  1.0000
  C   C1284     1.0  0.74190  0.84944  0.24664  1.0000
  C   C1285     1.0  0.71408  0.82809  0.25655  1.0000
  C   C1286     1.0  0.68551  0.83870  0.27319  1.0000
  C   C1287     1.0  0.68442  0.87068  0.28015  1.0000
  H   H1277     1.0  0.54338  0.53105  0.37633  1.0000
  H   H1278     1.0  0.85510  0.50017  0.36814  1.0000
  C   C1288     1.0  0.90518  0.89185  0.25803  1.0000
  C   C1289     1.0  0.94148  0.96745  0.37441  1.0000
  H   H1279     1.0  0.57840  0.86139  0.33126  1.0000
  C   C1290     1.0  0.95129  0.84051  0.24981  1.0000
  C   C1291     1.0  0.93709  0.84516  0.27688  1.0000
  C   C1292     1.0  0.91415  0.87073  0.28094  1.0000
  H   H1280     1.0  0.68851  0.55915  0.30845  1.0000
  C   C1293     1.0  0.65143  0.82179  0.37827  1.0000
  H   H1281     1.0  0.94358  0.82890  0.29469  1.0000
  H   H1282     1.0  0.90318  0.87404  0.30194  1.0000
  C   C1294     1.0  0.93088  0.60133  0.33007  1.0000
  C   C1295     1.0  0.55852  0.60506  0.38915  1.0000
  C   C1296     1.0  0.72211  0.62549  0.29427  1.0000
  C   C1297     1.0  0.54762  0.95388  0.42402  1.0000
  H   H1283     1.0  0.60002  0.55779  0.24990  1.0000
  H   H1284     1.0  0.71203  0.91652  0.27617  1.0000
  C   C1298     1.0  0.89514  0.59232  0.24327  1.0000
  Fe  Fe215     1.0  0.86195  0.95761  0.22684  1.0000
  C   C1299     1.0  0.88330  0.77533  0.26670  1.0000
  C   C1300     1.0  0.87262  0.65637  0.24899  1.0000
  C   C1301     1.0  0.90302  0.64549  0.25785  1.0000
  C   C1302     1.0  0.91443  0.61381  0.25468  1.0000
  H   H1285     1.0  0.89179  0.75438  0.27988  1.0000
  H   H1286     1.0  0.81145  0.58956  0.28185  1.0000
  H   H1287     1.0  0.91802  0.66178  0.26695  1.0000
  C   C1303     1.0  0.74120  0.88128  0.25402  1.0000
  C   C1304     1.0  0.49519  0.97110  0.40720  1.0000
  H   H1288     1.0  0.83016  0.64323  0.22999  1.0000
  Fe  Fe216     1.0  0.92121  0.53482  0.41720  1.0000
  C   C1305     1.0  0.66854  0.67340  0.24274  1.0000
  C   C1306     1.0  0.75765  0.58110  0.28419  1.0000
  C   C1307     1.0  0.88290  0.80641  0.22101  1.0000
  H   H1289     1.0  0.94649  0.97267  0.26763  1.0000
  H   H1290     1.0  0.69697  0.63542  0.29854  1.0000
  S   S436      1.0  0.58645  0.93823  0.33714  1.0000
  S   S437      1.0  0.87300  0.54980  0.44159  1.0000
  H   H1291     1.0  0.61981  0.87270  0.42430  1.0000
  C   C1308     1.0  0.64930  0.83893  0.40104  1.0000
  C   C1309     1.0  0.85353  0.63511  0.23702  1.0000
  S   S438      1.0  0.95472  0.76626  0.38208  1.0000
  H   H1292     1.0  0.88996  0.52055  0.29983  1.0000
  H   H1293     1.0  0.60089  0.62021  0.25559  1.0000
  Fe  Fe217     1.0  0.61009  0.95332  0.37210  1.0000
  H   H1294     1.0  0.96085  0.92982  0.35016  1.0000
  H   H1295     1.0  0.57454  0.87642  0.39479  1.0000
  S   S439      1.0  0.93633  0.50041  0.45310  1.0000
  Fe  Fe218     1.0  0.79773  0.49644  0.23853  1.0000
  H   H1296     1.0  0.85690  0.68133  0.39037  1.0000
  H   H1297     1.0  0.94462  0.50188  0.27749  1.0000
  H   H1298     1.0  0.95234  0.59281  0.34117  1.0000
  C   C1310     1.0  0.89202  0.70471  0.43878  1.0000
  H   H1299     1.0  0.66410  0.82203  0.28070  1.0000
  N   N107      1.0  0.72605  0.59416  0.28818  1.0000
  Fe  Fe219     1.0  0.90533  0.58985  0.45130  1.0000
  C   C1311     1.0  0.56842  0.78732  0.25042  1.0000
  H   H1300     1.0  0.89879  0.75703  0.42642  1.0000
  N   N108      1.0  0.57422  0.72865  0.25476  1.0000
  C   C1312     1.0  0.60387  0.73114  0.26527  1.0000
  C   C1313     1.0  0.55677  0.75627  0.24699  1.0000
  C   C1314     1.0  0.61654  0.76177  0.26865  1.0000
  H   H1301     1.0  0.87010  0.70698  0.45432  1.0000
  C   C1315     1.0  0.59856  0.79005  0.26129  1.0000
  C   C1316     1.0  0.56197  0.69645  0.25043  1.0000
  H   H1302     1.0  0.61769  0.70933  0.27158  1.0000
  H   H1303     1.0  0.64018  0.51607  0.26608  1.0000
  H   H1304     1.0  0.64005  0.76328  0.27711  1.0000
  S   S440      1.0  0.74788  0.52203  0.23568  1.0000
  H   H1305     1.0  0.60780  0.81397  0.26416  1.0000
  Fe  Fe220     1.0  0.77883  0.78287  0.21999  1.0000
  H   H1306     1.0  0.91131  0.76222  0.22887  1.0000
  H   H1307     1.0  0.80179  0.83552  0.28116  1.0000
  C   C1317     1.0  0.93226  0.67082  0.41426  1.0000
  H   H1308     1.0  0.94154  0.61380  0.30888  1.0000
  H   H1309     1.0  0.98467  0.53077  0.32871  1.0000
  C   C1318     1.0  0.86457  0.60293  0.23447  1.0000
  N   N109      1.0  0.85058  0.82434  0.26145  1.0000
  H   H1310     1.0  0.80498  0.64786  0.29006  1.0000
  C   C1319     1.0  0.61056  0.57434  0.41402  1.0000
  H   H1311     1.0  0.67272  0.80594  0.37375  1.0000
  H   H1312     1.0  0.76057  0.55563  0.28096  1.0000
  Fe  Fe221     1.0  0.73969  0.71872  0.23628  1.0000
  C   C1320     1.0  0.58423  0.55604  0.40719  1.0000
  C   C1321     1.0  0.52847  0.95999  0.40217  1.0000
  C   C1322     1.0  0.64346  0.65133  0.25763  1.0000
  C   C1323     1.0  0.86082  0.82856  0.23316  1.0000
  C   C1324     1.0  0.57050  0.84467  0.35118  1.0000
  H   H1313     1.0  0.71442  0.80345  0.25118  1.0000
  H   H1314     1.0  0.85152  0.62084  0.40427  1.0000
  S   S441      1.0  0.82709  0.50546  0.27274  1.0000
  S   S442      1.0  0.69276  0.69483  0.26157  1.0000
  N   N110      1.0  0.90984  0.62344  0.34602  1.0000
  C   C1325     1.0  0.88804  0.61049  0.36939  1.0000
  C   C1326     1.0  0.91329  0.65679  0.33839  1.0000
  C   C1327     1.0  0.86828  0.63108  0.38540  1.0000
  C   C1328     1.0  0.89401  0.67811  0.35400  1.0000
  C   C1329     1.0  0.87125  0.66508  0.37756  1.0000
  H   H1315     1.0  0.49748  0.88754  0.44995  1.0000
  C   C1330     1.0  0.91956  0.88732  0.23099  1.0000
  H   H1316     1.0  0.70169  0.55674  0.27191  1.0000
  H   H1317     1.0  0.82414  0.86982  0.25897  1.0000
  H   H1318     1.0  0.67932  0.95479  0.45428  1.0000
  H   H1319     1.0  0.63130  0.62302  0.41292  1.0000
  H   H1320     1.0  0.56462  0.81979  0.34653  1.0000
  H   H1321     1.0  0.76284  0.89779  0.24678  1.0000
  H   H1322     1.0  0.53905  0.95592  0.38137  1.0000
  H   H1323     1.0  0.62210  0.97034  0.46675  1.0000
  H   H1324     1.0  0.58434  0.52940  0.41173  1.0000
  Fe  Fe222     1.0  0.67374  0.70948  0.45824  1.0000
  C   C1331     1.0  0.86134  0.79803  0.27818  1.0000
  N   N111      1.0  0.64475  0.49319  0.22929  1.0000
  S   S443      1.0  0.64523  0.98390  0.29397  1.0000
  H   H1325     1.0  0.53389  0.69551  0.25219  1.0000
  H   H1326     1.0  0.62241  0.50702  0.46765  1.0000
  S   S444      1.0  0.88122  0.63882  0.45324  1.0000
  H   H1327     1.0  0.57324  0.69107  0.22943  1.0000
  S   S445      1.0  0.77734  0.83710  0.22447  1.0000
  C   C1332     1.0  0.89417  0.77965  0.23795  1.0000
  S   S446      1.0  0.72022  0.67872  0.46007  1.0000
  H   H1328     1.0  0.51719  0.56617  0.37241  1.0000
  C   C1333     1.0  0.85234  0.49255  0.34770  1.0000
  Fe  Fe223     1.0  0.62783  0.49400  0.33161  1.0000
  Fe  Fe224     1.0  0.96384  0.54468  0.46143  1.0000
  H   H1329     1.0  0.51466  0.54102  0.40621  1.0000
  C   C1334     1.0  0.90115  0.49882  0.30984  1.0000
  H   H1330     1.0  0.50731  0.83439  0.43195  1.0000
  H   H1331     1.0  0.54817  0.95455  0.46786  1.0000
  H   H1332     1.0  0.52909  0.67093  0.46222  1.0000
  H   H1333     1.0  0.56896  0.67665  0.26645  1.0000
  H   H1334     1.0  0.91581  0.96508  0.37016  1.0000
  H   H1335     1.0  0.90349  0.98666  0.27223  1.0000
  Fe  Fe225     1.0  0.66660  0.82184  0.59788  1.0000
  S   S447      1.0  0.64321  0.84851  0.63233  1.0000
  S   S448      1.0  0.65705  0.76821  0.59702  1.0000
  Fe  Fe226     1.0  0.70511  0.88325  0.56499  1.0000
  S   S449      1.0  0.68503  0.91478  0.59717  1.0000
  S   S450      1.0  0.73728  0.90738  0.52556  1.0000
  Fe  Fe227     1.0  0.69514  0.87143  0.62813  1.0000
  S   S451      1.0  0.72347  0.87248  0.66426  1.0000
  Fe  Fe228     1.0  0.63556  0.88870  0.59754  1.0000
  S   S452      1.0  0.58668  0.91551  0.59596  1.0000
  S   S453      1.0  0.71930  0.84197  0.59584  1.0000
  S   S454      1.0  0.65492  0.85993  0.56323  1.0000
  H   H1336     1.0  0.97502  0.77886  0.70377  1.0000
  C   C1335     1.0  0.98028  0.94598  0.54169  1.0000
  Fe  Fe229     1.0  0.90429  0.77085  0.63766  1.0000
  S   S455      1.0  0.85468  0.79329  0.65147  1.0000
  S   S456      1.0  0.91442  0.72151  0.66017  1.0000
  H   H1337     1.0  0.51094  0.89636  0.64670  1.0000
  S   S457      1.0  0.87989  0.85593  0.60424  1.0000
  H   H1338     1.0  0.83576  0.92059  0.62416  1.0000
  Fe  Fe230     1.0  0.88598  0.83929  0.64893  1.0000
  S   S458      1.0  0.87451  0.87114  0.68304  1.0000
  Fe  Fe231     1.0  0.85344  0.80710  0.60561  1.0000
  S   S459      1.0  0.80332  0.80380  0.58924  1.0000
  H   H1339     1.0  0.49169  0.85199  0.70623  1.0000
  S   S460      1.0  0.90133  0.78129  0.59178  1.0000
  H   H1340     1.0  0.93177  0.88515  0.51418  1.0000
  H   H1341     1.0  0.53564  0.82286  0.59982  1.0000
  C   C1336     1.0  0.75310  0.74835  0.54527  1.0000
  H   H1342     1.0  0.95290  0.94833  0.54963  1.0000
  C   C1337     1.0  0.59861  0.58807  0.71345  1.0000
  H   H1343     1.0  0.81644  0.88688  0.64942  1.0000
  H   H1344     1.0  0.96174  0.91569  0.59363  1.0000
  S   S461      1.0  0.91970  0.56079  0.49003  1.0000
  C   C1338     1.0  0.52567  0.77128  0.61509  1.0000
  H   H1345     1.0  0.49027  0.97649  0.47636  1.0000
  S   S462      1.0  0.67136  0.72214  0.50166  1.0000
  C   C1339     1.0  0.88430  0.89466  0.49868  1.0000
  C   C1340     1.0  0.56889  0.63407  0.54514  1.0000
  C   C1341     1.0  0.80540  0.84162  0.51631  1.0000
  C   C1342     1.0  0.53815  0.57155  0.54949  1.0000
  C   C1343     1.0  0.57092  0.57804  0.53481  1.0000
  C   C1344     1.0  0.58613  0.60929  0.53236  1.0000
  H   H1346     1.0  0.58456  0.55889  0.52528  1.0000
  H   H1347     1.0  0.61136  0.61401  0.52082  1.0000
  S   S463      1.0  0.93588  0.81552  0.63887  1.0000
  H   H1348     1.0  0.83823  0.74437  0.57524  1.0000
  H   H1349     1.0  0.62428  0.77570  0.54556  1.0000
  H   H1350     1.0  0.59523  0.74895  0.53351  1.0000
  H   H1351     1.0  0.98347  0.92377  0.53112  1.0000
  C   C1345     1.0  0.90800  0.72374  0.69598  1.0000
  H   H1352     1.0  0.87969  0.49086  0.71295  1.0000
  H   H1353     1.0  0.53104  0.71342  0.51156  1.0000
  H   H1354     1.0  0.79194  0.85623  0.50052  1.0000
  H   H1355     1.0  0.90597  0.77667  0.69086  1.0000
  H   H1356     1.0  0.52249  0.95928  0.61985  1.0000
  C   C1346     1.0  0.79808  0.55768  0.49333  1.0000
  H   H1357     1.0  0.74551  0.79348  0.56244  1.0000
  C   C1347     1.0  0.56986  0.79187  0.57716  1.0000
  C   C1348     1.0  0.76233  0.77322  0.55983  1.0000
  C   C1349     1.0  0.90754  0.88976  0.69603  1.0000
  C   C1350     1.0  0.78035  0.93940  0.67732  1.0000
  H   H1358     1.0  0.52284  0.64652  0.57024  1.0000
  H   H1359     1.0  0.80427  0.81538  0.51332  1.0000
  C   C1351     1.0  0.80027  0.82625  0.71145  1.0000
  H   H1360     1.0  0.82231  0.70068  0.54915  1.0000
  H   H1361     1.0  0.61435  0.57594  0.66147  1.0000
  C   C1352     1.0  0.77632  0.92231  0.53164  1.0000
  C   C1353     1.0  0.78991  0.90974  0.55567  1.0000
  C   C1354     1.0  0.82224  0.92026  0.55922  1.0000
  C   C1355     1.0  0.84077  0.94393  0.53915  1.0000
  C   C1356     1.0  0.82690  0.95684  0.51535  1.0000
  C   C1357     1.0  0.79481  0.94595  0.51154  1.0000
  H   H1362     1.0  0.77603  0.89114  0.57111  1.0000
  H   H1363     1.0  0.83317  0.90954  0.57726  1.0000
  C   C1358     1.0  0.77778  0.95783  0.69942  1.0000
  H   H1364     1.0  0.78446  0.95564  0.49287  1.0000
  C   C1359     1.0  0.56330  0.90078  0.57250  1.0000
  C   C1360     1.0  0.52825  0.89674  0.57980  1.0000
  C   C1361     1.0  0.50901  0.88362  0.56225  1.0000
  C   C1362     1.0  0.52480  0.87454  0.53713  1.0000
  C   C1363     1.0  0.55973  0.87997  0.52898  1.0000
  C   C1364     1.0  0.57901  0.89310  0.54672  1.0000
  H   H1365     1.0  0.51600  0.90330  0.59927  1.0000
  H   H1366     1.0  0.62309  0.54367  0.48337  1.0000
  H   H1367     1.0  0.57193  0.87351  0.50926  1.0000
  H   H1368     1.0  0.60582  0.89777  0.54017  1.0000
  C   C1365     1.0  0.60989  0.69747  0.67417  1.0000
  C   C1366     1.0  0.60411  0.73126  0.67335  1.0000
  C   C1367     1.0  0.61819  0.75361  0.64968  1.0000
  C   C1368     1.0  0.63726  0.74197  0.62671  1.0000
  C   C1369     1.0  0.64162  0.70815  0.62726  1.0000
  C   C1370     1.0  0.62850  0.68611  0.65099  1.0000
  H   H1369     1.0  0.58993  0.74024  0.69127  1.0000
  H   H1370     1.0  0.61440  0.77969  0.64930  1.0000
  H   H1371     1.0  0.65609  0.69897  0.60952  1.0000
  H   H1372     1.0  0.63317  0.66011  0.65146  1.0000
  H   H1373     1.0  0.64901  0.54254  0.52658  1.0000
  H   H1374     1.0  0.62444  0.59607  0.70493  1.0000
  C   C1371     1.0  0.66449  0.89627  0.68951  1.0000
  C   C1372     1.0  0.69740  0.88591  0.69225  1.0000
  C   C1373     1.0  0.84036  0.94545  0.67006  1.0000
  H   H1375     1.0  0.59192  0.50697  0.55373  1.0000
  C   C1374     1.0  0.79176  0.62536  0.48341  1.0000
  H   H1376     1.0  0.65499  0.89629  0.66996  1.0000
  C   C1375     1.0  0.95825  0.92585  0.71394  1.0000
  S   S464      1.0  0.63744  0.66654  0.47007  1.0000
  C   C1376     1.0  0.81457  0.74571  0.56688  1.0000
  H   H1377     1.0  0.56057  0.67601  0.48442  1.0000
  C   C1377     1.0  0.53691  0.66252  0.48290  1.0000
  N   N112      1.0  0.57931  0.76036  0.57431  1.0000
  H   H1378     1.0  0.78894  0.65181  0.47958  1.0000
  C   C1378     1.0  0.63713  0.96866  0.54302  1.0000
  H   H1379     1.0  0.70569  0.94453  0.48072  1.0000
  S   S465      1.0  0.50084  0.85507  0.51689  1.0000
  C   C1379     1.0  0.77634  0.57127  0.47512  1.0000
  H   H1380     1.0  0.84117  0.97457  0.49950  1.0000
  H   H1381     1.0  0.75314  0.96196  0.71105  1.0000
  C   C1380     1.0  0.68579  0.78767  0.69177  1.0000
  S   S466      1.0  0.97045  0.85523  0.56347  1.0000
  H   H1382     1.0  0.68939  0.96143  0.52727  1.0000
  H   H1383     1.0  0.68265  0.81207  0.69774  1.0000
  H   H1384     1.0  0.54322  0.63601  0.48462  1.0000
  H   H1385     1.0  0.83411  0.89776  0.48791  1.0000
  C   C1381     1.0  0.86239  0.83411  0.52877  1.0000
  Fe  Fe232     1.0  0.71513  0.68764  0.50489  1.0000
  C   C1382     1.0  0.89561  0.84521  0.52853  1.0000
  S   S467      1.0  0.94804  0.98220  0.47646  1.0000
  S   S468      1.0  0.85505  0.49081  0.51375  1.0000
  H   H1386     1.0  0.57214  0.56925  0.65563  1.0000
  H   H1387     1.0  0.90902  0.67127  0.70782  1.0000
  N   N113      1.0  0.50959  0.66802  0.50526  1.0000
  C   C1383     1.0  0.85134  0.88269  0.49916  1.0000
  S   S469      1.0  0.76424  0.69033  0.52300  1.0000
  C   C1384     1.0  0.81361  0.91302  0.64056  1.0000
  H   H1388     1.0  0.58302  0.81262  0.56356  1.0000
  H   H1389     1.0  0.85655  0.62349  0.51887  1.0000
  C   C1385     1.0  0.53620  0.62753  0.56013  1.0000
  S   S470      1.0  0.68133  0.64309  0.52095  1.0000
  C   C1386     1.0  0.77326  0.60531  0.46999  1.0000
  H   H1390     1.0  0.74873  0.75957  0.71576  1.0000
  C   C1387     1.0  0.79296  0.77197  0.57087  1.0000
  H   H1391     1.0  0.75739  0.92975  0.67184  1.0000
  H   H1392     1.0  0.50448  0.77541  0.63085  1.0000
  C   C1388     1.0  0.89913  0.90905  0.71738  1.0000
  H   H1393     1.0  0.58343  0.97616  0.55254  1.0000
  C   C1389     1.0  0.68744  0.96287  0.47304  1.0000
  C   C1390     1.0  0.67535  0.72904  0.70167  1.0000
  C   C1391     1.0  0.59953  0.49217  0.57177  1.0000
  C   C1392     1.0  0.90705  0.69492  0.71514  1.0000
  C   C1393     1.0  0.58791  0.58451  0.66601  1.0000
  S   S471      1.0  0.50408  0.94503  0.68360  1.0000
  H   H1394     1.0  0.81581  0.63522  0.53667  1.0000
  H   H1395     1.0  0.52507  0.96619  0.58255  1.0000
  H   H1396     1.0  0.94833  0.87270  0.66796  1.0000
  C   C1394     1.0  0.68940  0.50951  0.53427  1.0000
  H   H1397     1.0  0.56986  0.70925  0.58893  1.0000
  H   H1398     1.0  0.83524  0.65829  0.50403  1.0000
  C   C1395     1.0  0.53541  0.73927  0.61194  1.0000
  H   H1399     1.0  0.80279  0.85209  0.70272  1.0000
  H   H1400     1.0  0.49547  0.59144  0.57366  1.0000
  C   C1396     1.0  0.70979  0.88645  0.71745  1.0000
  C   C1397     1.0  0.81645  0.57844  0.50625  1.0000
  C   C1398     1.0  0.94160  0.88741  0.68447  1.0000
  H   H1401     1.0  0.69706  0.52224  0.55032  1.0000
  C   C1399     1.0  0.56243  0.73422  0.59131  1.0000
  N   N114      1.0  0.84067  0.85291  0.51433  1.0000
  Fe  Fe233     1.0  0.68341  0.63675  0.47601  1.0000
  N   N115      1.0  0.81313  0.61184  0.50118  1.0000
  C   C1400     1.0  0.54305  0.79782  0.59768  1.0000
  N   N116      1.0  0.65852  0.96542  0.49492  1.0000
  C   C1401     1.0  0.51190  0.97378  0.60220  1.0000
  C   C1402     1.0  0.90642  0.87587  0.51370  1.0000
  H   H1402     1.0  0.80073  0.53125  0.49741  1.0000
  H   H1403     1.0  0.83338  0.56761  0.52032  1.0000
  H   H1404     1.0  0.85398  0.81051  0.54080  1.0000
  Fe  Fe234     1.0  0.92806  0.82877  0.59425  1.0000
  H   H1405     1.0  0.89223  0.91885  0.48752  1.0000
  C   C1403     1.0  0.83105  0.63311  0.51607  1.0000
  N   N117      1.0  0.70757  0.75307  0.65782  1.0000
  C   C1404     1.0  0.70417  0.78360  0.66581  1.0000
  C   C1405     1.0  0.69369  0.72593  0.67546  1.0000
  S   S472      1.0  0.52049  0.53164  0.55370  1.0000
  C   C1406     1.0  0.96686  0.90547  0.69340  1.0000
  C   C1407     1.0  0.60176  0.50625  0.59584  1.0000
  C   C1408     1.0  0.72756  0.74929  0.63080  1.0000
  H   H1406     1.0  0.71559  0.80505  0.65201  1.0000
  H   H1407     1.0  0.69604  0.70175  0.66904  1.0000
  H   H1408     1.0  0.58679  0.61075  0.65673  1.0000
  C   C1409     1.0  0.66211  0.52080  0.52086  1.0000
  N   N118      1.0  0.65194  0.50464  0.50087  1.0000
  H   H1409     1.0  0.75478  0.74616  0.63281  1.0000
  H   H1410     1.0  0.71815  0.72810  0.62210  1.0000
  H   H1411     1.0  0.72541  0.77120  0.61502  1.0000
  Fe  Fe235     1.0  0.89077  0.51940  0.47837  1.0000
  H   H1412     1.0  0.86179  0.97317  0.69790  1.0000
  H   H1413     1.0  0.79054  0.91490  0.63019  1.0000
  H   H1414     1.0  0.52189  0.71850  0.62525  1.0000
  H   H1415     1.0  0.59598  0.53195  0.59616  1.0000
  C   C1410     1.0  0.80722  0.97047  0.70659  1.0000
  S   S473      1.0  0.60924  0.50431  0.65049  1.0000
  N   N119      1.0  0.81135  0.93362  0.66283  1.0000
  H   H1416     1.0  0.52348  0.51418  0.61381  1.0000
  C   C1411     1.0  0.83874  0.96414  0.69195  1.0000
  H   H1417     1.0  0.66348  0.70755  0.71525  1.0000
  H   H1418     1.0  0.75447  0.81848  0.69488  1.0000
  C   C1412     1.0  0.90527  0.75429  0.70551  1.0000
  C   C1413     1.0  0.54345  0.57235  0.70687  1.0000
  H   H1419     1.0  0.91278  0.83043  0.54010  1.0000
  S   S474      1.0  0.59780  0.66870  0.70443  1.0000
  S   S475      1.0  0.88191  0.95546  0.54347  1.0000
  C   C1414     1.0  0.51007  0.69579  0.51765  1.0000
  H   H1420     1.0  0.59887  0.50784  0.50208  1.0000
  N   N120      1.0  0.57651  0.58088  0.69623  1.0000
  C   C1415     1.0  0.62257  0.51638  0.48782  1.0000
  C   C1416     1.0  0.52065  0.59643  0.56198  1.0000
  H   H1421     1.0  0.72930  0.74955  0.53710  1.0000
  C   C1417     1.0  0.80545  0.72092  0.55213  1.0000
  S   S476      1.0  0.58758  0.67351  0.54169  1.0000
  H   H1422     1.0  0.52573  0.56728  0.69319  1.0000
  H   H1423     1.0  0.61842  0.91522  0.70993  1.0000
  H   H1424     1.0  0.79134  0.84419  0.53728  1.0000
  C   C1418     1.0  0.67140  0.76014  0.70983  1.0000
  H   H1425     1.0  0.62165  0.73303  0.55910  1.0000
  C   C1419     1.0  0.60632  0.75433  0.55189  1.0000
  C   C1420     1.0  0.77464  0.72207  0.54133  1.0000
  H   H1426     1.0  0.57371  0.97750  0.50361  1.0000
  Fe  Fe236     1.0  0.63814  0.67647  0.51372  1.0000
  H   H1427     1.0  0.86502  0.93997  0.65919  1.0000
  C   C1421     1.0  0.64384  0.90711  0.71208  1.0000
  C   C1422     1.0  0.60454  0.97337  0.53631  1.0000
  C   C1423     1.0  0.77310  0.80732  0.70711  1.0000
  C   C1424     1.0  0.52070  0.48729  0.62112  1.0000
  C   C1425     1.0  0.62656  0.96995  0.48814  1.0000
  H   H1428     1.0  0.98017  0.70882  0.67961  1.0000
  H   H1429     1.0  0.64137  0.96760  0.56453  1.0000
  C   C1426     1.0  0.59911  0.97399  0.50876  1.0000
  C   C1427     1.0  0.66404  0.96490  0.52192  1.0000
  S   S477      1.0  0.98772  0.95585  0.71841  1.0000
  H   H1430     1.0  0.97950  0.73647  0.71845  1.0000
  C   C1428     1.0  0.98726  0.92624  0.59013  1.0000
  H   H1431     1.0  0.92428  0.48769  0.71469  1.0000
  C   C1429     1.0  0.77011  0.77411  0.71885  1.0000
  Fe  Fe237     1.0  0.73128  0.66167  0.86101  1.0000
  S   S478      1.0  0.73072  0.66184  0.81538  1.0000
  S   S479      1.0  0.78132  0.65605  0.87691  1.0000
  Fe  Fe238     1.0  0.65573  0.67210  0.87287  1.0000
  S   S480      1.0  0.64826  0.67272  0.82804  1.0000
  S   S481      1.0  0.61602  0.67916  0.90942  1.0000
  Fe  Fe239     1.0  0.68367  0.62991  0.82874  1.0000
  S   S482      1.0  0.68642  0.58395  0.80806  1.0000
  Fe  Fe240     1.0  0.69596  0.70420  0.81847  1.0000
  S   S483      1.0  0.70338  0.75018  0.78682  1.0000
  S   S484      1.0  0.68705  0.62656  0.87440  1.0000
  S   S485      1.0  0.70054  0.70701  0.86315  1.0000
  Fe  Fe241     1.0  0.83081  0.92859  0.84309  1.0000
  S   S486      1.0  0.86573  0.92001  0.80473  1.0000
  S   S487      1.0  0.85392  0.92648  0.88222  1.0000
  Fe  Fe242     1.0  0.76925  0.93356  0.81327  1.0000
  S   S488      1.0  0.79902  0.92466  0.77259  1.0000
  H   H1432     1.0  0.73522  0.87842  0.71965  1.0000
  Fe  Fe243     1.0  0.82425  0.88583  0.79915  1.0000
  S   S489      1.0  0.83408  0.83314  0.79393  1.0000
  Fe  Fe244     1.0  0.83688  0.95981  0.78296  1.0000
  S   S490      1.0  0.96769  0.68378  0.83619  1.0000
  S   S491      1.0  0.79110  0.89196  0.83905  1.0000
  C   C1430     1.0  0.48893  0.81031  0.84481  1.0000
  Fe  Fe245     1.0  0.59215  0.85375  0.94107  1.0000
  S   S492      1.0  0.58014  0.82964  0.90517  1.0000
  C   C1431     1.0  0.97898  0.52298  0.89626  1.0000
  Fe  Fe246     1.0  0.98606  0.64054  0.81545  1.0000
  S   S493      1.0  0.65933  0.95729  0.94113  1.0000
  H   H1433     1.0  0.58959  0.88156  0.81628  1.0000
  C   C1432     1.0  0.77382  0.59666  0.96399  1.0000
  H   H1434     1.0  0.60032  0.79138  0.82383  1.0000
  S   S494      1.0  0.64508  0.86368  0.94803  1.0000
  S   S495      1.0  0.57454  0.90474  0.94589  1.0000
  H   H1435     1.0  0.72383  0.63208  0.91798  1.0000
  C   C1433     1.0  0.77333  0.72360  0.91098  1.0000
  C   C1434     1.0  0.77839  0.63277  0.91024  1.0000
  S   S496      1.0  0.54065  0.89819  0.74761  1.0000
  C   C1435     1.0  0.95993  0.56953  0.79165  1.0000
  H   H1436     1.0  0.50056  0.81380  0.90157  1.0000
  S   S497      1.0  0.54661  0.93918  0.79963  1.0000
  H   H1437     1.0  0.57418  0.66715  0.96800  1.0000
  Fe  Fe247     1.0  0.57796  0.93243  0.75920  1.0000
  C   C1436     1.0  0.49589  0.83365  0.91388  1.0000
  Fe  Fe248     1.0  0.50735  0.90912  0.78618  1.0000
  H   H1438     1.0  0.80532  0.53925  0.78254  1.0000
  H   H1439     1.0  0.74283  0.85317  0.92466  1.0000
  H   H1440     1.0  0.94989  0.76256  0.81956  1.0000
  H   H1441     1.0  0.56758  0.84281  0.82539  1.0000
  H   H1442     1.0  0.82514  0.62437  0.84033  1.0000
  C   C1437     1.0  0.78250  0.56806  0.81363  1.0000
  N   N121      1.0  0.62138  0.83989  0.81985  1.0000
  C   C1438     1.0  0.78826  0.59189  0.83010  1.0000
  Fe  Fe249     1.0  0.52855  0.70379  0.79063  1.0000
  S   S498      1.0  0.53981  0.72984  0.82558  1.0000
  C   C1439     1.0  0.52730  0.79035  0.79774  1.0000
  S   S499      1.0  0.55281  0.65638  0.78195  1.0000
  C   C1440     1.0  0.80793  0.62351  0.92145  1.0000
  H   H1443     1.0  0.70239  0.79788  0.84049  1.0000
  N   N122      1.0  0.93756  0.81264  0.82025  1.0000
  H   H1444     1.0  0.54512  0.67271  0.88584  1.0000
  C   C1441     1.0  0.52248  0.76910  0.82312  1.0000
  C   C1442     1.0  0.82209  0.70319  0.92975  1.0000
  H   H1445     1.0  0.74067  0.68334  0.95324  1.0000
  H   H1446     1.0  0.65160  0.76415  0.83777  1.0000
  H   H1447     1.0  0.76337  0.71801  0.75385  1.0000
  S   S500      1.0  0.80511  0.97147  0.82191  1.0000
  C   C1443     1.0  0.65326  0.51675  0.86312  1.0000
  H   H1448     1.0  0.87859  0.63912  0.80499  1.0000
  H   H1449     1.0  0.92312  0.53790  0.85733  1.0000
  H   H1450     1.0  0.49991  0.76314  0.86646  1.0000
  H   H1451     1.0  0.71061  0.90346  0.93160  1.0000
  C   C1444     1.0  0.82032  0.77864  0.73873  1.0000
  Fe  Fe250     1.0  0.62591  0.91275  0.95748  1.0000
  C   C1445     1.0  0.75192  0.92777  0.94474  1.0000
  C   C1446     1.0  0.52246  0.67289  0.90126  1.0000
  C   C1447     1.0  0.92918  0.54094  0.83480  1.0000
  S   S501      1.0  0.97200  0.59078  0.84017  1.0000
  C   C1448     1.0  0.91271  0.52108  0.81967  1.0000
  C   C1449     1.0  0.59125  0.54594  0.81113  1.0000
  H   H1452     1.0  0.73764  0.94973  0.94801  1.0000
  S   S502      1.0  0.53339  0.72639  0.74562  1.0000
  H   H1453     1.0  0.83255  0.63040  0.90939  1.0000
  Fe  Fe251     1.0  0.95349  0.70374  0.79469  1.0000
  C   C1450     1.0  0.87246  0.88768  0.88707  1.0000
  C   C1451     1.0  0.86744  0.86443  0.86971  1.0000
  C   C1452     1.0  0.87952  0.83250  0.87494  1.0000
  C   C1453     1.0  0.89725  0.82377  0.89733  1.0000
  C   C1454     1.0  0.90376  0.84740  0.91391  1.0000
  C   C1455     1.0  0.89118  0.87927  0.90893  1.0000
  H   H1454     1.0  0.85342  0.87050  0.85261  1.0000
  H   H1455     1.0  0.87422  0.81446  0.86204  1.0000
  S   S503      1.0  0.71292  0.93661  0.81764  1.0000
  H   H1456     1.0  0.89566  0.89720  0.92221  1.0000
  C   C1456     1.0  0.69751  0.94393  0.85145  1.0000
  H   H1457     1.0  0.76767  0.59966  0.84475  1.0000
  H   H1458     1.0  0.74599  0.72524  0.91256  1.0000
  C   C1457     1.0  0.67292  0.95435  0.90601  1.0000
  C   C1458     1.0  0.65448  0.93462  0.89234  1.0000
  C   C1459     1.0  0.66656  0.92970  0.86498  1.0000
  H   H1459     1.0  0.80435  0.71957  0.76421  1.0000
  C   C1460     1.0  0.95286  0.56517  0.82085  1.0000
  H   H1460     1.0  0.63098  0.92281  0.90288  1.0000
  H   H1461     1.0  0.65229  0.91411  0.85470  1.0000
  C   C1461     1.0  0.65104  0.56199  0.80173  1.0000
  C   C1462     1.0  0.65675  0.53793  0.78407  1.0000
  C   C1463     1.0  0.62985  0.51848  0.77945  1.0000
  C   C1464     1.0  0.59694  0.52234  0.79289  1.0000
  H   H1462     1.0  0.96071  0.89017  0.82596  1.0000
  C   C1465     1.0  0.61813  0.56607  0.81524  1.0000
  H   H1463     1.0  0.68221  0.53429  0.77386  1.0000
  H   H1464     1.0  0.52718  0.78523  0.94340  1.0000
  H   H1465     1.0  0.54183  0.78258  0.77940  1.0000
  H   H1466     1.0  0.61349  0.58431  0.82917  1.0000
  C   C1466     1.0  0.60647  0.72105  0.90837  1.0000
  C   C1467     1.0  0.61428  0.73838  0.92934  1.0000
  C   C1468     1.0  0.60644  0.77186  0.92855  1.0000
  C   C1469     1.0  0.59024  0.78782  0.90701  1.0000
  C   C1470     1.0  0.58157  0.77016  0.88661  1.0000
  C   C1471     1.0  0.59026  0.73706  0.88694  1.0000
  C   C1472     1.0  0.48847  0.86483  0.90082  1.0000
  H   H1467     1.0  0.69896  0.89823  0.75935  1.0000
  H   H1468     1.0  0.56815  0.78213  0.87043  1.0000
  H   H1469     1.0  0.58402  0.72382  0.87075  1.0000
  C   C1473     1.0  0.73833  0.77385  0.79119  1.0000
  C   C1474     1.0  0.74077  0.80739  0.78036  1.0000
  C   C1475     1.0  0.76922  0.82622  0.78284  1.0000
  C   C1476     1.0  0.79601  0.81122  0.79500  1.0000
  C   C1477     1.0  0.79341  0.77775  0.80608  1.0000
  C   C1478     1.0  0.76428  0.75925  0.80474  1.0000
  H   H1470     1.0  0.72071  0.81884  0.76996  1.0000
  H   H1471     1.0  0.77116  0.85200  0.77406  1.0000
  H   H1472     1.0  0.81424  0.76600  0.81523  1.0000
  H   H1473     1.0  0.76257  0.73337  0.81315  1.0000
  S   S504      1.0  0.90889  0.78281  0.90573  1.0000
  C   C1479     1.0  0.74668  0.62414  0.92602  1.0000
  C   C1480     1.0  0.82078  0.60588  0.82748  1.0000
  C   C1481     1.0  0.80613  0.84074  0.93283  1.0000
  H   H1474     1.0  0.89465  0.50240  0.83069  1.0000
  H   H1475     1.0  0.64958  0.88513  0.81470  1.0000
  S   S505      1.0  0.89732  0.50250  0.77114  1.0000
  H   H1476     1.0  0.60438  0.98198  0.81734  1.0000
  C   C1482     1.0  0.95022  0.83800  0.83118  1.0000
  S   S506      1.0  0.56277  0.49756  0.78780  1.0000
  H   H1477     1.0  0.64399  0.56012  0.91773  1.0000
  C   C1483     1.0  0.50413  0.79487  0.95500  1.0000
  H   H1478     1.0  0.65708  0.76286  0.73007  1.0000
  H   H1479     1.0  0.90265  0.77980  0.74124  1.0000
  S   S507      1.0  0.90530  0.72932  0.78822  1.0000
  H   H1480     1.0  0.68263  0.55581  0.87343  1.0000
  C   C1484     1.0  0.90273  0.72723  0.75320  1.0000
  C   C1485     1.0  0.90315  0.75607  0.73409  1.0000
  C   C1486     1.0  0.84158  0.57270  0.79303  1.0000
  C   C1487     1.0  0.80938  0.55814  0.79514  1.0000
  C   C1488     1.0  0.88046  0.61192  0.80662  1.0000
  H   H1481     1.0  0.86229  0.56483  0.77859  1.0000
  C   C1489     1.0  0.66020  0.54008  0.87971  1.0000
  H   H1482     1.0  0.89215  0.60266  0.82542  1.0000
  H   H1483     1.0  0.89774  0.60655  0.78784  1.0000
  C   C1490     1.0  0.63172  0.98059  0.80898  1.0000
  H   H1484     1.0  0.81148  0.83875  0.91022  1.0000
  C   C1491     1.0  0.80308  0.89647  0.94571  1.0000
  C   C1492     1.0  0.55441  0.57740  0.75321  1.0000
  Fe  Fe252     1.0  0.89380  0.76956  0.95193  1.0000
  H   H1485     1.0  0.54581  0.57587  0.77546  1.0000
  C   C1493     1.0  0.79039  0.72524  0.74610  1.0000
  S   S508      1.0  0.50259  0.65502  0.73485  1.0000
  Fe  Fe253     1.0  0.51855  0.94389  0.72698  1.0000
  C   C1494     1.0  0.59037  0.85560  0.81242  1.0000
  H   H1486     1.0  0.71974  0.59945  0.96491  1.0000
  C   C1495     1.0  0.80566  0.60550  0.94841  1.0000
  H   H1487     1.0  0.80574  0.98473  0.72373  1.0000
  C   C1496     1.0  0.63853  0.54240  0.90449  1.0000
  H   H1488     1.0  0.96745  0.69460  0.92768  1.0000
  H   H1489     1.0  0.87286  0.91093  0.72651  1.0000
  H   H1490     1.0  0.98299  0.65374  0.89561  1.0000
  H   H1491     1.0  0.94877  0.55338  0.75388  1.0000
  H   H1492     1.0  0.73962  0.97530  0.85445  1.0000
  H   H1493     1.0  0.75509  0.50246  0.85220  1.0000
  S   S509      1.0  0.55981  0.97772  0.73487  1.0000
  C   C1497     1.0  0.51397  0.82206  0.79624  1.0000
  H   H1494     1.0  0.97866  0.58770  0.78076  1.0000
  H   H1495     1.0  0.62709  0.72612  0.94581  1.0000
  N   N123      1.0  0.79348  0.76028  0.73457  1.0000
  C   C1498     1.0  0.92357  0.81869  0.79618  1.0000
  H   H1496     1.0  0.84508  0.74942  0.86612  1.0000
  C   C1499     1.0  0.70340  0.96948  0.89221  1.0000
  H   H1497     1.0  0.56587  0.54903  0.82177  1.0000
  N   N124      1.0  0.49760  0.82817  0.94185  1.0000
  C   C1500     1.0  0.49491  0.83214  0.81984  1.0000
  C   C1501     1.0  0.50360  0.77928  0.84674  1.0000
  C   C1502     1.0  0.82893  0.73720  0.88461  1.0000
  H   H1498     1.0  0.91201  0.79883  0.78824  1.0000
  N   N125      1.0  0.62519  0.49652  0.87078  1.0000
  C   C1503     1.0  0.49226  0.85321  0.95750  1.0000
  H   H1499     1.0  0.58918  0.85516  0.78994  1.0000
  C   C1504     1.0  0.60364  0.49870  0.89496  1.0000
  H   H1500     1.0  0.63430  0.98637  0.78585  1.0000
  H   H1501     1.0  0.83066  0.84028  0.94108  1.0000
  H   H1502     1.0  0.87061  0.71738  0.90463  1.0000
  H   H1503     1.0  0.79768  0.94527  0.95700  1.0000
  C   C1505     1.0  0.73663  0.90173  0.93554  1.0000
  H   H1504     1.0  0.79096  0.81896  0.94421  1.0000
  H   H1505     1.0  0.60535  0.59277  0.75570  1.0000
  H   H1506     1.0  0.75725  0.55732  0.81519  1.0000
  C   C1506     1.0  0.93831  0.77879  0.83448  1.0000
  C   C1507     1.0  0.94320  0.54987  0.77647  1.0000
  C   C1508     1.0  0.95039  0.51113  0.91519  1.0000
  H   H1507     1.0  0.51772  0.83820  0.77663  1.0000
  C   C1509     1.0  0.78543  0.92525  0.94979  1.0000
  H   H1508     1.0  0.78233  0.75305  0.87008  1.0000
  N   N126      1.0  0.84678  0.59660  0.80884  1.0000
  H   H1509     1.0  0.91707  0.94400  0.74106  1.0000
  Fe  Fe254     1.0  0.55337  0.67739  0.73675  1.0000
  H   H1510     1.0  0.95350  0.77682  0.85193  1.0000
  H   H1511     1.0  0.73371  0.51205  0.90065  1.0000
  H   H1512     1.0  0.91864  0.84123  0.93051  1.0000
  S   S510      1.0  0.63142  0.92190  0.76538  1.0000
  H   H1513     1.0  0.77736  0.66774  0.96705  1.0000
  C   C1510     1.0  0.92362  0.85060  0.78160  1.0000
  C   C1511     1.0  0.95059  0.87021  0.81720  1.0000
  C   C1512     1.0  0.93775  0.87640  0.79201  1.0000
  C   C1513     1.0  0.84326  0.71902  0.90614  1.0000
  C   C1514     1.0  0.67914  0.84387  0.82782  1.0000
  H   H1514     1.0  0.82904  0.89459  0.94984  1.0000
  C   C1515     1.0  0.58790  0.58652  0.74216  1.0000
  H   H1515     1.0  0.48981  0.64054  0.96791  1.0000
  C   C1516     1.0  0.52093  0.65471  0.92783  1.0000
  S   S511      1.0  0.96769  0.65883  0.77509  1.0000
  C   C1517     1.0  0.74440  0.60595  0.95275  1.0000
  C   C1518     1.0  0.65118  0.79078  0.83321  1.0000
  C   C1519     1.0  0.62223  0.80634  0.82531  1.0000
  C   C1520     1.0  0.64963  0.85861  0.82026  1.0000
  H   H1516     1.0  0.83338  0.68901  0.94640  1.0000
  Fe  Fe255     1.0  0.49984  0.63875  0.78081  1.0000
  N   N127      1.0  0.78770  0.87093  0.93693  1.0000
  H   H1517     1.0  0.70143  0.85892  0.82808  1.0000
  H   H1518     1.0  0.90329  0.67433  0.75848  1.0000
  H   H1519     1.0  0.96008  0.83346  0.85086  1.0000
  H   H1520     1.0  0.82844  0.59860  0.95718  1.0000
  C   C1521     1.0  0.79374  0.73946  0.88694  1.0000
  H   H1521     1.0  0.67067  0.51490  0.84413  1.0000
  C   C1522     1.0  0.65635  0.90786  0.73719  1.0000
  C   C1523     1.0  0.75501  0.87337  0.93165  1.0000
  H   H1522     1.0  0.91212  0.76970  0.84312  1.0000
  C   C1524     1.0  0.91949  0.52568  0.79044  1.0000
  C   C1525     1.0  0.49452  0.69126  0.89457  1.0000
  H   H1523     1.0  0.61318  0.78535  0.94442  1.0000
  H   H1524     1.0  0.71773  0.98474  0.90276  1.0000
  C   C1526     1.0  0.67967  0.80973  0.83471  1.0000
  H   H1525     1.0  0.91227  0.85532  0.76262  1.0000
  C   C1527     1.0  0.61003  0.52155  0.91226  1.0000
  H   H1526     1.0  0.83827  0.76804  0.75186  1.0000
  C   C1528     1.0  0.72357  0.49174  0.89241  1.0000
  C   C1529     1.0  0.49158  0.65512  0.94733  1.0000
  H   H1527     1.0  0.93811  0.90126  0.78088  1.0000
  H   H1528     1.0  0.54238  0.64011  0.93312  1.0000
  H   H1529     1.0  0.84496  0.82648  0.73132  1.0000
  N   N128      1.0  0.78761  0.70562  0.93191  1.0000
  H   H1530     1.0  0.63484  0.50026  0.76573  1.0000
  H   H1531     1.0  0.94256  0.52270  0.93365  1.0000
  C   C1530     1.0  0.68930  0.89757  0.73989  1.0000
  C   C1531     1.0  0.71594  0.96388  0.86501  1.0000
  H   H1532     1.0  0.80093  0.71030  0.72976  1.0000
  C   C1532     1.0  0.90406  0.69668  0.74376  1.0000
  C   C1533     1.0  0.92427  0.92736  0.72604  1.0000
  H   H1533     1.0  0.64028  0.95505  0.81418  1.0000
  H   H1534     1.0  0.50584  0.56334  0.74420  1.0000
  H   H1535     1.0  0.59312  0.52290  0.93163  1.0000
  S   S512      1.0  0.83818  0.76338  0.96734  1.0000
  Fe  Fe256     1.0  0.52607  0.98243  0.77506  1.0000
  C   C1534     1.0  0.76597  0.69056  0.95753  1.0000
  H   H1536     1.0  0.49559  0.70457  0.87366  1.0000
  C   C1535     1.0  0.53198  0.57020  0.73556  1.0000
  C   C1536     1.0  0.82410  0.81184  0.72729  1.0000
