data_image0
_chemical_formula_structural       SHFeSH2SFeSFeSNSCHCHFeS2FeS2FeS2FeS2FeCFeCS2C6H5CH2C6H4CH2CHNSC2SH3C3H3C3HSNC6H11SCHC2H2C2HCH2SH2CNHC4FeCHCHCFeCHCHCH2CH3SHCH3FeSFeS2FeS2FeSFeHS2FeSCFeS2FeSFeS3FeS4CNCHNHC2NC2H3C6H4C6H4C6H4C6H3FeHCHCHNC2HCH2CSCH2CH4C2HCH5CHNC6H2NH2CHC3HCHSHCH3CSHCHCHC2H2SCH3CH3C2NCH2CHCH2NHC3FeSFeS2FeS2FeSFeHS2FeS2FeS2FeSFeS3FeS2H2CH3C5HFeC7H4C6H4C6H4C6H4FeCH2C2H4NC3H2S2NC3HCH3CNC4HCH3CH7SC3HSH4CNCH2SH2SCHC2HC2HCHCHCH5C2H2CSHSC4HSCSCFeSFeSFeSCFeS2FeS2FeS2FeSFeCS2CH3FeC6H4C2H2CHC6H6CH3SC2H3CH2NH4CHNHFeH2CH2N2C6H2SH3C2NHCHCH2C3H4C2HC2H2C2SNHCHSHCHSCH2CHC2HNCHCHCH2FeS2FeS2FeS2FeS2C6H2NHC4H2C7H3C3HC5H2CHFeS2FeS2FeS2FeS2C6H4C2H2C6H3C4H4C4H2NC7HCH6NH2CHCH4CHC2HC2HSH4NC2HCH2C2HCSHCH4CH2CHCH2CH10CHSC2HCHSH2CHC2SFeSFeS2FeHFeHS2H4FeHC6H3C6H2CH3CSFeSFeS2HC6H4C3SC2H5CNC3HNH4C2HC2H2C2HCHCH3CHCHC2SH4CHCHFeC3H2CH2C4NHNCHCSH2SFeSFeSHFeSCFeS2C6H4C3SC2H2CHC2HFeSFeS2HC6H3C3NC2HC2HC4H4CHNCH7CSC2HC2HCHNFeCSH2C2H2SHCH8CHSCHCH3CHSHFeS2FeS2FeS2FeS2FeS2FeS2C4HCHCNHC4H4C5H3C4H2C4H2CHCHFeS2FeS2C6H4C2H3C5H4C2H2C2H3CH3C2HC2H7C2HCFeH2C2NC2H2CHCH3CHCNC6H6NHCH4C2H2C2HC3NC5H3C2H3C2H3CNHCSCHSFeHFeSFeS2H6FeS2FeSHFeS2FeNFeS3C6H4CH2SHNC6H4CHCHFeC3SCH2C3HCHC2NC6FeH2FeH3C3H3CHC2H2SNCH5NHSCSNC4HSCHC3HC2H3CH2CH2C2H3SHSNHC3FeSC2FeSFeS2FeS2FeSFeS3FeS2FeS2FeSFeS3FeS2H3CH3SCFeH2FeH2CHSC3SH2CHC6H4C6H4C6H4C6HNC6HSH4NC2H2CH2CH3C3H4C3HSCSCH3CHFeH2FeHNC3SH2CSC2SC3H5NCHNH2CH2CH2C2HCH2CSHC3H2CFeSFeS2FeS2FeSFeS3FeS2FeS2FeSFeS3CHFeNCHFeS3CHC2HC2HC2H3C6H4C6H4C6H4C6H3NCNC6H12CHCHCNH3C2H2CHCSCNHC2H2C2HCHC4HCH2CH3CNCHCH2CHCHCHC2H4CNH2SCSCHSFeSHFeHFeS2C3HNFeS2CHSC3FeS2FeSHFeS2FeCFeCS2HC2H2C6H5CSHC3HC6H4FeH2CHS2C2HCHFeSCSCNC6H8S2HC3H2SHC2H2SHNC4H2NHSH2CHCSCFeHCNHC2HC2SFeH4CS2HCHCHFeCFe
_chemical_formula_sum              "S256 H768 Fe128 N64 C768"
_cell_length_a       50.5042
_cell_length_b       51.5221
_cell_length_c       52.8184
_cell_angle_alpha    89.8647
_cell_angle_beta     90.0362
_cell_angle_gamma    90.2546

_space_group_name_H-M_alt    "P 1"
_space_group_IT_number       1

loop_
  _space_group_symop_operation_xyz
  'x, y, z'

loop_
  _atom_site_type_symbol
  _atom_site_label
  _atom_site_symmetry_multiplicity
  _atom_site_fract_x
  _atom_site_fract_y
  _atom_site_fract_z
  _atom_site_occupancy
  S   S1        1.0  0.02126  0.29274  0.98272  1.0000
  H   H1        1.0  0.30809  0.13052  0.43991  1.0000
  Fe  Fe1       1.0  0.24480  0.04250  0.42596  1.0000
  S   S2        1.0  0.24406  0.06641  0.38988  1.0000
  H   H2        1.0  0.22733  0.98784  0.00060  1.0000
  H   H3        1.0  0.00149  0.28785  0.42098  1.0000
  S   S3        1.0  0.24459  0.11730  0.42572  1.0000
  Fe  Fe2       1.0  0.21326  0.09067  0.40967  1.0000
  S   S4        1.0  0.17896  0.11123  0.38914  1.0000
  Fe  Fe3       1.0  0.27541  0.09121  0.40856  1.0000
  S   S5        1.0  0.30941  0.11330  0.38883  1.0000
  N   N1        1.0  0.14798  0.14742  0.99585  1.0000
  S   S6        1.0  0.21206  0.06525  0.44451  1.0000
  C   C1        1.0  0.30127  0.14880  0.44762  1.0000
  H   H4        1.0  0.04473  0.18663  0.40184  1.0000
  C   C2        1.0  0.14096  0.16107  0.04629  1.0000
  H   H5        1.0  0.03581  0.06807  0.32827  1.0000
  Fe  Fe4       1.0  0.01337  0.13036  0.07013  1.0000
  S   S7        1.0  0.04759  0.11540  0.04544  1.0000
  S   S8        1.0  0.01088  0.17097  0.08613  1.0000
  Fe  Fe5       1.0  0.02165  0.12055  0.35906  1.0000
  S   S9        1.0  0.05404  0.09399  0.37509  1.0000
  S   S10       1.0  0.02765  0.15055  0.32878  1.0000
  Fe  Fe6       1.0  0.20452  0.08501  0.02483  1.0000
  S   S11       1.0  0.20119  0.08435  0.98235  1.0000
  S   S12       1.0  0.17154  0.09029  0.05423  1.0000
  Fe  Fe7       1.0  0.26639  0.08666  0.02320  1.0000
  S   S13       1.0  0.26699  0.08660  0.98067  1.0000
  S   S14       1.0  0.30171  0.08737  0.05056  1.0000
  Fe  Fe8       1.0  0.23314  0.11491  0.98268  1.0000
  C   C3        1.0  0.28245  0.19122  0.44085  1.0000
  Fe  Fe9       1.0  0.23512  0.05557  0.98377  1.0000
  C   C4        1.0  0.23737  0.98684  0.96102  1.0000
  S   S15       1.0  0.23485  0.11699  0.02515  1.0000
  S   S16       1.0  0.23630  0.05413  0.02635  1.0000
  C   C5        1.0  0.13684  0.09606  0.05154  1.0000
  C   C6        1.0  0.12273  0.10433  0.07306  1.0000
  C   C7        1.0  0.09543  0.11012  0.07172  1.0000
  C   C8        1.0  0.08174  0.10731  0.04884  1.0000
  C   C9        1.0  0.09574  0.09857  0.02743  1.0000
  C   C10       1.0  0.12311  0.09311  0.02870  1.0000
  H   H6        1.0  0.13308  0.10649  0.09088  1.0000
  H   H7        1.0  0.08501  0.11668  0.08838  1.0000
  H   H8        1.0  0.08533  0.09610  0.00969  1.0000
  H   H9        1.0  0.13354  0.08645  0.01208  1.0000
  H   H10       1.0  0.02491  0.08134  0.29871  1.0000
  C   C11       1.0  0.12312  0.15275  0.00469  1.0000
  H   H11       1.0  0.10597  0.15057  0.99250  1.0000
  H   H12       1.0  0.02116  0.26570  0.07264  1.0000
  C   C12       1.0  0.14393  0.10671  0.38752  1.0000
  C   C13       1.0  0.13153  0.08354  0.39484  1.0000
  C   C14       1.0  0.10395  0.08027  0.39145  1.0000
  C   C15       1.0  0.08830  0.10017  0.38097  1.0000
  C   C16       1.0  0.10059  0.12355  0.37412  1.0000
  C   C17       1.0  0.12823  0.12667  0.37719  1.0000
  H   H13       1.0  0.14327  0.06798  0.40271  1.0000
  H   H14       1.0  0.09469  0.06211  0.39682  1.0000
  H   H15       1.0  0.08893  0.13900  0.36593  1.0000
  H   H16       1.0  0.13757  0.14467  0.37142  1.0000
  C   C18       1.0  0.04363  0.20152  0.41634  1.0000
  H   H17       1.0  0.18890  0.14372  0.00491  1.0000
  H   H18       1.0  0.07585  0.22405  0.40102  1.0000
  C   C19       1.0  0.23148  0.97557  0.98451  1.0000
  H   H19       1.0  0.02089  0.26542  0.38374  1.0000
  N   N2        1.0  0.18049  0.97467  0.43934  1.0000
  S   S17       1.0  0.24467  0.99828  0.42174  1.0000
  C   C20       1.0  0.01572  0.24969  0.01303  1.0000
  C   C21       1.0  0.24471  0.97447  0.44606  1.0000
  S   S18       1.0  0.27814  0.06579  0.44313  1.0000
  H   H20       1.0  0.27429  0.20586  0.42831  1.0000
  H   H21       1.0  0.03701  0.25073  0.01508  1.0000
  H   H22       1.0  0.27308  0.23153  0.95032  1.0000
  C   C22       1.0  0.02414  0.20016  0.43500  1.0000
  C   C23       1.0  0.06102  0.22262  0.41580  1.0000
  C   C24       1.0  0.16619  0.15544  0.03715  1.0000
  H   H23       1.0  0.29091  0.16402  0.41085  1.0000
  H   H24       1.0  0.01159  0.21626  0.03763  1.0000
  H   H25       1.0  0.19198  0.98487  0.40166  1.0000
  C   C25       1.0  0.16934  0.14862  0.01173  1.0000
  C   C26       1.0  0.00462  0.25653  0.39394  1.0000
  C   C27       1.0  0.99897  0.11881  0.21660  1.0000
  H   H26       1.0  0.18305  0.15515  0.04989  1.0000
  S   S19       1.0  0.22902  0.15568  0.96646  1.0000
  N   N3        1.0  0.06592  0.08757  0.30756  1.0000
  C   C28       1.0  0.08756  0.07988  0.32120  1.0000
  C   C29       1.0  0.06689  0.10969  0.29319  1.0000
  C   C30       1.0  0.11087  0.09465  0.32096  1.0000
  C   C31       1.0  0.08976  0.12514  0.29280  1.0000
  C   C32       1.0  0.11183  0.11756  0.30688  1.0000
  C   C33       1.0  0.04181  0.07164  0.30829  1.0000
  H   H27       1.0  0.08652  0.06274  0.33315  1.0000
  H   H28       1.0  0.04976  0.11584  0.28233  1.0000
  H   H29       1.0  0.12768  0.08893  0.33251  1.0000
  H   H30       1.0  0.09016  0.14303  0.28194  1.0000
  H   H31       1.0  0.12954  0.12958  0.30724  1.0000
  H   H32       1.0  0.04531  0.05278  0.29881  1.0000
  H   H33       1.0  0.00197  0.11759  0.17563  1.0000
  H   H34       1.0  0.28566  0.03313  0.05923  1.0000
  H   H35       1.0  0.13809  0.16525  0.06622  1.0000
  H   H36       1.0  0.27303  0.00417  0.04452  1.0000
  H   H37       1.0  0.17144  0.14376  0.96240  1.0000
  S   S20       1.0  0.00978  0.21641  0.36016  1.0000
  C   C34       1.0  0.15152  0.13834  0.96979  1.0000
  H   H38       1.0  0.07211  0.25861  0.43335  1.0000
  C   C35       1.0  0.11925  0.15987  0.02997  1.0000
  C   C36       1.0  0.17983  0.99992  0.44726  1.0000
  H   H39       1.0  0.13664  0.14705  0.95687  1.0000
  H   H40       1.0  0.16194  0.96574  0.40438  1.0000
  C   C37       1.0  0.00138  0.23014  0.02578  1.0000
  C   C38       1.0  0.05865  0.24217  0.43403  1.0000
  H   H41       1.0  0.09598  0.27995  0.95886  1.0000
  C   C39       1.0  0.99633  0.45348  0.44681  1.0000
  H   H42       1.0  0.04122  0.24130  0.10865  1.0000
  H   H43       1.0  0.30456  0.00341  0.06035  1.0000
  S   S21       1.0  0.23921  0.02116  0.95651  1.0000
  H   H44       1.0  0.14955  0.11685  0.96925  1.0000
  H   H45       1.0  0.01212  0.21598  0.13776  1.0000
  C   C40       1.0  0.18209  0.96881  0.41222  1.0000
  N   N4        1.0  0.30499  0.02323  0.02505  1.0000
  H   H46       1.0  0.09938  0.16300  0.03716  1.0000
  C   C41       1.0  0.29366  0.01860  0.00194  1.0000
  C   C42       1.0  0.29165  0.16779  0.43107  1.0000
  C   C43       1.0  0.30626  0.02665  0.97967  1.0000
  C   C44       1.0  0.01994  0.24113  0.10582  1.0000
  Fe  Fe10      1.0  0.00325  0.31716  0.95129  1.0000
  C   C45       1.0  0.00268  0.26787  0.99760  1.0000
  H   H47       1.0  0.18127  0.01567  0.43363  1.0000
  C   C46       1.0  0.00365  0.22695  0.12216  1.0000
  H   H48       1.0  0.27461  0.00894  0.00054  1.0000
  C   C47       1.0  0.29136  0.01551  0.04840  1.0000
  Fe  Fe11      1.0  0.99882  0.17469  0.35121  1.0000
  C   C48       1.0  0.00872  0.25484  0.08571  1.0000
  H   H49       1.0  0.29695  0.02314  0.96144  1.0000
  C   C49       1.0  0.99706  0.12934  0.19191  1.0000
  H   H50       1.0  0.27310  0.19879  0.96143  1.0000
  C   C50       1.0  0.01078  0.45574  0.98970  1.0000
  H   H51       1.0  0.00537  0.09895  0.21903  1.0000
  H   H52       1.0  0.02350  0.45230  0.00584  1.0000
  C   C51       1.0  0.00378  0.43481  0.97378  1.0000
  H   H53       1.0  0.00036  0.44626  0.42798  1.0000
  H   H54       1.0  0.01113  0.41552  0.97768  1.0000
  H   H55       1.0  0.01010  0.18416  0.43509  1.0000
  S   S22       1.0  0.99526  0.14578  0.38270  1.0000
  H   H56       1.0  0.30420  0.21616  0.95837  1.0000
  C   C52       1.0  0.06418  0.39383  0.89430  1.0000
  H   H57       1.0  0.30029  0.23894  0.64274  1.0000
  H   H58       1.0  0.09169  0.33404  0.91266  1.0000
  H   H59       1.0  0.14048  0.32860  0.91623  1.0000
  Fe  Fe12      1.0  0.02249  0.33278  0.89896  1.0000
  S   S23       1.0  0.05535  0.32784  0.86937  1.0000
  Fe  Fe13      1.0  0.23950  0.24959  0.55452  1.0000
  S   S24       1.0  0.24082  0.29173  0.54298  1.0000
  S   S25       1.0  0.23482  0.22418  0.51974  1.0000
  Fe  Fe14      1.0  0.24197  0.26333  0.61119  1.0000
  S   S26       1.0  0.24337  0.30593  0.60280  1.0000
  S   S27       1.0  0.24271  0.24621  0.65148  1.0000
  Fe  Fe15      1.0  0.21111  0.29774  0.57402  1.0000
  S   S28       1.0  0.17474  0.32424  0.57171  1.0000
  Fe  Fe16      1.0  0.27295  0.29559  0.57221  1.0000
  H   H60       1.0  0.15815  0.26156  0.89528  1.0000
  S   S29       1.0  0.20809  0.25553  0.58416  1.0000
  S   S30       1.0  0.27335  0.25316  0.58215  1.0000
  Fe  Fe17      1.0  0.27256  0.28205  0.85182  1.0000
  S   S31       1.0  0.26549  0.25274  0.82087  1.0000
  C   C53       1.0  0.30191  0.30886  0.78717  1.0000
  Fe  Fe18      1.0  0.21161  0.29290  0.85572  1.0000
  S   S32       1.0  0.20154  0.26420  0.82513  1.0000
  S   S33       1.0  0.18079  0.31238  0.88142  1.0000
  Fe  Fe19      1.0  0.23141  0.23855  0.84468  1.0000
  S   S34       1.0  0.22626  0.19543  0.85260  1.0000
  Fe  Fe20      1.0  0.23666  0.28103  0.80395  1.0000
  S   S35       1.0  0.23764  0.29616  0.76280  1.0000
  S   S36       1.0  0.23978  0.26615  0.87623  1.0000
  S   S37       1.0  0.24539  0.31156  0.83381  1.0000
  Fe  Fe21      1.0  0.02317  0.32283  0.51111  1.0000
  S   S38       1.0  0.01404  0.33081  0.47001  1.0000
  S   S39       1.0  0.06171  0.30099  0.52045  1.0000
  S   S40       1.0  0.24941  0.10393  0.49968  1.0000
  S   S41       1.0  0.31036  0.32062  0.56714  1.0000
  C   C54       1.0  0.22213  0.19196  0.92948  1.0000
  N   N5        1.0  0.02448  0.41631  0.88240  1.0000
  C   C55       1.0  0.28349  0.19559  0.46690  1.0000
  H   H61       1.0  0.15330  0.33130  0.62707  1.0000
  N   N6        1.0  0.31974  0.31900  0.80400  1.0000
  H   H62       1.0  0.32715  0.34143  0.63275  1.0000
  C   C56       1.0  0.22417  0.18402  0.88420  1.0000
  C   C57       1.0  0.22168  0.20123  0.90446  1.0000
  N   N7        1.0  0.03927  0.24082  0.45210  1.0000
  C   C58       1.0  0.22674  0.14795  0.91439  1.0000
  C   C59       1.0  0.22607  0.15727  0.88925  1.0000
  H   H63       1.0  0.21952  0.22172  0.90090  1.0000
  H   H64       1.0  0.22900  0.12741  0.91810  1.0000
  H   H65       1.0  0.22773  0.14377  0.87367  1.0000
  C   C60       1.0  0.23584  0.19014  0.51645  1.0000
  C   C61       1.0  0.24647  0.17389  0.53509  1.0000
  C   C62       1.0  0.24972  0.14721  0.53011  1.0000
  C   C63       1.0  0.24251  0.13676  0.50650  1.0000
  C   C64       1.0  0.23114  0.15291  0.48827  1.0000
  C   C65       1.0  0.22777  0.17944  0.49327  1.0000
  H   H66       1.0  0.25274  0.18197  0.55301  1.0000
  H   H67       1.0  0.25835  0.13475  0.54438  1.0000
  H   H68       1.0  0.22508  0.14507  0.47022  1.0000
  H   H69       1.0  0.21939  0.19187  0.47882  1.0000
  C   C66       1.0  0.14393  0.31788  0.55618  1.0000
  C   C67       1.0  0.12434  0.33727  0.55575  1.0000
  C   C68       1.0  0.09921  0.33266  0.54475  1.0000
  C   C69       1.0  0.09322  0.30843  0.53419  1.0000
  C   C70       1.0  0.11277  0.28899  0.53481  1.0000
  C   C71       1.0  0.13794  0.29366  0.54563  1.0000
  H   H70       1.0  0.12862  0.35605  0.56395  1.0000
  H   H71       1.0  0.08445  0.34781  0.54453  1.0000
  H   H72       1.0  0.10846  0.27017  0.52672  1.0000
  H   H73       1.0  0.15268  0.27848  0.54583  1.0000
  C   C72       1.0  0.24137  0.26060  0.68223  1.0000
  C   C73       1.0  0.24163  0.24441  0.70377  1.0000
  C   C74       1.0  0.24043  0.25481  0.72850  1.0000
  C   C75       1.0  0.23894  0.28168  0.73207  1.0000
  C   C76       1.0  0.23883  0.29789  0.71052  1.0000
  C   C77       1.0  0.24000  0.28749  0.68579  1.0000
  H   H74       1.0  0.24263  0.22358  0.70133  1.0000
  H   H75       1.0  0.24047  0.24201  0.74477  1.0000
  H   H76       1.0  0.23767  0.31870  0.71300  1.0000
  H   H77       1.0  0.23972  0.30030  0.66955  1.0000
  C   C78       1.0  0.09023  0.32382  0.87319  1.0000
  C   C79       1.0  0.10549  0.31603  0.85226  1.0000
  C   C80       1.0  0.13313  0.31240  0.85437  1.0000
  C   C81       1.0  0.14601  0.31695  0.87742  1.0000
  C   C82       1.0  0.13077  0.32498  0.89831  1.0000
  C   C83       1.0  0.10306  0.32814  0.89632  1.0000
  H   H78       1.0  0.09587  0.31272  0.83423  1.0000
  H   H79       1.0  0.14451  0.30637  0.83807  1.0000
  H   H80       1.0  0.17606  0.98997  0.51081  1.0000
  Fe  Fe22      1.0  0.24537  0.09044  0.45900  1.0000
  H   H81       1.0  0.19159  0.27744  0.65689  1.0000
  C   C84       1.0  0.29290  0.21320  0.87935  1.0000
  H   H82       1.0  0.05283  0.28110  0.93657  1.0000
  C   C85       1.0  0.24232  0.97039  0.94029  1.0000
  H   H83       1.0  0.24694  0.97884  0.92204  1.0000
  N   N8        1.0  0.30144  0.15292  0.47318  1.0000
  C   C86       1.0  0.28749  0.17790  0.91870  1.0000
  C   C87       1.0  0.02853  0.43385  0.90143  1.0000
  H   H84       1.0  0.05055  0.26956  0.89089  1.0000
  C   C88       1.0  0.22521  0.16541  0.93458  1.0000
  H   H85       1.0  0.22064  0.20556  0.94498  1.0000
  H   H86       1.0  0.30084  0.32981  0.65273  1.0000
  C   C89       1.0  0.28975  0.16889  0.89383  1.0000
  S   S42       1.0  0.31547  0.28038  0.86678  1.0000
  C   C90       1.0  0.31228  0.25483  0.63542  1.0000
  H   H87       1.0  0.18768  0.32318  0.62749  1.0000
  H   H88       1.0  0.13651  0.26695  0.93555  1.0000
  C   C91       1.0  0.31458  0.34440  0.81538  1.0000
  H   H89       1.0  0.13942  0.25818  0.86698  1.0000
  H   H90       1.0  0.00335  0.43655  0.85388  1.0000
  H   H91       1.0  0.28481  0.16392  0.93392  1.0000
  H   H92       1.0  0.28443  0.31976  0.78180  1.0000
  C   C92       1.0  0.29210  0.18672  0.87403  1.0000
  C   C93       1.0  0.00120  0.41907  0.86602  1.0000
  H   H93       1.0  0.01440  0.44933  0.90462  1.0000
  C   C94       1.0  0.29331  0.17617  0.48287  1.0000
  H   H94       1.0  0.30282  0.13437  0.50938  1.0000
  H   H95       1.0  0.14932  0.21841  0.61624  1.0000
  H   H96       1.0  0.12367  0.25280  0.59388  1.0000
  H   H97       1.0  0.28687  0.28421  0.65052  1.0000
  H   H98       1.0  0.24061  0.96681  0.51005  1.0000
  C   C95       1.0  0.04213  0.39663  0.87851  1.0000
  H   H99       1.0  0.04182  0.25410  0.49011  1.0000
  N   N9        1.0  0.16204  0.29082  0.63117  1.0000
  C   C96       1.0  0.17626  0.27210  0.64348  1.0000
  C   C97       1.0  0.14312  0.28404  0.61381  1.0000
  C   C98       1.0  0.17168  0.24579  0.63857  1.0000
  C   C99       1.0  0.13818  0.25794  0.60823  1.0000
  C   C100      1.0  0.15257  0.23871  0.62074  1.0000
  C   C101      1.0  0.17814  0.00582  0.47305  1.0000
  H   H100      1.0  0.27590  0.21353  0.47486  1.0000
  H   H101      1.0  0.13208  0.29885  0.60374  1.0000
  N   N10       1.0  0.11617  0.26069  0.90068  1.0000
  H   H102      1.0  0.04967  0.27838  0.46691  1.0000
  H   H103      1.0  0.30536  0.11306  0.48313  1.0000
  C   C102      1.0  0.16814  0.31822  0.63595  1.0000
  H   H104      1.0  0.08467  0.40878  0.92700  1.0000
  C   C103      1.0  0.05005  0.43131  0.91790  1.0000
  C   C104      1.0  0.09485  0.27446  0.93907  1.0000
  C   C105      1.0  0.14007  0.25229  0.88725  1.0000
  H   H105      1.0  0.29979  0.34217  0.83082  1.0000
  C   C106      1.0  0.24357  0.98109  0.47169  1.0000
  H   H106      1.0  0.00649  0.21941  0.46680  1.0000
  S   S43       1.0  0.02762  0.35113  0.93710  1.0000
  H   H107      1.0  0.24364  0.00133  0.47715  1.0000
  C   C107      1.0  0.06923  0.26838  0.90100  1.0000
  H   H108      1.0  0.18352  0.23110  0.64800  1.0000
  H   H109      1.0  0.30672  0.35818  0.80103  1.0000
  H   H110      1.0  0.99822  0.40181  0.85374  1.0000
  C   C108      1.0  0.02219  0.22014  0.45281  1.0000
  S   S44       1.0  0.00076  0.35789  0.52558  1.0000
  H   H111      1.0  0.03912  0.38271  0.86337  1.0000
  C   C109      1.0  0.06798  0.41113  0.91427  1.0000
  H   H112      1.0  0.07795  0.37805  0.89123  1.0000
  C   C110      1.0  0.03658  0.26146  0.47097  1.0000
  H   H113      1.0  0.17827  0.02590  0.47926  1.0000
  C   C111      1.0  0.09235  0.26104  0.88831  1.0000
  C   C112      1.0  0.31141  0.13259  0.49009  1.0000
  H   H114      1.0  0.09119  0.25636  0.86833  1.0000
  H   H115      1.0  0.16858  0.32220  0.65659  1.0000
  S   S45       1.0  0.99990  0.29814  0.91333  1.0000
  C   C113      1.0  0.30570  0.28414  0.77692  1.0000
  H   H116      1.0  0.29591  0.33257  0.61889  1.0000
  H   H117      1.0  0.28859  0.14827  0.88985  1.0000
  H   H118      1.0  0.29479  0.22722  0.86413  1.0000
  C   C114      1.0  0.11761  0.26707  0.92579  1.0000
  H   H119      1.0  0.14212  0.23088  0.88844  1.0000
  H   H120      1.0  0.29267  0.18009  0.85456  1.0000
  H   H121      1.0  0.29345  0.17953  0.50313  1.0000
  C   C115      1.0  0.29061  0.22156  0.90441  1.0000
  C   C116      1.0  0.17685  0.98568  0.49072  1.0000
  N   N11       1.0  0.28730  0.20397  0.92363  1.0000
  C   C117      1.0  0.31039  0.32743  0.63394  1.0000
  H   H122      1.0  0.32281  0.33714  0.87186  1.0000
  H   H123      1.0  0.01589  0.26870  0.47127  1.0000
  C   C118      1.0  0.07055  0.27511  0.92654  1.0000
  H   H124      1.0  0.29131  0.27610  0.76376  1.0000
  C   C119      1.0  0.30476  0.28053  0.63979  1.0000
  H   H125      1.0  0.29104  0.24226  0.90825  1.0000
  H   H126      1.0  0.05242  0.44467  0.93362  1.0000
  N   N12       1.0  0.31940  0.30069  0.63023  1.0000
  H   H127      1.0  0.30136  0.96996  0.50962  1.0000
  C   C120      1.0  0.32759  0.26960  0.78439  1.0000
  C   C121      1.0  0.24177  0.96148  0.49028  1.0000
  C   C122      1.0  0.28439  0.21308  0.94975  1.0000
  Fe  Fe23      1.0  0.02564  0.58589  0.41422  1.0000
  S   S46       1.0  0.06374  0.58099  0.39094  1.0000
  Fe  Fe24      1.0  0.25281  0.63246  0.12181  1.0000
  S   S47       1.0  0.24989  0.60120  0.09182  1.0000
  S   S48       1.0  0.25906  0.61697  0.16234  1.0000
  Fe  Fe25      1.0  0.25184  0.67490  0.08141  1.0000
  S   S49       1.0  0.24943  0.64663  0.04940  1.0000
  S   S50       1.0  0.25041  0.71857  0.07508  1.0000
  Fe  Fe26      1.0  0.21891  0.62596  0.07309  1.0000
  S   S51       1.0  0.18466  0.60958  0.04933  1.0000
  Fe  Fe27      1.0  0.28063  0.62416  0.07038  1.0000
  H   H128      1.0  0.19350  0.70350  0.08190  1.0000
  S   S52       1.0  0.21944  0.65564  0.10438  1.0000
  S   S53       1.0  0.28534  0.65399  0.10112  1.0000
  Fe  Fe28      1.0  0.27323  0.62073  0.35699  1.0000
  S   S54       1.0  0.28383  0.65606  0.33430  1.0000
  S   S55       1.0  0.30435  0.58988  0.36588  1.0000
  Fe  Fe29      1.0  0.21524  0.63870  0.36539  1.0000
  S   S56       1.0  0.22278  0.67543  0.34314  1.0000
  S   S57       1.0  0.17740  0.63790  0.38994  1.0000
  Fe  Fe30      1.0  0.24456  0.65043  0.31488  1.0000
  S   S58       1.0  0.24040  0.66376  0.27355  1.0000
  Fe  Fe31      1.0  0.26125  0.67789  0.36393  1.0000
  S   S59       1.0  0.28040  0.71374  0.38052  1.0000
  S   S60       1.0  0.23471  0.61319  0.33578  1.0000
  S   S61       1.0  0.25315  0.64296  0.38791  1.0000
  Fe  Fe32      1.0  0.02802  0.59810  0.02832  1.0000
  S   S62       1.0  0.05861  0.61277  0.05696  1.0000
  S   S63       1.0  0.03597  0.57560  0.99294  1.0000
  H   H129      1.0  0.29074  0.59488  0.31256  1.0000
  H   H130      1.0  0.21396  0.66444  0.42298  1.0000
  C   C123      1.0  0.00122  0.48098  0.98512  1.0000
  H   H131      1.0  0.10145  0.53808  0.40317  1.0000
  H   H132      1.0  0.16175  0.71781  0.07444  1.0000
  H   H133      1.0  0.13398  0.87123  0.97222  1.0000
  C   C124      1.0  0.26121  0.73616  0.39751  1.0000
  C   C125      1.0  0.23362  0.73626  0.39559  1.0000
  C   C126      1.0  0.23169  0.77418  0.42311  1.0000
  C   C127      1.0  0.25924  0.77377  0.42541  1.0000
  C   C128      1.0  0.27398  0.75500  0.41233  1.0000
  H   H134      1.0  0.22362  0.72183  0.38416  1.0000
  Fe  Fe33      1.0  0.00498  0.60096  0.97485  1.0000
  C   C129      1.0  0.23073  0.94828  0.98717  1.0000
  C   C130      1.0  0.24823  0.73150  0.04407  1.0000
  C   C131      1.0  0.24293  0.75806  0.04063  1.0000
  C   C132      1.0  0.23880  0.76837  0.01618  1.0000
  C   C133      1.0  0.23991  0.75207  0.99507  1.0000
  C   C134      1.0  0.24623  0.72580  0.99847  1.0000
  C   C135      1.0  0.25037  0.71557  0.02281  1.0000
  H   H135      1.0  0.24143  0.77058  0.05698  1.0000
  H   H136      1.0  0.23386  0.78864  0.01379  1.0000
  H   H137      1.0  0.24717  0.71306  0.98225  1.0000
  H   H138      1.0  0.25489  0.69527  0.02507  1.0000
  C   C136      1.0  0.14972  0.61297  0.05121  1.0000
  C   C137      1.0  0.13705  0.62224  0.07289  1.0000
  C   C138      1.0  0.10913  0.62276  0.07404  1.0000
  C   C139      1.0  0.09358  0.61425  0.05351  1.0000
  C   C140      1.0  0.10628  0.60570  0.03156  1.0000
  C   C141      1.0  0.13417  0.60492  0.03051  1.0000
  H   H139      1.0  0.14871  0.62837  0.08902  1.0000
  H   H140      1.0  0.09950  0.62938  0.09113  1.0000
  H   H141      1.0  0.09458  0.59927  0.01558  1.0000
  H   H142      1.0  0.14379  0.59783  0.01360  1.0000
  C   C142      1.0  0.25350  0.63039  0.19306  1.0000
  C   C143      1.0  0.24476  0.65585  0.19662  1.0000
  C   C144      1.0  0.24088  0.66559  0.22134  1.0000
  C   C145      1.0  0.24560  0.65009  0.24288  1.0000
  C   C146      1.0  0.25436  0.62461  0.23935  1.0000
  C   C147      1.0  0.25833  0.61490  0.21462  1.0000
  H   H143      1.0  0.24096  0.66805  0.18033  1.0000
  H   H144      1.0  0.23406  0.68530  0.22373  1.0000
  H   H145      1.0  0.25777  0.61229  0.25559  1.0000
  H   H146      1.0  0.26495  0.59513  0.21214  1.0000
  C   C148      1.0  0.09497  0.59757  0.39071  1.0000
  C   C149      1.0  0.10171  0.61639  0.40869  1.0000
  C   C150      1.0  0.12695  0.62842  0.40807  1.0000
  C   C151      1.0  0.14580  0.62198  0.38945  1.0000
  C   C152      1.0  0.13903  0.60317  0.37146  1.0000
  C   C153      1.0  0.11386  0.59102  0.37218  1.0000
  H   H147      1.0  0.08755  0.62165  0.42312  1.0000
  H   H148      1.0  0.13188  0.64285  0.42215  1.0000
  H   H149      1.0  0.15320  0.59794  0.35701  1.0000
  H   H150      1.0  0.10895  0.57654  0.35812  1.0000
  Fe  Fe34      1.0  0.00157  0.55012  0.00421  1.0000
  C   C154      1.0  0.31198  0.58869  0.12443  1.0000
  H   H151      1.0  0.30104  0.58570  0.28108  1.0000
  H   H152      1.0  0.18685  0.76789  0.33513  1.0000
  C   C155      1.0  0.18569  0.68004  0.03859  1.0000
  C   C156      1.0  0.18702  0.67011  0.01400  1.0000
  H   H153      1.0  0.28791  0.73481  0.29459  1.0000
  H   H154      1.0  0.16966  0.68435  0.42594  1.0000
  H   H155      1.0  0.28874  0.71706  0.32427  1.0000
  H   H156      1.0  0.18661  0.73554  0.30009  1.0000
  N   N13       1.0  0.07744  0.51364  0.42653  1.0000
  C   C157      1.0  0.25219  0.75242  0.33385  1.0000
  C   C158      1.0  0.24457  0.94805  0.43931  1.0000
  C   C159      1.0  0.18273  0.71630  0.06844  1.0000
  H   H157      1.0  0.25246  0.68544  0.44362  1.0000
  H   H158      1.0  0.22929  0.77884  0.35665  1.0000
  S   S64       1.0  0.23029  0.76246  0.96455  1.0000
  S   S65       1.0  0.31195  0.60165  0.04806  1.0000
  N   N14       1.0  0.25177  0.73432  0.31493  1.0000
  C   C160      1.0  0.20497  0.74060  0.30961  1.0000
  C   C161      1.0  0.08879  0.52039  0.40182  1.0000
  C   C162      1.0  0.23301  0.69411  0.44554  1.0000
  H   H159      1.0  0.27266  0.70319  0.29731  1.0000
  C   C163      1.0  0.22868  0.72874  0.30247  1.0000
  H   H160      1.0  0.19254  0.73563  0.06985  1.0000
  H   H161      1.0  0.07733  0.47288  0.41923  1.0000
  H   H162      1.0  0.19431  0.95126  0.40893  1.0000
  C   C164      1.0  0.18416  0.71374  0.99762  1.0000
  N   N15       1.0  0.09213  0.54045  0.04579  1.0000
  C   C165      1.0  0.06771  0.52976  0.04145  1.0000
  C   C166      1.0  0.09719  0.55344  0.06787  1.0000
  C   C167      1.0  0.04758  0.53192  0.05947  1.0000
  C   C168      1.0  0.16565  0.89307  0.95490  1.0000
  H   H163      1.0  0.24561  0.94273  0.41953  1.0000
  C   C169      1.0  0.11251  0.53865  0.02612  1.0000
  H   H164      1.0  0.06349  0.51981  0.02379  1.0000
  H   H165      1.0  0.29087  0.58732  0.12791  1.0000
  H   H166      1.0  0.19763  0.75593  0.40600  1.0000
  C   C170      1.0  0.07735  0.55635  0.08609  1.0000
  H   H167      1.0  0.11632  0.56255  0.07111  1.0000
  H   H168      1.0  0.13199  0.54621  0.03275  1.0000
  H   H169      1.0  0.11521  0.51812  0.02033  1.0000
  H   H170      1.0  0.10646  0.55030  0.00936  1.0000
  H   H171      1.0  0.27051  0.75685  0.34373  1.0000
  H   H172      1.0  0.18431  0.72723  0.98179  1.0000
  H   H173      1.0  0.31180  0.55931  0.09572  1.0000
  S   S66       1.0  0.01027  0.50647  0.00622  1.0000
  C   C171      1.0  0.21896  0.75560  0.40792  1.0000
  C   C172      1.0  0.22891  0.76492  0.34124  1.0000
  C   C173      1.0  0.18314  0.72302  0.02248  1.0000
  H   H174      1.0  0.17558  0.89742  0.97266  1.0000
  S   S67       1.0  0.21249  0.79764  0.43871  1.0000
  H   H175      1.0  0.18230  0.74380  0.02558  1.0000
  H   H176      1.0  0.18792  0.67971  0.97428  1.0000
  H   H177      1.0  0.26921  0.78817  0.43691  1.0000
  H   H178      1.0  0.29537  0.75507  0.41374  1.0000
  C   C174      1.0  0.21140  0.68221  0.43366  1.0000
  N   N16       1.0  0.18427  0.70623  0.04256  1.0000
  C   C175      1.0  0.27651  0.72178  0.30735  1.0000
  H   H179      1.0  0.08104  0.56781  0.10294  1.0000
  H   H180      1.0  0.07263  0.52450  0.38809  1.0000
  S   S68       1.0  0.23408  0.89751  0.97103  1.0000
  H   H181      1.0  0.18615  0.66664  0.05446  1.0000
  H   H182      1.0  0.10142  0.50458  0.39432  1.0000
  S   S69       1.0  0.99950  0.62530  0.00942  1.0000
  C   C176      1.0  0.20512  0.75873  0.32920  1.0000
  H   H183      1.0  0.28569  0.77197  0.96071  1.0000
  C   C177      1.0  0.23570  0.93183  0.96644  1.0000
  C   C178      1.0  0.05236  0.54562  0.08176  1.0000
  H   H184      1.0  0.18879  0.64934  0.01102  1.0000
  C   C179      1.0  0.30363  0.60032  0.29631  1.0000
  C   C180      1.0  0.18639  0.68711  0.99343  1.0000
  H   H185      1.0  0.22614  0.93983  0.00543  1.0000
  C   C181      1.0  0.07259  0.48818  0.43252  1.0000
  H   H186      1.0  0.22836  0.71473  0.28717  1.0000
  C   C182      1.0  0.14236  0.87840  0.95463  1.0000
  H   H187      1.0  0.02816  0.52360  0.05578  1.0000
  C   C183      1.0  0.32724  0.60677  0.13760  1.0000
  H   H188      1.0  0.29665  0.61931  0.28885  1.0000
  H   H189      1.0  0.99863  0.49388  0.43550  1.0000
  H   H190      1.0  0.03655  0.54841  0.09536  1.0000
  H   H191      1.0  0.07354  0.55318  0.43785  1.0000
  H   H192      1.0  0.01865  0.69885  0.95610  1.0000
  C   C184      1.0  0.18640  0.69339  0.43546  1.0000
  C   C185      1.0  0.07044  0.53296  0.44293  1.0000
  H   H193      1.0  0.05002  0.66242  0.95287  1.0000
  H   H194      1.0  0.32282  0.79405  0.98223  1.0000
  C   C186      1.0  0.30477  0.77302  0.95137  1.0000
  S   S70       1.0  0.99530  0.57129  0.04126  1.0000
  H   H195      1.0  0.31782  0.61967  0.15110  1.0000
  S   S71       1.0  0.99553  0.55322  0.41181  1.0000
  C   C187      1.0  0.32576  0.78558  0.96366  1.0000
  C   C188      1.0  0.32402  0.57265  0.10654  1.0000
  C   C189      1.0  0.18320  0.71617  0.44939  1.0000
  C   C190      1.0  0.24270  0.92843  0.45790  1.0000
  H   H196      1.0  0.04290  0.78471  0.66263  1.0000
  S   S72       1.0  0.23177  0.79962  0.90549  1.0000
  C   C191      1.0  0.03394  0.69952  0.94169  1.0000
  S   S73       1.0  0.23660  0.86216  0.90163  1.0000
  C   C192      1.0  0.30073  0.88544  0.53836  1.0000
  Fe  Fe35      1.0  0.20335  0.83271  0.90493  1.0000
  S   S74       1.0  0.16841  0.83423  0.87717  1.0000
  Fe  Fe36      1.0  0.26522  0.82853  0.90564  1.0000
  S   S75       1.0  0.29804  0.81365  0.87929  1.0000
  Fe  Fe37      1.0  0.01512  0.79530  0.57501  1.0000
  S   S76       1.0  0.04860  0.81547  0.55320  1.0000
  C   C193      1.0  0.17661  0.90156  0.93201  1.0000
  Fe  Fe38      1.0  0.01282  0.78668  0.86325  1.0000
  S   S77       1.0  0.04905  0.79294  0.88902  1.0000
  S   S78       1.0  0.01869  0.76568  0.60599  1.0000
  Fe  Fe39      1.0  0.20623  0.82105  0.52851  1.0000
  S   S79       1.0  0.19894  0.84480  0.49356  1.0000
  S   S80       1.0  0.17477  0.80474  0.55569  1.0000
  Fe  Fe40      1.0  0.26734  0.81860  0.51802  1.0000
  S   S81       1.0  0.26364  0.84156  0.48175  1.0000
  S   S82       1.0  0.30492  0.79859  0.53299  1.0000
  Fe  Fe41      1.0  0.23583  0.86717  0.50389  1.0000
  S   S83       1.0  0.23845  0.91133  0.50773  1.0000
  Fe  Fe42      1.0  0.22715  0.81719  0.47452  1.0000
  C   C194      1.0  0.03377  0.74340  0.48998  1.0000
  S   S84       1.0  0.24135  0.84528  0.54069  1.0000
  S   S85       1.0  0.23267  0.79239  0.50890  1.0000
  C   C195      1.0  0.24111  0.93508  0.48349  1.0000
  H   H197      1.0  0.31911  0.88471  0.54991  1.0000
  H   H198      1.0  0.24238  0.90821  0.45242  1.0000
  H   H199      1.0  0.20262  0.74539  0.47178  1.0000
  Fe  Fe43      1.0  0.23191  0.80312  0.94779  1.0000
  C   C196      1.0  0.08349  0.81055  0.55299  1.0000
  C   C197      1.0  0.09917  0.82544  0.53636  1.0000
  C   C198      1.0  0.12704  0.82344  0.53646  1.0000
  C   C199      1.0  0.13963  0.80665  0.55343  1.0000
  C   C200      1.0  0.12391  0.79153  0.56991  1.0000
  C   C201      1.0  0.09600  0.79330  0.56959  1.0000
  H   H200      1.0  0.08974  0.83889  0.52346  1.0000
  H   H201      1.0  0.13881  0.83524  0.52373  1.0000
  H   H202      1.0  0.13346  0.77852  0.58314  1.0000
  H   H203      1.0  0.08429  0.78186  0.58266  1.0000
  C   C202      1.0  0.20519  0.72745  0.46128  1.0000
  C   C203      1.0  0.03566  0.71643  0.49160  1.0000
  H   H204      1.0  0.11211  0.86119  0.93100  1.0000
  H   H205      1.0  0.07928  0.70700  0.55990  1.0000
  C   C204      1.0  0.13008  0.87283  0.93158  1.0000
  H   H206      1.0  0.08663  0.69984  0.88884  1.0000
  C   C205      1.0  0.13571  0.82140  0.88049  1.0000
  C   C206      1.0  0.12654  0.81079  0.90328  1.0000
  C   C207      1.0  0.10004  0.80215  0.90542  1.0000
  C   C208      1.0  0.08239  0.80374  0.88479  1.0000
  C   C209      1.0  0.09162  0.81418  0.86195  1.0000
  C   C210      1.0  0.11805  0.82308  0.85990  1.0000
  H   H207      1.0  0.13981  0.80941  0.91931  1.0000
  H   H208      1.0  0.09317  0.79416  0.92320  1.0000
  H   H209      1.0  0.07835  0.81562  0.84592  1.0000
  H   H210      1.0  0.12486  0.83129  0.84218  1.0000
  H   H211      1.0  0.04092  0.81379  0.68135  1.0000
  H   H212      1.0  0.29736  0.93661  0.54326  1.0000
  C   C211      1.0  0.07200  0.69962  0.90387  1.0000
  H   H213      1.0  0.00327  0.65048  0.55536  1.0000
  H   H214      1.0  0.04965  0.71873  0.57546  1.0000
  H   H215      1.0  0.07092  0.79533  0.68124  1.0000
  S   S86       1.0  0.02347  0.58883  0.45672  1.0000
  C   C212      1.0  0.17711  0.95997  0.48245  1.0000
  C   C213      1.0  0.05465  0.50103  0.47289  1.0000
  H   H216      1.0  0.17349  0.89005  0.87038  1.0000
  H   H217      1.0  0.24555  0.93080  0.92684  1.0000
  H   H218      1.0  0.04904  0.68781  0.56073  1.0000
  C   C214      1.0  0.07064  0.67880  0.92080  1.0000
  H   H219      1.0  0.99491  0.68993  0.87750  1.0000
  H   H220      1.0  0.01835  0.65016  0.89175  1.0000
  N   N17       1.0  0.30341  0.90485  0.51816  1.0000
  H   H221      1.0  0.99972  0.63315  0.51150  1.0000
  H   H222      1.0  0.29681  0.86572  0.53068  1.0000
  H   H223      1.0  0.11867  0.83119  0.61370  1.0000
  H   H224      1.0  0.05501  0.73617  0.89290  1.0000
  C   C215      1.0  0.05735  0.70777  0.55892  1.0000
  H   H225      1.0  0.28362  0.89019  0.55075  1.0000
  N   N18       1.0  0.03513  0.71964  0.92475  1.0000
  H   H226      1.0  0.17682  0.94412  0.49605  1.0000
  Fe  Fe44      1.0  0.23584  0.86235  0.94436  1.0000
  H   H227      1.0  0.26860  0.74730  0.92720  1.0000
  H   H228      1.0  0.04446  0.68400  0.51565  1.0000
  C   C216      1.0  0.05904  0.52693  0.46637  1.0000
  H   H229      1.0  0.05315  0.54222  0.47927  1.0000
  H   H230      1.0  0.13202  0.87715  0.89119  1.0000
  N   N19       1.0  0.04899  0.71999  0.53515  1.0000
  N   N20       1.0  0.06324  0.81727  0.64736  1.0000
  C   C217      1.0  0.08940  0.81732  0.64053  1.0000
  C   C218      1.0  0.04507  0.83066  0.63330  1.0000
  C   C219      1.0  0.09801  0.83151  0.61943  1.0000
  C   C220      1.0  0.05295  0.84484  0.61197  1.0000
  C   C221      1.0  0.07961  0.84535  0.60511  1.0000
  C   C222      1.0  0.04353  0.70499  0.51443  1.0000
  H   H231      1.0  0.10378  0.80623  0.65126  1.0000
  H   H232      1.0  0.02427  0.83024  0.63839  1.0000
  S   S87       1.0  0.01417  0.61893  0.93661  1.0000
  H   H233      1.0  0.03839  0.85477  0.60037  1.0000
  H   H234      1.0  0.08584  0.85569  0.58817  1.0000
  H   H235      1.0  0.04535  0.49617  0.49084  1.0000
  C   C223      1.0  0.30797  0.94199  0.48007  1.0000
  C   C224      1.0  0.05423  0.80199  0.66921  1.0000
  N   N21       1.0  0.16478  0.89550  0.90947  1.0000
  H   H236      1.0  0.08397  0.66246  0.91889  1.0000
  C   C225      1.0  0.30147  0.93064  0.52399  1.0000
  H   H237      1.0  0.31016  0.87687  0.48919  1.0000
  C   C226      1.0  0.04778  0.74646  0.53355  1.0000
  H   H238      1.0  0.00004  0.73703  0.93998  1.0000
  H   H239      1.0  0.29176  0.73102  0.90709  1.0000
  C   C227      1.0  0.04007  0.75857  0.51101  1.0000
  C   C228      1.0  0.05169  0.67883  0.93999  1.0000
  C   C229      1.0  0.28594  0.75029  0.91455  1.0000
  H   H240      1.0  0.05240  0.75839  0.54986  1.0000
  H   H241      1.0  0.03869  0.77959  0.51007  1.0000
  H   H242      1.0  0.27107  0.72515  0.46110  1.0000
  H   H243      1.0  0.03038  0.70434  0.47551  1.0000
  C   C230      1.0  0.01608  0.74092  0.92608  1.0000
  C   C231      1.0  0.25249  0.72835  0.47191  1.0000
  H   H244      1.0  0.16730  0.92327  0.87990  1.0000
  C   C232      1.0  0.14147  0.88187  0.90908  1.0000
  C   C233      1.0  0.99549  0.66264  0.54039  1.0000
  H   H245      1.0  0.00643  0.74338  0.90737  1.0000
  H   H246      1.0  0.27960  0.76288  0.89855  1.0000
  C   C234      1.0  0.31039  0.91568  0.47435  1.0000
  C   C235      1.0  0.05403  0.72007  0.90621  1.0000
  S   S88       1.0  0.00620  0.74627  0.84815  1.0000
  N   N22       1.0  0.30822  0.76251  0.92784  1.0000
  H   H247      1.0  0.02728  0.75252  0.47253  1.0000
  C   C236      1.0  0.00273  0.65821  0.90329  1.0000
  H   H248      1.0  0.16390  0.72521  0.45076  1.0000
  S   S89       1.0  0.26665  0.83052  0.94822  1.0000
  H   H249      1.0  0.30879  0.95646  0.46509  1.0000
  C   C237      1.0  0.24148  0.94309  0.94293  1.0000
  H   H250      1.0  0.25456  0.71997  0.49120  1.0000
  S   S90       1.0  0.20104  0.83454  0.94731  1.0000
  C   C238      1.0  0.30376  0.94958  0.50507  1.0000
  H   H251      1.0  0.19824  0.90744  0.88752  1.0000
  H   H252      1.0  0.19486  0.91268  0.93241  1.0000
  C   C239      1.0  0.30831  0.89727  0.49379  1.0000
  H   H253      1.0  0.31338  0.90958  0.45493  1.0000
  C   C240      1.0  0.06130  0.48148  0.45585  1.0000
  C   C241      1.0  0.17648  0.90463  0.88565  1.0000
  H   H254      1.0  0.02635  0.75934  0.93107  1.0000
  N   N23       1.0  0.22975  0.71657  0.45895  1.0000
  C   C242      1.0  0.99601  0.64617  0.92632  1.0000
  H   H255      1.0  0.25007  0.74972  0.47360  1.0000
  C   C243      1.0  0.99533  0.48050  0.45101  1.0000
  H   H256      1.0  0.05715  0.46131  0.46050  1.0000
  C   C244      1.0  0.17882  0.95479  0.45651  1.0000
  H   H257      1.0  0.17958  0.93476  0.45029  1.0000
  H   H258      1.0  0.50748  0.20084  0.02360  1.0000
  Fe  Fe45      1.0  0.45540  0.13601  0.06813  1.0000
  S   S91       1.0  0.42145  0.12817  0.03998  1.0000
  S   S92       1.0  0.45426  0.16911  0.09552  1.0000
  Fe  Fe46      1.0  0.49680  0.14383  0.31473  1.0000
  S   S93       1.0  0.50390  0.11156  0.34298  1.0000
  S   S94       1.0  0.51284  0.13623  0.27468  1.0000
  Fe  Fe47      1.0  0.47809  0.18058  0.35689  1.0000
  S   S95       1.0  0.48470  0.15117  0.38749  1.0000
  S   S96       1.0  0.45951  0.21888  0.36789  1.0000
  Fe  Fe48      1.0  0.46482  0.12360  0.36051  1.0000
  S   S97       1.0  0.43390  0.09433  0.37472  1.0000
  S   S98       1.0  0.45640  0.15339  0.33043  1.0000
  C   C245      1.0  0.38798  0.11747  0.04368  1.0000
  C   C246      1.0  0.37796  0.10850  0.06680  1.0000
  C   C247      1.0  0.35149  0.09965  0.06854  1.0000
  C   C248      1.0  0.34193  0.04427  0.00480  1.0000
  C   C249      1.0  0.34451  0.10902  0.02424  1.0000
  C   C250      1.0  0.37107  0.11759  0.02242  1.0000
  H   H259      1.0  0.39065  0.10816  0.08331  1.0000
  H   H260      1.0  0.65497  0.12728  0.41450  1.0000
  N   N24       1.0  0.39346  0.09388  0.30852  1.0000
  H   H261      1.0  0.37858  0.12440  0.00442  1.0000
  C   C251      1.0  0.47929  0.14492  0.19344  1.0000
  C   C252      1.0  0.49935  0.14008  0.24365  1.0000
  C   C253      1.0  0.47423  0.15056  0.23943  1.0000
  C   C254      1.0  0.46423  0.15275  0.21453  1.0000
  H   H262      1.0  0.46260  0.15713  0.25533  1.0000
  H   H263      1.0  0.44470  0.16077  0.21154  1.0000
  C   C255      1.0  0.33455  0.09991  0.04735  1.0000
  C   C256      1.0  0.36033  0.12761  0.37611  1.0000
  C   C257      1.0  0.38785  0.12403  0.37295  1.0000
  C   C258      1.0  0.39967  0.10064  0.38017  1.0000
  C   C259      1.0  0.38360  0.08105  0.39085  1.0000
  C   C260      1.0  0.35609  0.08471  0.39419  1.0000
  C   C261      1.0  0.36709  0.08957  0.31943  1.0000
  H   H264      1.0  0.39986  0.13929  0.36466  1.0000
  H   H265      1.0  0.39248  0.06285  0.39648  1.0000
  H   H266      1.0  0.34403  0.06937  0.40224  1.0000
  C   C262      1.0  0.50498  0.27388  0.42074  1.0000
  C   C263      1.0  0.47752  0.24023  0.38765  1.0000
  C   C264      1.0  0.46452  0.26131  0.39894  1.0000
  H   H267      1.0  0.44384  0.26469  0.39483  1.0000
  C   C265      1.0  0.49977  0.43437  0.97045  1.0000
  C   C266      1.0  0.41473  0.08007  0.31714  1.0000
  C   C267      1.0  0.43994  0.08415  0.30686  1.0000
  C   C268      1.0  0.49406  0.26447  0.03424  1.0000
  C   C269      1.0  0.49505  0.27378  0.00914  1.0000
  H   H268      1.0  0.48969  0.27773  0.04952  1.0000
  H   H269      1.0  0.49133  0.29405  0.00515  1.0000
  C   C270      1.0  0.33049  0.03966  0.98117  1.0000
  H   H270      1.0  0.50931  0.21709  0.97944  1.0000
  Fe  Fe49      1.0  0.48036  0.14530  0.12133  1.0000
  S   S99       1.0  0.47927  0.11076  0.09466  1.0000
  S   S100      1.0  0.46579  0.14930  0.16248  1.0000
  Fe  Fe50      1.0  0.49192  0.18311  0.07781  1.0000
  S   S101      1.0  0.49186  0.15178  0.04866  1.0000
  S   S102      1.0  0.49443  0.22649  0.07090  1.0000
  Fe  Fe51      1.0  0.51594  0.12900  0.07683  1.0000
  S   S103      1.0  0.54940  0.10446  0.05964  1.0000
  S   S104      1.0  0.51830  0.16179  0.10517  1.0000
  Fe  Fe52      1.0  0.52306  0.14200  0.36749  1.0000
  S   S105      1.0  0.56282  0.14330  0.38871  1.0000
  S   S106      1.0  0.51755  0.17386  0.33868  1.0000
  C   C271      1.0  0.64046  0.11314  0.05391  1.0000
  C   C272      1.0  0.62607  0.12826  0.07125  1.0000
  C   C273      1.0  0.59817  0.12663  0.07265  1.0000
  C   C274      1.0  0.58427  0.10948  0.05695  1.0000
  C   C275      1.0  0.59866  0.09457  0.03939  1.0000
  C   C276      1.0  0.62652  0.09657  0.03765  1.0000
  H   H271      1.0  0.63660  0.14109  0.08400  1.0000
  H   H272      1.0  0.58748  0.13809  0.08636  1.0000
  H   H273      1.0  0.58814  0.08120  0.02719  1.0000
  H   H274      1.0  0.63720  0.08465  0.02433  1.0000
  C   C277      1.0  0.50461  0.13485  0.19764  1.0000
  C   C278      1.0  0.51449  0.13237  0.22258  1.0000
  H   H275      1.0  0.51650  0.12879  0.18169  1.0000
  H   H276      1.0  0.53397  0.12426  0.22555  1.0000
  C   C279      1.0  0.63964  0.09477  0.39355  1.0000
  C   C280      1.0  0.61711  0.08469  0.38117  1.0000
  C   C281      1.0  0.59329  0.09896  0.37978  1.0000
  C   C282      1.0  0.59167  0.12355  0.39088  1.0000
  C   C283      1.0  0.61409  0.13345  0.40355  1.0000
  C   C284      1.0  0.63791  0.11924  0.40485  1.0000
  H   H277      1.0  0.61812  0.06575  0.37243  1.0000
  H   H278      1.0  0.57625  0.09101  0.37004  1.0000
  H   H279      1.0  0.61308  0.15237  0.41234  1.0000
  C   C285      1.0  0.34422  0.10798  0.38665  1.0000
  C   C286      1.0  0.47809  0.27787  0.41576  1.0000
  C   C287      1.0  0.51804  0.25306  0.40911  1.0000
  C   C288      1.0  0.50429  0.23605  0.39292  1.0000
  H   H280      1.0  0.34409  0.09258  0.08651  1.0000
  H   H281      1.0  0.51448  0.21987  0.38435  1.0000
  H   H282      1.0  0.41249  0.06629  0.33258  1.0000
  H   H283      1.0  0.42357  0.12931  0.26268  1.0000
  C   C289      1.0  0.50021  0.25664  0.98927  1.0000
  C   C290      1.0  0.50512  0.23041  0.99470  1.0000
  C   C291      1.0  0.50391  0.22111  0.01971  1.0000
  C   C292      1.0  0.49801  0.23802  0.03954  1.0000
  H   H284      1.0  0.43574  0.41181  0.97558  1.0000
  H   H285      1.0  0.47419  0.17137  0.99339  1.0000
  N   N25       1.0  0.44362  0.19810  0.00129  1.0000
  C   C293      1.0  0.44300  0.22046  0.98724  1.0000
  C   C294      1.0  0.43776  0.19860  0.02657  1.0000
  C   C295      1.0  0.43606  0.24405  0.99843  1.0000
  C   C296      1.0  0.43091  0.22186  0.03840  1.0000
  C   C297      1.0  0.43011  0.24472  0.02421  1.0000
  C   C298      1.0  0.45267  0.17386  0.98976  1.0000
  C   C299      1.0  0.50052  0.45118  0.43618  1.0000
  H   H286      1.0  0.56487  0.11243  0.29107  1.0000
  C   C300      1.0  0.43618  0.22294  0.44103  1.0000
  H   H287      1.0  0.42713  0.22222  0.05861  1.0000
  H   H288      1.0  0.46268  0.10534  0.27903  1.0000
  H   H289      1.0  0.44910  0.17369  0.96902  1.0000
  H   H290      1.0  0.35436  0.07877  0.30589  1.0000
  H   H291      1.0  0.43887  0.18102  0.03784  1.0000
  H   H292      1.0  0.62333  0.01033  0.04133  1.0000
  N   N26       1.0  0.49199  0.21473  0.15350  1.0000
  H   H293      1.0  0.41859  0.21898  0.42990  1.0000
  H   H294      1.0  0.49992  0.41087  0.44791  1.0000
  C   C301      1.0  0.58074  0.11879  0.30353  1.0000
  H   H295      1.0  0.45689  0.07386  0.31448  1.0000
  C   C302      1.0  0.57946  0.14313  0.31512  1.0000
  H   H296      1.0  0.46797  0.29406  0.42437  1.0000
  H   H297      1.0  0.36803  0.07833  0.33741  1.0000
  H   H298      1.0  0.35761  0.10841  0.32409  1.0000
  H   H299      1.0  0.35143  0.14570  0.37019  1.0000
  C   C303      1.0  0.43553  0.42192  0.95752  1.0000
  H   H300      1.0  0.33744  0.04017  0.04502  1.0000
  C   C304      1.0  0.45875  0.20787  0.43693  1.0000
  C   C305      1.0  0.46650  0.22046  0.14149  1.0000
  H   H301      1.0  0.49324  0.44400  0.00965  1.0000
  C   C306      1.0  0.60241  0.10279  0.30831  1.0000
  C   C307      1.0  0.53993  0.20271  0.17653  1.0000
  H   H302      1.0  0.37952  0.12210  0.28215  1.0000
  S   S107      1.0  0.52324  0.29489  0.44059  1.0000
  H   H303      1.0  0.55765  0.21377  0.14089  1.0000
  H   H304      1.0  0.45263  0.20383  0.14421  1.0000
  H   H305      1.0  0.33183  0.10925  0.00773  1.0000
  H   H306      1.0  0.51633  0.19270  0.20922  1.0000
  N   N27       1.0  0.59892  0.15109  0.33143  1.0000
  C   C308      1.0  0.44319  0.10192  0.28712  1.0000
  C   C309      1.0  0.51629  0.20017  0.18997  1.0000
  H   H307      1.0  0.53887  0.24998  0.41278  1.0000
  C   C310      1.0  0.59722  0.17662  0.34351  1.0000
  H   H308      1.0  0.46857  0.22355  0.12074  1.0000
  H   H309      1.0  0.45780  0.23818  0.14993  1.0000
  C   C311      1.0  0.51514  0.21796  0.14039  1.0000
  C   C312      1.0  0.53943  0.21183  0.15162  1.0000
  H   H310      1.0  0.41296  0.41650  0.43932  1.0000
  C   C313      1.0  0.49237  0.20641  0.17811  1.0000
  S   S108      1.0  0.49748  0.40040  0.97622  1.0000
  H   H311      1.0  0.44672  0.42133  0.42862  1.0000
  C   C314      1.0  0.65981  0.13282  0.98292  1.0000
  H   H312      1.0  0.44194  0.15689  0.99792  1.0000
  H   H313      1.0  0.51494  0.22479  0.12094  1.0000
  H   H314      1.0  0.55855  0.19742  0.18535  1.0000
  H   H315      1.0  0.65448  0.97960  0.02540  1.0000
  C   C315      1.0  0.39642  0.11129  0.28912  1.0000
  H   H316      1.0  0.42571  0.26305  0.03332  1.0000
  H   H317      1.0  0.34023  0.04639  0.96406  1.0000
  C   C316      1.0  0.62054  0.13578  0.33575  1.0000
  H   H318      1.0  0.43659  0.26186  0.98739  1.0000
  C   C317      1.0  0.42127  0.11549  0.27806  1.0000
  H   H319      1.0  0.60700  0.19156  0.33157  1.0000
  H   H320      1.0  0.47398  0.20360  0.18838  1.0000
  C   C318      1.0  0.62259  0.11139  0.32434  1.0000
  H   H321      1.0  0.64972  0.07082  0.09109  1.0000
  H   H322      1.0  0.63936  0.09898  0.32859  1.0000
  H   H323      1.0  0.56263  0.15544  0.31108  1.0000
  H   H324      1.0  0.60656  0.17630  0.36260  1.0000
  H   H325      1.0  0.57624  0.18216  0.34677  1.0000
  H   H326      1.0  0.44893  0.22042  0.96749  1.0000
  H   H327      1.0  0.43876  0.45972  0.97419  1.0000
  H   H328      1.0  0.50460  0.44670  0.41656  1.0000
  H   H329      1.0  0.45860  0.19276  0.42264  1.0000
  H   H330      1.0  0.63594  0.14197  0.34878  1.0000
  C   C319      1.0  0.49649  0.45167  0.99081  1.0000
  H   H331      1.0  0.60349  0.08371  0.29973  1.0000
  S   S109      1.0  0.49855  0.26639  0.95725  1.0000
  C   C320      1.0  0.65403  0.05459  0.07869  1.0000
  C   C321      1.0  0.63346  0.04077  0.06727  1.0000
  H   H332      1.0  0.36049  0.05487  0.00633  1.0000
  C   C322      1.0  0.63944  0.02060  0.05053  1.0000
  H   H333      1.0  0.61303  0.04618  0.07085  1.0000
  S   S110      1.0  0.46293  0.33840  0.95167  1.0000
  H   H334      1.0  0.63838  0.13743  0.98206  1.0000
  H   H335      1.0  0.49992  0.20270  0.44636  1.0000
  C   C323      1.0  0.43744  0.44901  0.95658  1.0000
  H   H336      1.0  0.39837  0.25660  0.44688  1.0000
  C   C324      1.0  0.32887  0.03577  0.02666  1.0000
  C   C325      1.0  0.43280  0.42404  0.44469  1.0000
  S   S111      1.0  0.49057  0.37222  0.90520  1.0000
  Fe  Fe53      1.0  0.45819  0.34188  0.90944  1.0000
  S   S112      1.0  0.41689  0.35117  0.89319  1.0000
  Fe  Fe54      1.0  0.46181  0.31674  0.51364  1.0000
  S   S113      1.0  0.46656  0.33818  0.47659  1.0000
  S   S114      1.0  0.42450  0.29218  0.52164  1.0000
  Fe  Fe55      1.0  0.50525  0.31684  0.47336  1.0000
  H   H337      1.0  0.33290  0.35312  0.82349  1.0000
  Fe  Fe56      1.0  0.49025  0.36758  0.49903  1.0000
  H   H338      1.0  0.57597  0.27562  0.94415  1.0000
  S   S115      1.0  0.49943  0.29369  0.50884  1.0000
  S   S116      1.0  0.48329  0.34717  0.53645  1.0000
  H   H339      1.0  0.62483  0.27128  0.94599  1.0000
  H   H340      1.0  0.43318  0.38683  0.93546  1.0000
  H   H341      1.0  0.50644  0.43151  0.93035  1.0000
  H   H342      1.0  0.35244  0.31190  0.60744  1.0000
  Fe  Fe57      1.0  0.49628  0.36749  0.94716  1.0000
  H   H343      1.0  0.54324  0.41893  0.49970  1.0000
  C   C326      1.0  0.34758  0.28721  0.54557  1.0000
  C   C327      1.0  0.37298  0.28145  0.53592  1.0000
  C   C328      1.0  0.39277  0.30075  0.53395  1.0000
  C   C329      1.0  0.38678  0.32593  0.54193  1.0000
  C   C330      1.0  0.36142  0.33166  0.55170  1.0000
  C   C331      1.0  0.34159  0.31242  0.55350  1.0000
  H   H344      1.0  0.37733  0.26188  0.52989  1.0000
  H   H345      1.0  0.40171  0.34100  0.54062  1.0000
  H   H346      1.0  0.35711  0.35122  0.55782  1.0000
  C   C332      1.0  0.38862  0.33103  0.88720  1.0000
  C   C333      1.0  0.38990  0.30389  0.88743  1.0000
  C   C334      1.0  0.36723  0.28884  0.88154  1.0000
  C   C335      1.0  0.34286  0.30059  0.87557  1.0000
  C   C336      1.0  0.34143  0.32772  0.87581  1.0000
  C   C337      1.0  0.36420  0.34278  0.88134  1.0000
  H   H347      1.0  0.40848  0.29449  0.89180  1.0000
  H   H348      1.0  0.36870  0.26790  0.88145  1.0000
  C   C338      1.0  0.62857  0.26294  0.90621  1.0000
  H   H349      1.0  0.36285  0.36373  0.88126  1.0000
  H   H350      1.0  0.33332  0.13364  0.49124  1.0000
  H   H351      1.0  0.36246  0.26878  0.80805  1.0000
  C   C339      1.0  0.61507  0.26010  0.88333  1.0000
  S   S117      1.0  0.48661  0.30948  0.90162  1.0000
  Fe  Fe58      1.0  0.51973  0.33901  0.90149  1.0000
  S   S118      1.0  0.55191  0.33282  0.87133  1.0000
  Fe  Fe59      1.0  0.52139  0.32590  0.52820  1.0000
  S   S119      1.0  0.52949  0.34809  0.49248  1.0000
  S   S120      1.0  0.55220  0.31803  0.55919  1.0000
  H   H352      1.0  0.36628  0.26696  0.59873  1.0000
  C   C340      1.0  0.64306  0.31019  0.55147  1.0000
  C   C341      1.0  0.63042  0.30526  0.57457  1.0000
  C   C342      1.0  0.60257  0.30714  0.57645  1.0000
  C   C343      1.0  0.58695  0.31350  0.55524  1.0000
  C   C344      1.0  0.59956  0.31781  0.53201  1.0000
  C   C345      1.0  0.62742  0.31638  0.53023  1.0000
  H   H353      1.0  0.64211  0.30067  0.59115  1.0000
  H   H354      1.0  0.59309  0.30389  0.59456  1.0000
  H   H355      1.0  0.58789  0.32272  0.51550  1.0000
  H   H356      1.0  0.63692  0.32018  0.51224  1.0000
  C   C346      1.0  0.58682  0.32830  0.87474  1.0000
  C   C347      1.0  0.60189  0.32095  0.85348  1.0000
  C   C348      1.0  0.62938  0.31615  0.85548  1.0000
  S   S121      1.0  0.48409  0.41154  0.50140  1.0000
  C   C349      1.0  0.62730  0.32676  0.89992  1.0000
  C   C350      1.0  0.59977  0.33122  0.89800  1.0000
  H   H357      1.0  0.59218  0.31878  0.83534  1.0000
  H   H358      1.0  0.64053  0.31023  0.83900  1.0000
  H   H359      1.0  0.63702  0.32911  0.91803  1.0000
  H   H360      1.0  0.58862  0.33706  0.91449  1.0000
  H   H361      1.0  0.59245  0.36725  0.56294  1.0000
  C   C351      1.0  0.45911  0.24805  0.47171  1.0000
  N   N28       1.0  0.55644  0.38694  0.55428  1.0000
  C   C352      1.0  0.54284  0.40141  0.53690  1.0000
  C   C353      1.0  0.55433  0.40782  0.51359  1.0000
  C   C354      1.0  0.54366  0.38029  0.57836  1.0000
  H   H362      1.0  0.57732  0.26191  0.86473  1.0000
  N   N29       1.0  0.57391  0.26882  0.90440  1.0000
  H   H363      1.0  0.52482  0.36969  0.57470  1.0000
  H   H364      1.0  0.55612  0.36712  0.59005  1.0000
  H   H365      1.0  0.53955  0.39813  0.58939  1.0000
  H   H366      1.0  0.45928  0.26370  0.48537  1.0000
  C   C355      1.0  0.43770  0.44801  0.91162  1.0000
  C   C356      1.0  0.34930  0.27051  0.61082  1.0000
  H   H367      1.0  0.44067  0.41222  0.46067  1.0000
  C   C357      1.0  0.54508  0.27160  0.90359  1.0000
  C   C358      1.0  0.43559  0.42090  0.91190  1.0000
  H   H368      1.0  0.33264  0.27215  0.54690  1.0000
  H   H369      1.0  0.43875  0.45804  0.89358  1.0000
  C   C359      1.0  0.34561  0.28004  0.80168  1.0000
  C   C360      1.0  0.48218  0.23367  0.46779  1.0000
  H   H370      1.0  0.65006  0.26200  0.90657  1.0000
  C   C361      1.0  0.58166  0.37883  0.54924  1.0000
  H   H371      1.0  0.53829  0.27846  0.88469  1.0000
  C   C362      1.0  0.34142  0.30497  0.81125  1.0000
  H   H372      1.0  0.35536  0.31277  0.82493  1.0000
  H   H373      1.0  0.40380  0.25341  0.48069  1.0000
  H   H374      1.0  0.50028  0.23867  0.47778  1.0000
  C   C363      1.0  0.59365  0.38463  0.52602  1.0000
  H   H375      1.0  0.53527  0.25287  0.90827  1.0000
  C   C364      1.0  0.57982  0.39918  0.50808  1.0000
  H   H376      1.0  0.33037  0.25016  0.77705  1.0000
  C   C365      1.0  0.49158  0.43635  0.47909  1.0000
  C   C366      1.0  0.50384  0.44454  0.94618  1.0000
  S   S122      1.0  0.52759  0.33640  0.94325  1.0000
  H   H377      1.0  0.58870  0.40353  0.48985  1.0000
  H   H378      1.0  0.52281  0.40777  0.54086  1.0000
  H   H379      1.0  0.43500  0.40991  0.89437  1.0000
  H   H380      1.0  0.61336  0.37747  0.52189  1.0000
  C   C367      1.0  0.64230  0.31889  0.87879  1.0000
  H   H381      1.0  0.53845  0.28635  0.91745  1.0000
  C   C368      1.0  0.58689  0.27109  0.92703  1.0000
  H   H382      1.0  0.62604  0.25684  0.86596  1.0000
  Fe  Fe60      1.0  0.49366  0.30801  0.94369  1.0000
  C   C369      1.0  0.58756  0.26315  0.88275  1.0000
  C   C370      1.0  0.61444  0.26839  0.92825  1.0000
  C   C371      1.0  0.33462  0.24983  0.62070  1.0000
  H   H383      1.0  0.65205  0.02873  0.46557  1.0000
  H   H384      1.0  0.34022  0.22999  0.61655  1.0000
  C   C372      1.0  0.34141  0.29595  0.61589  1.0000
  H   H385      1.0  0.42339  0.44317  0.49064  1.0000
  H   H386      1.0  0.41863  0.27974  0.46328  1.0000
  C   C373      1.0  0.41311  0.25882  0.46234  1.0000
  C   C374      1.0  0.43451  0.40785  0.93502  1.0000
  C   C375      1.0  0.42536  0.45810  0.47621  1.0000
  C   C376      1.0  0.49793  0.43083  0.45393  1.0000
  N   N30       1.0  0.43670  0.24294  0.45806  1.0000
  H   H387      1.0  0.65786  0.19325  0.58466  1.0000
  N   N31       1.0  0.43096  0.45150  0.45172  1.0000
  C   C377      1.0  0.48196  0.21349  0.45022  1.0000
  H   H388      1.0  0.66025  0.22717  0.59207  1.0000
  C   C378      1.0  0.34306  0.57912  0.31334  1.0000
  S   S123      1.0  0.49473  0.56999  0.38872  1.0000
  H   H389      1.0  0.66011  0.73765  0.01125  1.0000
  H   H390      1.0  0.36645  0.62248  0.14304  1.0000
  S   S124      1.0  0.49033  0.62036  0.42478  1.0000
  Fe  Fe61      1.0  0.46145  0.59245  0.40683  1.0000
  S   S125      1.0  0.42714  0.61213  0.38560  1.0000
  Fe  Fe62      1.0  0.50009  0.55829  0.98272  1.0000
  S   S126      1.0  0.49879  0.55823  0.02530  1.0000
  H   H391      1.0  0.53104  0.66403  0.42348  1.0000
  Fe  Fe63      1.0  0.50588  0.61748  0.97993  1.0000
  S   S127      1.0  0.50509  0.62108  0.02235  1.0000
  C   C379      1.0  0.35034  0.78735  0.95171  1.0000
  Fe  Fe64      1.0  0.47120  0.59256  0.02124  1.0000
  S   S128      1.0  0.43786  0.60182  0.04941  1.0000
  S   S129      1.0  0.47030  0.59095  0.97853  1.0000
  C   C380      1.0  0.34683  0.60607  0.04549  1.0000
  C   C381      1.0  0.36108  0.62180  0.06226  1.0000
  C   C382      1.0  0.38904  0.62129  0.06229  1.0000
  C   C383      1.0  0.40312  0.60564  0.04515  1.0000
  C   C384      1.0  0.38887  0.59102  0.02745  1.0000
  C   C385      1.0  0.36090  0.59112  0.02777  1.0000
  H   H392      1.0  0.35057  0.63352  0.07589  1.0000
  H   H393      1.0  0.39987  0.63272  0.07602  1.0000
  H   H394      1.0  0.39936  0.57876  0.01428  1.0000
  H   H395      1.0  0.35010  0.57892  0.01466  1.0000
  C   C386      1.0  0.39237  0.60606  0.38439  1.0000
  C   C387      1.0  0.38155  0.58119  0.38753  1.0000
  C   C388      1.0  0.35436  0.57671  0.38272  1.0000
  S   S130      1.0  0.51454  0.65602  0.96035  1.0000
  C   C389      1.0  0.34822  0.62206  0.37278  1.0000
  C   C390      1.0  0.37543  0.62646  0.37727  1.0000
  H   H396      1.0  0.39431  0.56525  0.39278  1.0000
  H   H397      1.0  0.34639  0.55727  0.38450  1.0000
  C   C391      1.0  0.36599  0.59147  0.11554  1.0000
  H   H398      1.0  0.38355  0.64576  0.37472  1.0000
  C   C392      1.0  0.49725  0.47725  0.44345  1.0000
  C   C393      1.0  0.49690  0.47880  0.98695  1.0000
  H   H399      1.0  0.49378  0.49180  0.00273  1.0000
  Fe  Fe65      1.0  0.52356  0.59590  0.40952  1.0000
  S   S131      1.0  0.55793  0.62032  0.39320  1.0000
  Fe  Fe66      1.0  0.53262  0.58713  0.02307  1.0000
  S   S132      1.0  0.56734  0.58356  0.05094  1.0000
  S   S133      1.0  0.53564  0.58506  0.98075  1.0000
  H   H400      1.0  0.54657  0.52882  0.04536  1.0000
  C   C394      1.0  0.64321  0.60506  0.06825  1.0000
  C   C395      1.0  0.61705  0.59527  0.06949  1.0000
  C   C396      1.0  0.59952  0.59781  0.04888  1.0000
  C   C397      1.0  0.60855  0.61015  0.02688  1.0000
  C   C398      1.0  0.63477  0.61968  0.02553  1.0000
  C   C399      1.0  0.64725  0.60493  0.38041  1.0000
  H   H401      1.0  0.61035  0.58567  0.08658  1.0000
  H   H402      1.0  0.59538  0.61216  0.01083  1.0000
  H   H403      1.0  0.56066  0.49681  0.04107  1.0000
  C   C400      1.0  0.59229  0.61373  0.38879  1.0000
  C   C401      1.0  0.60332  0.58940  0.39385  1.0000
  C   C402      1.0  0.63057  0.58506  0.38960  1.0000
  N   N32       1.0  0.35070  0.57420  0.10227  1.0000
  C   C403      1.0  0.63627  0.62934  0.37550  1.0000
  C   C404      1.0  0.60898  0.63364  0.37961  1.0000
  H   H404      1.0  0.59084  0.57384  0.40085  1.0000
  C   C405      1.0  0.65228  0.61725  0.04619  1.0000
  C   C406      1.0  0.38394  0.60247  0.32038  1.0000
  H   H405      1.0  0.60070  0.65252  0.37552  1.0000
  C   C407      1.0  0.36952  0.57934  0.32126  1.0000
  C   C408      1.0  0.34534  0.62411  0.30371  1.0000
  C   C409      1.0  0.37181  0.62504  0.31160  1.0000
  C   C410      1.0  0.56499  0.51796  0.04102  1.0000
  H   H406      1.0  0.60860  0.54631  0.03169  1.0000
  H   H407      1.0  0.65637  0.60297  0.08428  1.0000
  H   H408      1.0  0.38219  0.56422  0.07706  1.0000
  H   H409      1.0  0.54313  0.50887  0.99621  1.0000
  C   C411      1.0  0.60708  0.54968  0.99124  1.0000
  H   H410      1.0  0.61418  0.60601  0.32741  1.0000
  N   N33       1.0  0.57525  0.52619  0.01630  1.0000
  C   C412      1.0  0.35444  0.60826  0.13313  1.0000
  H   H411      1.0  0.62461  0.56191  0.99026  1.0000
  H   H412      1.0  0.40414  0.60312  0.32751  1.0000
  H   H413      1.0  0.64873  0.64479  0.36826  1.0000
  H   H414      1.0  0.63877  0.56608  0.39343  1.0000
  H   H415      1.0  0.36673  0.79730  0.96085  1.0000
  H   H416      1.0  0.59976  0.55030  0.95102  1.0000
  H   H417      1.0  0.64155  0.62900  0.00833  1.0000
  C   C413      1.0  0.56138  0.51993  0.99491  1.0000
  S   S134      1.0  0.45921  0.56670  0.44131  1.0000
  C   C414      1.0  0.33760  0.59703  0.37498  1.0000
  C   C415      1.0  0.63327  0.62846  0.29799  1.0000
  H   H418      1.0  0.57923  0.52220  0.05655  1.0000
  C   C416      1.0  0.54774  0.67351  0.43369  1.0000
  C   C417      1.0  0.57019  0.52814  0.97110  1.0000
  H   H419      1.0  0.54424  0.69476  0.43337  1.0000
  C   C418      1.0  0.59311  0.54325  0.96931  1.0000
  H   H420      1.0  0.65539  0.71051  0.04773  1.0000
  N   N34       1.0  0.33138  0.60128  0.30453  1.0000
  Fe  Fe67      1.0  0.49426  0.54576  0.42464  1.0000
  C   C419      1.0  0.43179  0.49659  0.43993  1.0000
  S   S135      1.0  0.52502  0.57046  0.44421  1.0000
  H   H421      1.0  0.55191  0.62404  0.44685  1.0000
  H   H422      1.0  0.33566  0.63792  0.36692  1.0000
  C   C420      1.0  0.59791  0.54078  0.01470  1.0000
  C   C421      1.0  0.50095  0.48895  0.96267  1.0000
  H   H423      1.0  0.38712  0.59284  0.11199  1.0000
  H   H424      1.0  0.56626  0.66927  0.42313  1.0000
  S   S136      1.0  0.49709  0.50172  0.41970  1.0000
  H   H425      1.0  0.43528  0.51145  0.42568  1.0000
  C   C422      1.0  0.36303  0.55638  0.08422  1.0000
  H   H426      1.0  0.37846  0.56197  0.32909  1.0000
  H   H427      1.0  0.55881  0.52341  0.95426  1.0000
  H   H428      1.0  0.38267  0.64325  0.31162  1.0000
  H   H429      1.0  0.33162  0.56134  0.31513  1.0000
  H   H430      1.0  0.33595  0.64184  0.29732  1.0000
  H   H431      1.0  0.65751  0.64672  0.26930  1.0000
  H   H432      1.0  0.43887  0.46523  0.41427  1.0000
  H   H433      1.0  0.36659  0.53731  0.09335  1.0000
  C   C423      1.0  0.43387  0.47033  0.43359  1.0000
  H   H434      1.0  0.35008  0.55367  0.06736  1.0000
  S   S137      1.0  0.50038  0.52288  0.95630  1.0000
  C   C424      1.0  0.65251  0.59062  0.31756  1.0000
  H   H435      1.0  0.65423  0.67932  0.03196  1.0000
  C   C425      1.0  0.63148  0.60806  0.31533  1.0000
  H   H436      1.0  0.61727  0.64234  0.29636  1.0000
  H   H437      1.0  0.65121  0.57512  0.33147  1.0000
  H   H438      1.0  0.65955  0.75499  0.42381  1.0000
  C   C426      1.0  0.65581  0.63094  0.28287  1.0000
  H   H439      1.0  0.44472  0.49861  0.95180  1.0000
  S   S138      1.0  0.48852  0.60732  0.49885  1.0000
  H   H440      1.0  0.49236  0.68299  0.55541  1.0000
  Fe  Fe68      1.0  0.49179  0.75245  0.55699  1.0000
  S   S139      1.0  0.49366  0.79440  0.54514  1.0000
  S   S140      1.0  0.49367  0.72813  0.52116  1.0000
  Fe  Fe69      1.0  0.48753  0.76757  0.61315  1.0000
  S   S141      1.0  0.48888  0.81023  0.60422  1.0000
  S   S142      1.0  0.48669  0.75017  0.65326  1.0000
  Fe  Fe70      1.0  0.46017  0.80051  0.57252  1.0000
  S   S143      1.0  0.42616  0.82618  0.55802  1.0000
  S   S144      1.0  0.45688  0.75829  0.58287  1.0000
  Fe  Fe71      1.0  0.48478  0.74668  0.84644  1.0000
  S   S145      1.0  0.48542  0.77605  0.87760  1.0000
  S   S146      1.0  0.48200  0.70333  0.85416  1.0000
  Fe  Fe72      1.0  0.48870  0.78737  0.80456  1.0000
  S   S147      1.0  0.48982  0.81963  0.83355  1.0000
  S   S148      1.0  0.48940  0.80253  0.76344  1.0000
  Fe  Fe73      1.0  0.45672  0.79841  0.85351  1.0000
  S   S149      1.0  0.42421  0.82269  0.87237  1.0000
  S   S150      1.0  0.45375  0.76775  0.82334  1.0000
  C   C427      1.0  0.39209  0.81870  0.55254  1.0000
  C   C428      1.0  0.38039  0.79554  0.56086  1.0000
  C   C429      1.0  0.35356  0.79013  0.55524  1.0000
  C   C430      1.0  0.64176  0.89091  0.89280  1.0000
  H   H441      1.0  0.56138  0.75416  0.87008  1.0000
  C   C431      1.0  0.37650  0.83636  0.53866  1.0000
  H   H442      1.0  0.39201  0.78177  0.57161  1.0000
  C   C432      1.0  0.42847  0.80574  0.49581  1.0000
  N   N35       1.0  0.55876  0.71929  0.89207  1.0000
  H   H443      1.0  0.38534  0.85432  0.53210  1.0000
  C   C433      1.0  0.48566  0.76519  0.68370  1.0000
  C   C434      1.0  0.48726  0.78737  0.73310  1.0000
  C   C435      1.0  0.48765  0.76041  0.73004  1.0000
  C   C436      1.0  0.48690  0.74945  0.70553  1.0000
  H   H444      1.0  0.48877  0.74796  0.74654  1.0000
  H   H445      1.0  0.48747  0.72856  0.70346  1.0000
  H   H446      1.0  0.56736  0.67189  0.93578  1.0000
  H   H447      1.0  0.43534  0.72300  0.52832  1.0000
  C   C437      1.0  0.37519  0.83548  0.89126  1.0000
  C   C438      1.0  0.38938  0.81841  0.87556  1.0000
  C   C439      1.0  0.37535  0.79965  0.86187  1.0000
  C   C440      1.0  0.34744  0.79874  0.86310  1.0000
  C   C441      1.0  0.54924  0.67959  0.47991  1.0000
  H   H448      1.0  0.38582  0.85008  0.90194  1.0000
  H   H449      1.0  0.38596  0.78630  0.84982  1.0000
  H   H450      1.0  0.54772  0.74210  0.68395  1.0000
  C   C442      1.0  0.42648  0.50353  0.46491  1.0000
  C   C443      1.0  0.49110  0.65276  0.91284  1.0000
  C   C444      1.0  0.48441  0.66370  0.88918  1.0000
  C   C445      1.0  0.48637  0.69064  0.88510  1.0000
  H   H451      1.0  0.49049  0.63194  0.91551  1.0000
  H   H452      1.0  0.47846  0.65118  0.87376  1.0000
  C   C446      1.0  0.48670  0.64092  0.50549  1.0000
  C   C447      1.0  0.48884  0.69456  0.51636  1.0000
  C   C448      1.0  0.48571  0.68581  0.49140  1.0000
  C   C449      1.0  0.48459  0.65917  0.48600  1.0000
  H   H453      1.0  0.48468  0.69970  0.47605  1.0000
  H   H454      1.0  0.48246  0.65281  0.46669  1.0000
  C   C450      1.0  0.54875  0.67753  0.87422  1.0000
  H   H455      1.0  0.41943  0.48941  0.50276  1.0000
  C   C451      1.0  0.34977  0.83080  0.53279  1.0000
  H   H456      1.0  0.49039  0.63566  0.54586  1.0000
  Fe  Fe74      1.0  0.52207  0.79989  0.57726  1.0000
  S   S151      1.0  0.55995  0.82475  0.57636  1.0000
  S   S152      1.0  0.52221  0.75766  0.58777  1.0000
  Fe  Fe75      1.0  0.51847  0.79497  0.85552  1.0000
  S   S153      1.0  0.55179  0.81212  0.88005  1.0000
  S   S154      1.0  0.51969  0.76399  0.82548  1.0000
  C   C452      1.0  0.59014  0.81911  0.55959  1.0000
  C   C453      1.0  0.59419  0.79676  0.54511  1.0000
  C   C454      1.0  0.61850  0.79298  0.53241  1.0000
  C   C455      1.0  0.63914  0.81143  0.53389  1.0000
  C   C456      1.0  0.63510  0.83379  0.54838  1.0000
  C   C457      1.0  0.61079  0.83754  0.56114  1.0000
  H   H457      1.0  0.57860  0.78237  0.54368  1.0000
  H   H458      1.0  0.62132  0.77560  0.52132  1.0000
  H   H459      1.0  0.65068  0.84819  0.54977  1.0000
  H   H460      1.0  0.60795  0.85493  0.57224  1.0000
  C   C458      1.0  0.48488  0.79216  0.68677  1.0000
  C   C459      1.0  0.48577  0.80313  0.71128  1.0000
  H   H461      1.0  0.48389  0.80457  0.67025  1.0000
  H   H462      1.0  0.48539  0.82401  0.71334  1.0000
  H   H463      1.0  0.33674  0.84732  0.90524  1.0000
  C   C460      1.0  0.62958  0.81924  0.89990  1.0000
  C   C461      1.0  0.60163  0.81954  0.89996  1.0000
  C   C462      1.0  0.58698  0.81034  0.87910  1.0000
  C   C463      1.0  0.60067  0.80064  0.85817  1.0000
  C   C464      1.0  0.62863  0.80061  0.85799  1.0000
  H   H464      1.0  0.50783  0.70819  0.94377  1.0000
  H   H465      1.0  0.59125  0.82702  0.91629  1.0000
  H   H466      1.0  0.58975  0.79361  0.84193  1.0000
  H   H467      1.0  0.63901  0.79348  0.84151  1.0000
  C   C465      1.0  0.49403  0.70662  0.90518  1.0000
  C   C466      1.0  0.50094  0.69571  0.92867  1.0000
  H   H468      1.0  0.49556  0.72731  0.90242  1.0000
  H   H469      1.0  0.43420  0.80437  0.47559  1.0000
  C   C467      1.0  0.48889  0.64966  0.53063  1.0000
  C   C468      1.0  0.48993  0.67644  0.53610  1.0000
  H   H470      1.0  0.34481  0.77212  0.56179  1.0000
  H   H471      1.0  0.38595  0.78540  0.77224  1.0000
  H   H472      1.0  0.37840  0.84636  0.82696  1.0000
  C   C469      1.0  0.50456  0.47165  0.94238  1.0000
  H   H473      1.0  0.57538  0.83668  0.62899  1.0000
  H   H474      1.0  0.54698  0.70035  0.47734  1.0000
  H   H475      1.0  0.35867  0.80962  0.80356  1.0000
  C   C470      1.0  0.42315  0.48420  0.48321  1.0000
  C   C471      1.0  0.33228  0.76407  0.91605  1.0000
  H   H476      1.0  0.54392  0.78178  0.71029  1.0000
  C   C472      1.0  0.44030  0.49013  0.93290  1.0000
  C   C473      1.0  0.50003  0.66874  0.93249  1.0000
  H   H477      1.0  0.53980  0.83844  0.62894  1.0000
  H   H478      1.0  0.55275  0.64489  0.89954  1.0000
  H   H479      1.0  0.41611  0.86975  0.84020  1.0000
  H   H480      1.0  0.54382  0.71369  0.85463  1.0000
  H   H481      1.0  0.55852  0.85145  0.65517  1.0000
  H   H482      1.0  0.54924  0.68267  0.52069  1.0000
  H   H483      1.0  0.41443  0.82205  0.49848  1.0000
  C   C474      1.0  0.55039  0.70456  0.87206  1.0000
  C   C475      1.0  0.34733  0.83401  0.89313  1.0000
  H   H484      1.0  0.56197  0.78977  0.61863  1.0000
  C   C476      1.0  0.56509  0.70783  0.91466  1.0000
  Fe  Fe76      1.0  0.49003  0.59350  0.45803  1.0000
  H   H485      1.0  0.35747  0.75081  0.50956  1.0000
  H   H486      1.0  0.48962  0.50275  0.47476  1.0000
  C   C477      1.0  0.55227  0.64294  0.50827  1.0000
  C   C478      1.0  0.39009  0.77708  0.50242  1.0000
  N   N36       1.0  0.41681  0.78112  0.50435  1.0000
  C   C479      1.0  0.49214  0.48280  0.46888  1.0000
  C   C480      1.0  0.43294  0.76187  0.51314  1.0000
  H   H487      1.0  0.43260  0.79884  0.76463  1.0000
  H   H488      1.0  0.33675  0.78457  0.85192  1.0000
  C   C481      1.0  0.56363  0.68086  0.91749  1.0000
  H   H489      1.0  0.38662  0.71573  0.52618  1.0000
  C   C482      1.0  0.48923  0.46244  0.48656  1.0000
  H   H490      1.0  0.45414  0.76493  0.51420  1.0000
  H   H491      1.0  0.62553  0.89533  0.90548  1.0000
  H   H492      1.0  0.61704  0.86771  0.86807  1.0000
  C   C483      1.0  0.39509  0.73398  0.51976  1.0000
  H   H493      1.0  0.44628  0.81072  0.50729  1.0000
  C   C484      1.0  0.64328  0.81001  0.87876  1.0000
  N   N37       1.0  0.41619  0.84308  0.80918  1.0000
  C   C485      1.0  0.39030  0.83620  0.81308  1.0000
  C   C486      1.0  0.43117  0.83015  0.79174  1.0000
  C   C487      1.0  0.37901  0.81539  0.79988  1.0000
  C   C488      1.0  0.42049  0.80930  0.77816  1.0000
  C   C489      1.0  0.55064  0.66970  0.50457  1.0000
  C   C490      1.0  0.55893  0.74765  0.89002  1.0000
  H   H494      1.0  0.33482  0.75622  0.89718  1.0000
  H   H495      1.0  0.44797  0.86013  0.82974  1.0000
  H   H496      1.0  0.55675  0.74619  0.63790  1.0000
  H   H497      1.0  0.42134  0.49838  0.92601  1.0000
  H   H498      1.0  0.57044  0.71959  0.93089  1.0000
  H   H499      1.0  0.64053  0.82655  0.91601  1.0000
  N   N38       1.0  0.43864  0.46170  0.93380  1.0000
  H   H500      1.0  0.57556  0.75632  0.90095  1.0000
  C   C491      1.0  0.42237  0.73808  0.52109  1.0000
  H   H501      1.0  0.54804  0.82497  0.69025  1.0000
  H   H502      1.0  0.45162  0.83575  0.78843  1.0000
  H   H503      1.0  0.65354  0.92445  0.92787  1.0000
  H   H504      1.0  0.42877  0.88239  0.81050  1.0000
  C   C492      1.0  0.55745  0.83543  0.64119  1.0000
  C   C493      1.0  0.55535  0.66567  0.89712  1.0000
  H   H505      1.0  0.54088  0.66609  0.85869  1.0000
  H   H506      1.0  0.37723  0.79236  0.49558  1.0000
  C   C494      1.0  0.63676  0.87540  0.87160  1.0000
  C   C495      1.0  0.42776  0.86505  0.82295  1.0000
  H   H507      1.0  0.50777  0.47926  0.92351  1.0000
  C   C496      1.0  0.35370  0.77647  0.92778  1.0000
  C   C497      1.0  0.37879  0.75354  0.51027  1.0000
  C   C498      1.0  0.33323  0.81584  0.87877  1.0000
  N   N39       1.0  0.55585  0.80987  0.65336  1.0000
  C   C499      1.0  0.55087  0.80779  0.67877  1.0000
  C   C500      1.0  0.55838  0.78809  0.63882  1.0000
  C   C501      1.0  0.54865  0.78340  0.69029  1.0000
  C   C502      1.0  0.55580  0.76340  0.64964  1.0000
  C   C503      1.0  0.55088  0.76110  0.67553  1.0000
  H   H508      1.0  0.33846  0.84419  0.52142  1.0000
  H   H509      1.0  0.55206  0.63491  0.52727  1.0000
  H   H510      1.0  0.54002  0.75561  0.89735  1.0000
  C   C504      1.0  0.39430  0.80179  0.78241  1.0000
  C   C505      1.0  0.65766  0.86867  0.85570  1.0000
  H   H511      1.0  0.42545  0.52388  0.47014  1.0000
  H   H512      1.0  0.55325  0.60556  0.49005  1.0000
  H   H513      1.0  0.45667  0.49645  0.92019  1.0000
  C   C506      1.0  0.55289  0.62644  0.48738  1.0000
  C   C507      1.0  0.55168  0.63699  0.46300  1.0000
  H   H514      1.0  0.37262  0.77811  0.91811  1.0000
  H   H515      1.0  0.65431  0.85556  0.83994  1.0000
  H   H516      1.0  0.48445  0.46695  0.50602  1.0000
  C   C508      1.0  0.33805  0.80762  0.54110  1.0000
  N   N40       1.0  0.54960  0.66322  0.45953  1.0000
  H   H517      1.0  0.69630  0.05942  0.08147  1.0000
  C   C509      1.0  0.96252  0.23384  0.42015  1.0000
  S   S155      1.0  0.73963  0.05211  0.40990  1.0000
  C   C510      1.0  0.69768  0.19066  0.00630  1.0000
  H   H518      1.0  0.92073  0.11475  0.12759  1.0000
  S   S156      1.0  0.73988  0.11493  0.40653  1.0000
  Fe  Fe77      1.0  0.70925  0.08402  0.41369  1.0000
  H   H519      1.0  0.70593  0.02304  0.05237  1.0000
  Fe  Fe78      1.0  0.77084  0.08367  0.40674  1.0000
  S   S157      1.0  0.80306  0.08656  0.37623  1.0000
  Fe  Fe79      1.0  0.95356  0.12010  0.07985  1.0000
  S   S158      1.0  0.91889  0.09174  0.07602  1.0000
  S   S159      1.0  0.94789  0.15945  0.09646  1.0000
  H   H520      1.0  0.94198  0.45107  0.41922  1.0000
  H   H521      1.0  0.68867  0.98194  0.03412  1.0000
  H   H522      1.0  0.87935  0.16926  0.44673  1.0000
  H   H523      1.0  0.92665  0.25019  0.10933  1.0000
  H   H524      1.0  0.96384  0.21508  0.13054  1.0000
  H   H525      1.0  0.96494  0.28033  0.98322  1.0000
  Fe  Fe80      1.0  0.96045  0.12992  0.36051  1.0000
  S   S160      1.0  0.92495  0.12046  0.38641  1.0000
  S   S161      1.0  0.96273  0.16066  0.32990  1.0000
  Fe  Fe81      1.0  0.70718  0.09705  0.02828  1.0000
  S   S162      1.0  0.69994  0.07273  0.99382  1.0000
  H   H526      1.0  0.78780  0.16652  0.41379  1.0000
  Fe  Fe82      1.0  0.76827  0.09901  0.01884  1.0000
  S   S163      1.0  0.76493  0.07502  0.98320  1.0000
  S   S164      1.0  0.80539  0.12170  0.03116  1.0000
  Fe  Fe83      1.0  0.72912  0.09951  0.97451  1.0000
  N   N41       1.0  0.66521  0.01411  0.04570  1.0000
  Fe  Fe84      1.0  0.73611  0.05013  0.00535  1.0000
  S   S165      1.0  0.73504  0.00591  0.00984  1.0000
  S   S166      1.0  0.73420  0.12508  0.00823  1.0000
  S   S167      1.0  0.74160  0.07284  0.04175  1.0000
  C   C511      1.0  0.88657  0.10040  0.06555  1.0000
  C   C512      1.0  0.87940  0.12629  0.06161  1.0000
  C   C513      1.0  0.85409  0.13237  0.05202  1.0000
  C   C514      1.0  0.83564  0.11273  0.04610  1.0000
  C   C515      1.0  0.84255  0.08686  0.05067  1.0000
  C   C516      1.0  0.86787  0.08077  0.06036  1.0000
  H   H527      1.0  0.89347  0.14164  0.06555  1.0000
  H   H528      1.0  0.84896  0.15245  0.04865  1.0000
  H   H529      1.0  0.82856  0.07152  0.04637  1.0000
  H   H530      1.0  0.87311  0.06067  0.06350  1.0000
  C   C517      1.0  0.84153  0.16075  0.42932  1.0000
  H   H531      1.0  0.92710  0.15305  0.01231  1.0000
  H   H532      1.0  0.95630  0.07105  0.20369  1.0000
  S   S168      1.0  0.95468  0.20668  0.04133  1.0000
  H   H533      1.0  0.83022  0.15679  0.36674  1.0000
  N   N42       1.0  0.87124  0.10514  0.99352  1.0000
  C   C518      1.0  0.83736  0.09440  0.37943  1.0000
  C   C519      1.0  0.85263  0.09881  0.35750  1.0000
  C   C520      1.0  0.87962  0.10609  0.35913  1.0000
  C   C521      1.0  0.89176  0.10894  0.38280  1.0000
  C   C522      1.0  0.87657  0.10412  0.40471  1.0000
  C   C523      1.0  0.84958  0.09698  0.40309  1.0000
  H   H534      1.0  0.84347  0.09676  0.33909  1.0000
  H   H535      1.0  0.89093  0.10974  0.34210  1.0000
  H   H536      1.0  0.88571  0.10620  0.42312  1.0000
  H   H537      1.0  0.83824  0.09351  0.42014  1.0000
  C   C524      1.0  0.97380  0.22902  0.02359  1.0000
  H   H538      1.0  0.67623  0.00198  0.00888  1.0000
  C   C525      1.0  0.73622  0.98103  0.98644  1.0000
  H   H539      1.0  0.68417  0.02339  0.40671  1.0000
  Fe  Fe85      1.0  0.97284  0.17406  0.06427  1.0000
  C   C526      1.0  0.89504  0.09582  0.00186  1.0000
  C   C527      1.0  0.97256  0.25793  0.42820  1.0000
  C   C528      1.0  0.85024  0.08693  0.98604  1.0000
  S   S169      1.0  0.66954  0.07642  0.39355  1.0000
  C   C529      1.0  0.99371  0.26923  0.41506  1.0000
  H   H540      1.0  0.71807  0.21934  0.98361  1.0000
  H   H541      1.0  0.79290  0.14240  0.38937  1.0000
  C   C530      1.0  0.68223  0.16805  0.00576  1.0000
  C   C531      1.0  0.69782  0.19107  0.96065  1.0000
  C   C532      1.0  0.98866  0.15494  0.18839  1.0000
  H   H542      1.0  0.75422  0.99319  0.43333  1.0000
  C   C533      1.0  0.93674  0.23901  0.09424  1.0000
  H   H543      1.0  0.84824  0.13868  0.98504  1.0000
  C   C534      1.0  0.97631  0.22645  0.11793  1.0000
  C   C535      1.0  0.88734  0.14891  0.99781  1.0000
  N   N43       1.0  0.92966  0.11811  0.16700  1.0000
  C   C536      1.0  0.92867  0.10532  0.14433  1.0000
  C   C537      1.0  0.93882  0.10582  0.18825  1.0000
  C   C538      1.0  0.93802  0.07990  0.14231  1.0000
  C   C539      1.0  0.94842  0.08043  0.18689  1.0000
  C   C540      1.0  0.94812  0.06747  0.16371  1.0000
  C   C541      1.0  0.91970  0.14472  0.16871  1.0000
  Fe  Fe86      1.0  0.99139  0.13390  0.30976  1.0000
  H   H544      1.0  0.93944  0.11585  0.20631  1.0000
  H   H545      1.0  0.93750  0.06999  0.12417  1.0000
  Fe  Fe87      1.0  0.98612  0.15264  0.11734  1.0000
  H   H546      1.0  0.95567  0.04784  0.16231  1.0000
  H   H547      1.0  0.89787  0.14447  0.17116  1.0000
  H   H548      1.0  0.92895  0.15529  0.18482  1.0000
  C   C542      1.0  0.98262  0.16989  0.20991  1.0000
  C   C543      1.0  0.91158  0.13959  0.00661  1.0000
  C   C544      1.0  0.67127  0.99339  0.02765  1.0000
  H   H549      1.0  0.93104  0.24715  0.07548  1.0000
  H   H550      1.0  0.88394  0.16964  0.99663  1.0000
  H   H551      1.0  0.85049  0.06925  0.99814  1.0000
  C   C545      1.0  0.96078  0.24717  0.00815  1.0000
  H   H552      1.0  0.96589  0.20237  0.39330  1.0000
  C   C546      1.0  0.97517  0.26638  0.99500  1.0000
  C   C547      1.0  0.98128  0.25409  0.08219  1.0000
  H   H553      1.0  0.67620  0.15922  0.02352  1.0000
  H   H554      1.0  0.97280  0.26454  0.06628  1.0000
  S   S170      1.0  0.97635  0.13495  0.04647  1.0000
  N   N44       1.0  0.96549  0.23977  0.09804  1.0000
  C   C548      1.0  0.68550  0.02777  0.05664  1.0000
  H   H555      1.0  0.90270  0.17420  0.40550  1.0000
  H   H556      1.0  0.83030  0.09569  0.98845  1.0000
  H   H557      1.0  0.94614  0.22499  0.43020  1.0000
  H   H558      1.0  0.79697  0.13374  0.42181  1.0000
  H   H559      1.0  0.92489  0.15591  0.15138  1.0000
  N   N45       1.0  0.67781  0.00599  0.44296  1.0000
  H   H560      1.0  0.97975  0.17116  0.25088  1.0000
  S   S171      1.0  0.98668  0.10219  0.33925  1.0000
  C   C549      1.0  0.88155  0.17028  0.40602  1.0000
  S   S172      1.0  0.67577  0.11448  0.05455  1.0000
  N   N46       1.0  0.82812  0.15706  0.40710  1.0000
  C   C550      1.0  0.84067  0.16035  0.38435  1.0000
  C   C551      1.0  0.68255  0.16834  0.96081  1.0000
  C   C552      1.0  0.91550  0.11286  0.00862  1.0000
  C   C553      1.0  0.86754  0.16705  0.38348  1.0000
  H   H561      1.0  0.93944  0.24648  0.00642  1.0000
  S   S173      1.0  0.99060  0.11174  0.10261  1.0000
  C   C554      1.0  0.99271  0.13370  0.23813  1.0000
  H   H562      1.0  0.97624  0.18977  0.20754  1.0000
  C   C555      1.0  0.80007  0.14972  0.40796  1.0000
  C   C556      1.0  0.98690  0.43885  0.95315  1.0000
  C   C557      1.0  0.73800  0.98656  0.96055  1.0000
  H   H563      1.0  0.85276  0.08126  0.96593  1.0000
  C   C558      1.0  0.97365  0.22099  0.39924  1.0000
  C   C559      1.0  0.86728  0.13130  0.99123  1.0000
  H   H564      1.0  0.93399  0.10535  0.01608  1.0000
  H   H565      1.0  0.92958  0.21857  0.09441  1.0000
  H   H566      1.0  0.75992  0.14881  0.95693  1.0000
  C   C560      1.0  0.86849  0.16725  0.42913  1.0000
  H   H567      1.0  0.89812  0.07511  0.00400  1.0000
  H   H568      1.0  0.87782  0.16840  0.36548  1.0000
  C   C561      1.0  0.68022  0.04819  0.07327  1.0000
  H   H569      1.0  0.69604  0.98210  0.38598  1.0000
  H   H570      1.0  0.66939  0.04677  0.44172  1.0000
  C   C562      1.0  0.70567  0.20209  0.98355  1.0000
  C   C563      1.0  0.98462  0.15940  0.23459  1.0000
  H   H571      1.0  0.70368  0.19898  0.02427  1.0000
  H   H572      1.0  0.66527  0.12050  0.96645  1.0000
  H   H573      1.0  0.83147  0.15807  0.44731  1.0000
  S   S174      1.0  0.98465  0.16910  0.15771  1.0000
  H   H574      1.0  0.73885  0.00653  0.95422  1.0000
  S   S175      1.0  0.77816  0.08531  0.44864  1.0000
  N   N47       1.0  0.67549  0.15682  0.98319  1.0000
  H   H575      1.0  0.66362  0.12103  0.00015  1.0000
  C   C564      1.0  0.69070  0.98226  0.40587  1.0000
  C   C565      1.0  0.68408  0.00559  0.41776  1.0000
  C   C566      1.0  0.74978  0.97944  0.44828  1.0000
  Fe  Fe88      1.0  0.74618  0.11561  0.44877  1.0000
  S   S176      1.0  0.99454  0.11886  0.26870  1.0000
  C   C567      1.0  0.99474  0.23232  0.38603  1.0000
  C   C568      1.0  0.84105  0.28332  0.48833  1.0000
  Fe  Fe89      1.0  0.96226  0.32122  0.90840  1.0000
  S   S177      1.0  0.92633  0.29922  0.89199  1.0000
  Fe  Fe90      1.0  0.74496  0.24523  0.58141  1.0000
  S   S178      1.0  0.74344  0.27356  0.54937  1.0000
  S   S179      1.0  0.74326  0.20176  0.57415  1.0000
  Fe  Fe91      1.0  0.74529  0.28765  0.62167  1.0000
  S   S180      1.0  0.74345  0.31894  0.59146  1.0000
  S   S181      1.0  0.74879  0.30396  0.66214  1.0000
  Fe  Fe92      1.0  0.71250  0.29426  0.57233  1.0000
  S   S182      1.0  0.67820  0.30983  0.54811  1.0000
  Fe  Fe93      1.0  0.77451  0.29585  0.57095  1.0000
  S   S183      1.0  0.80746  0.31598  0.54811  1.0000
  S   S184      1.0  0.71217  0.26445  0.60358  1.0000
  S   S185      1.0  0.77817  0.26602  0.60190  1.0000
  Fe  Fe94      1.0  0.77314  0.30445  0.85407  1.0000
  S   S186      1.0  0.77918  0.26448  0.83886  1.0000
  S   S187      1.0  0.80784  0.33187  0.86274  1.0000
  Fe  Fe95      1.0  0.71198  0.29566  0.86039  1.0000
  S   S188      1.0  0.71511  0.25455  0.84602  1.0000
  S   S189      1.0  0.67651  0.31123  0.88327  1.0000
  Fe  Fe96      1.0  0.75191  0.25116  0.86996  1.0000
  S   S190      1.0  0.76759  0.22404  0.90050  1.0000
  Fe  Fe97      1.0  0.74217  0.27180  0.81580  1.0000
  S   S191      1.0  0.74164  0.25655  0.77478  1.0000
  S   S192      1.0  0.74740  0.29104  0.88594  1.0000
  S   S193      1.0  0.73756  0.31316  0.82925  1.0000
  Fe  Fe98      1.0  0.96388  0.33225  0.52603  1.0000
  S   S194      1.0  0.95208  0.34144  0.48609  1.0000
  S   S195      1.0  0.93361  0.32395  0.55751  1.0000
  H   H576      1.0  0.88252  0.27062  0.87155  1.0000
  H   H577      1.0  0.69591  0.18598  0.50243  1.0000
  H   H578      1.0  0.83607  0.28220  0.86099  1.0000
  C   C569      1.0  0.73789  0.97022  0.49170  1.0000
  H   H579      1.0  0.88858  0.28375  0.93778  1.0000
  H   H580      1.0  0.79723  0.24146  0.78610  1.0000
  H   H581      1.0  0.73301  0.97698  0.51051  1.0000
  S   S196      1.0  0.74292  0.02202  0.47983  1.0000
  C   C570      1.0  0.68349  0.19672  0.54012  1.0000
  Fe  Fe99      1.0  0.97702  0.30720  0.47532  1.0000
  H   H582      1.0  0.82254  0.37822  0.57361  1.0000
  H   H583      1.0  0.77654  0.34299  0.63281  1.0000
  Fe  Fe100     1.0  0.99007  0.36488  0.48438  1.0000
  H   H584      1.0  0.85253  0.36141  0.88080  1.0000
  H   H585      1.0  0.81747  0.34002  0.92147  1.0000
  C   C571      1.0  0.72216  0.15850  0.90444  1.0000
  H   H586      1.0  0.87291  0.30221  0.81298  1.0000
  S   S197      1.0  0.98735  0.29716  0.51527  1.0000
  C   C572      1.0  0.75332  0.19415  0.90989  1.0000
  C   C573      1.0  0.73271  0.18247  0.89631  1.0000
  C   C574      1.0  0.73191  0.14622  0.92632  1.0000
  S   S198      1.0  0.71319  0.08692  0.45601  1.0000
  H   H587      1.0  0.74063  0.97071  0.92281  1.0000
  H   H588      1.0  0.72514  0.19173  0.87939  1.0000
  C   C575      1.0  0.84422  0.35607  0.60131  1.0000
  H   H589      1.0  0.66615  0.25662  0.55863  1.0000
  C   C576      1.0  0.74791  0.18905  0.54332  1.0000
  C   C577      1.0  0.75507  0.20504  0.52300  1.0000
  C   C578      1.0  0.75718  0.19469  0.49847  1.0000
  C   C579      1.0  0.75216  0.16827  0.49393  1.0000
  C   C580      1.0  0.74521  0.15215  0.51424  1.0000
  C   C581      1.0  0.74321  0.16251  0.53886  1.0000
  H   H590      1.0  0.75892  0.22539  0.52612  1.0000
  H   H591      1.0  0.76258  0.20729  0.48287  1.0000
  H   H592      1.0  0.74138  0.13175  0.51099  1.0000
  H   H593      1.0  0.73777  0.14996  0.55448  1.0000
  C   C582      1.0  0.84258  0.31698  0.55085  1.0000
  C   C583      1.0  0.85629  0.30400  0.57009  1.0000
  C   C584      1.0  0.88414  0.30624  0.57182  1.0000
  C   C585      1.0  0.89868  0.32081  0.55394  1.0000
  C   C586      1.0  0.88500  0.33316  0.53433  1.0000
  C   C587      1.0  0.85714  0.33147  0.53299  1.0000
  H   H594      1.0  0.84542  0.29262  0.58387  1.0000
  H   H595      1.0  0.89454  0.29659  0.58707  1.0000
  H   H596      1.0  0.89584  0.34457  0.52054  1.0000
  H   H597      1.0  0.84679  0.34153  0.51797  1.0000
  C   C588      1.0  0.74574  0.29025  0.69319  1.0000
  C   C589      1.0  0.74440  0.26346  0.69752  1.0000
  C   C590      1.0  0.74289  0.25365  0.72252  1.0000
  C   C591      1.0  0.74248  0.27036  0.74361  1.0000
  C   C592      1.0  0.74364  0.29718  0.73927  1.0000
  C   C593      1.0  0.74544  0.30698  0.71429  1.0000
  H   H598      1.0  0.74462  0.25026  0.68162  1.0000
  H   H599      1.0  0.74195  0.23288  0.72553  1.0000
  H   H600      1.0  0.74287  0.31042  0.75510  1.0000
  H   H601      1.0  0.74626  0.32774  0.71127  1.0000
  C   C594      1.0  0.89397  0.30927  0.88280  1.0000
  C   C595      1.0  0.88526  0.33489  0.88531  1.0000
  C   C596      1.0  0.85897  0.34151  0.87885  1.0000
  C   C597      1.0  0.84091  0.32259  0.87021  1.0000
  C   C598      1.0  0.84964  0.29700  0.86761  1.0000
  C   C599      1.0  0.87605  0.29050  0.87356  1.0000
  H   H602      1.0  0.89875  0.34959  0.89232  1.0000
  N   N48       1.0  0.81918  0.27655  0.78363  1.0000
  C   C600      1.0  0.84423  0.27811  0.79345  1.0000
  C   C601      1.0  0.80228  0.29713  0.78554  1.0000
  C   C602      1.0  0.85321  0.30106  0.80479  1.0000
  C   C603      1.0  0.81052  0.32027  0.79692  1.0000
  C   C604      1.0  0.83623  0.32227  0.80637  1.0000
  C   C605      1.0  0.80975  0.25226  0.77228  1.0000
  H   H603      1.0  0.85735  0.26153  0.79281  1.0000
  S   S199      1.0  0.97730  0.41339  0.93226  1.0000
  H   H604      1.0  0.79683  0.33630  0.79910  1.0000
  H   H605      1.0  0.70636  0.14945  0.89374  1.0000
  H   H606      1.0  0.82632  0.23962  0.76624  1.0000
  H   H607      1.0  0.79745  0.25627  0.75523  1.0000
  N   N49       1.0  0.89268  0.27517  0.50465  1.0000
  C   C606      1.0  0.85775  0.25686  0.92690  1.0000
  C   C607      1.0  0.87195  0.26576  0.51865  1.0000
  H   H608      1.0  0.98381  0.43186  0.50646  1.0000
  H   H609      1.0  0.82084  0.28726  0.48251  1.0000
  C   C608      1.0  0.81582  0.31818  0.65566  1.0000
  H   H610      1.0  0.68964  0.20751  0.59228  1.0000
  H   H611      1.0  0.87547  0.25588  0.53647  1.0000
  C   C609      1.0  0.84583  0.26972  0.51072  1.0000
  H   H612      1.0  0.78211  0.29554  0.77874  1.0000
  H   H613      1.0  0.79152  0.99534  0.50476  1.0000
  H   H614      1.0  0.80742  0.29925  0.64938  1.0000
  C   C610      1.0  0.68885  0.20149  0.51453  1.0000
  C   C611      1.0  0.76308  0.18182  0.93173  1.0000
  C   C612      1.0  0.79696  0.36237  0.60245  1.0000
  H   H615      1.0  0.98303  0.42101  0.87780  1.0000
  H   H616      1.0  0.82936  0.26324  0.52240  1.0000
  H   H617      1.0  0.84260  0.33992  0.81585  1.0000
  H   H618      1.0  0.92098  0.26731  0.53395  1.0000
  C   C613      1.0  0.99213  0.43567  0.46671  1.0000
  C   C614      1.0  0.82139  0.36693  0.59095  1.0000
  C   C615      1.0  0.85058  0.30253  0.93405  1.0000
  H   H619      1.0  0.78972  0.31974  0.91541  1.0000
  S   S200      1.0  0.71707  0.11696  0.93682  1.0000
  C   C616      1.0  0.74332  0.98843  0.47244  1.0000
  S   S201      1.0  0.99304  0.40186  0.45993  1.0000
  C   C617      1.0  0.86235  0.29224  0.47383  1.0000
  H   H620      1.0  0.68703  0.03558  0.46931  1.0000
  H   H621      1.0  0.85988  0.33096  0.63000  1.0000
  H   H622      1.0  0.86324  0.35901  0.59211  1.0000
  C   C618      1.0  0.80696  0.32232  0.92829  1.0000
  H   H623      1.0  0.83522  0.31474  0.66492  1.0000
  Fe  Fe101     1.0  0.98820  0.37034  0.93025  1.0000
  H   H624      1.0  0.90480  0.29482  0.47098  1.0000
  H   H625      1.0  0.77901  0.37028  0.59423  1.0000
  Fe  Fe102     1.0  0.74468  0.05609  0.45190  1.0000
  H   H626      1.0  0.80222  0.32636  0.67015  1.0000
  N   N50       1.0  0.81808  0.33579  0.63392  1.0000
  C   C619      1.0  0.79567  0.34674  0.62412  1.0000
  C   C620      1.0  0.98702  0.44528  0.49095  1.0000
  C   C621      1.0  0.84215  0.34015  0.62273  1.0000
  S   S202      1.0  0.95822  0.27299  0.45489  1.0000
  H   H627      1.0  0.85890  0.30283  0.45638  1.0000
  H   H628      1.0  0.79758  0.96487  0.54089  1.0000
  C   C622      1.0  0.86762  0.28119  0.93375  1.0000
  S   S203      1.0  0.98463  0.35436  0.89052  1.0000
  C   C623      1.0  0.80592  0.98304  0.49434  1.0000
  C   C624      1.0  0.88823  0.28779  0.48224  1.0000
  S   S204      1.0  0.75439  0.15671  0.46248  1.0000
  C   C625      1.0  0.81451  0.27581  0.92141  1.0000
  C   C626      1.0  0.91994  0.27146  0.51331  1.0000
  C   C627      1.0  0.68605  0.22657  0.50493  1.0000
  H   H629      1.0  0.80154  0.98578  0.47386  1.0000
  H   H630      1.0  0.87092  0.24033  0.92592  1.0000
  H   H631      1.0  0.82631  0.99011  0.49819  1.0000
  H   H632      1.0  0.92945  0.25551  0.50256  1.0000
  H   H633      1.0  0.67562  0.26612  0.51373  1.0000
  N   N51       1.0  0.67525  0.21632  0.55561  1.0000
  C   C628      1.0  0.67814  0.98359  0.45693  1.0000
  H   H634      1.0  0.93153  0.28954  0.51025  1.0000
  N   N52       1.0  0.82447  0.29972  0.92760  1.0000
  H   H635      1.0  0.79965  0.32553  0.94783  1.0000
  H   H636      1.0  0.68670  0.17740  0.54769  1.0000
  C   C629      1.0  0.83099  0.25407  0.92080  1.0000
  H   H637      1.0  0.79378  0.27341  0.91651  1.0000
  H   H638      1.0  0.67403  0.98407  0.47708  1.0000
  C   C630      1.0  0.75234  0.15804  0.94001  1.0000
  H   H639      1.0  0.82300  0.23530  0.91530  1.0000
  H   H640      1.0  0.69066  0.23063  0.48526  1.0000
  C   C631      1.0  0.67045  0.21083  0.58248  1.0000
  C   C632      1.0  0.67769  0.24646  0.52088  1.0000
  H   H641      1.0  0.67714  0.15947  0.94291  1.0000
  C   C633      1.0  0.73899  0.96616  0.94276  1.0000
  H   H642      1.0  0.77902  0.19073  0.94234  1.0000
  H   H643      1.0  0.85859  0.32151  0.93868  1.0000
  C   C634      1.0  0.67238  0.24096  0.54634  1.0000
  S   S205      1.0  0.96408  0.33786  0.94783  1.0000
  H   H644      1.0  0.70415  0.19962  0.94283  1.0000
  C   C635      1.0  0.67125  0.03048  0.45548  1.0000
  C   C636      1.0  0.71575  0.72225  0.97887  1.0000
  C   C637      1.0  0.88820  0.65833  0.35925  1.0000
  H   H645      1.0  0.85199  0.59239  0.99016  1.0000
  H   H646      1.0  0.72846  0.72969  0.96394  1.0000
  C   C638      1.0  0.93238  0.65363  0.41589  1.0000
  Fe  Fe103     1.0  0.96404  0.58414  0.40917  1.0000
  S   S206      1.0  0.92988  0.58193  0.38075  1.0000
  Fe  Fe104     1.0  0.75208  0.65240  0.11633  1.0000
  S   S207      1.0  0.74301  0.61285  0.09976  1.0000
  S   S208      1.0  0.75097  0.66643  0.15774  1.0000
  Fe  Fe105     1.0  0.76662  0.67535  0.06410  1.0000
  S   S209      1.0  0.75842  0.63759  0.04489  1.0000
  S   S210      1.0  0.78486  0.70465  0.03709  1.0000
  Fe  Fe106     1.0  0.72156  0.63504  0.06872  1.0000
  S   S211      1.0  0.68525  0.62939  0.04295  1.0000
  Fe  Fe107     1.0  0.78053  0.61933  0.07688  1.0000
  S   S212      1.0  0.81205  0.58910  0.06768  1.0000
  S   S213      1.0  0.72879  0.67429  0.08636  1.0000
  S   S214      1.0  0.79072  0.65721  0.09515  1.0000
  Fe  Fe108     1.0  0.77627  0.63223  0.36346  1.0000
  S   S215      1.0  0.77609  0.66234  0.33230  1.0000
  S   S216      1.0  0.81136  0.62439  0.39028  1.0000
  Fe  Fe109     1.0  0.71502  0.62349  0.35931  1.0000
  S   S217      1.0  0.71107  0.65282  0.32811  1.0000
  S   S218      1.0  0.68119  0.59777  0.37422  1.0000
  Fe  Fe110     1.0  0.74801  0.63549  0.31131  1.0000
  S   S219      1.0  0.74909  0.61937  0.27063  1.0000
  Fe  Fe111     1.0  0.73923  0.67710  0.35152  1.0000
  S   S220      1.0  0.72949  0.71921  0.35950  1.0000
  S   S221      1.0  0.75060  0.60432  0.34157  1.0000
  S   S222      1.0  0.74073  0.64885  0.38371  1.0000
  C   C639      1.0  0.92582  0.52396  0.42504  1.0000
  H   H647      1.0  0.71530  0.58271  0.29778  1.0000
  Fe  Fe112     1.0  0.73110  0.82032  0.95944  1.0000
  N   N53       1.0  0.87220  0.62883  0.99075  1.0000
  C   C640      1.0  0.82578  0.64891  0.01098  1.0000
  H   H648      1.0  0.68820  0.75396  0.97625  1.0000
  Fe  Fe113     1.0  0.96705  0.59685  0.01968  1.0000
  S   S223      1.0  0.93061  0.61800  0.03540  1.0000
  S   S224      1.0  0.97086  0.57392  0.98335  1.0000
  S   S225      1.0  0.72018  0.80186  0.99702  1.0000
  C   C641      1.0  0.77096  0.73259  0.42425  1.0000
  H   H649      1.0  0.88759  0.58648  0.34453  1.0000
  C   C642      1.0  0.67748  0.72671  0.00581  1.0000
  C   C643      1.0  0.73611  0.93446  0.97641  1.0000
  H   H650      1.0  0.73551  0.91448  0.98274  1.0000
  C   C644      1.0  0.74273  0.73378  0.38701  1.0000
  C   C645      1.0  0.76132  0.72088  0.40203  1.0000
  H   H651      1.0  0.80790  0.65666  0.01938  1.0000
  C   C646      1.0  0.74310  0.76994  0.41691  1.0000
  C   C647      1.0  0.73374  0.75838  0.39446  1.0000
  H   H652      1.0  0.76840  0.70196  0.39645  1.0000
  H   H653      1.0  0.73596  0.78882  0.42256  1.0000
  H   H654      1.0  0.71939  0.76847  0.38289  1.0000
  C   C648      1.0  0.76717  0.73223  0.02686  1.0000
  C   C649      1.0  0.74447  0.74067  0.03950  1.0000
  C   C650      1.0  0.73069  0.76255  0.03060  1.0000
  C   C651      1.0  0.73918  0.77579  0.00876  1.0000
  C   C652      1.0  0.76190  0.76736  0.99614  1.0000
  C   C653      1.0  0.77595  0.74577  0.00531  1.0000
  H   H655      1.0  0.73767  0.73049  0.05622  1.0000
  H   H656      1.0  0.71318  0.76906  0.04047  1.0000
  H   H657      1.0  0.76854  0.77742  0.97928  1.0000
  H   H658      1.0  0.79350  0.73934  0.99547  1.0000
  C   C654      1.0  0.84532  0.59707  0.05960  1.0000
  C   C655      1.0  0.85511  0.62239  0.06185  1.0000
  C   C656      1.0  0.88144  0.62815  0.05497  1.0000
  C   C657      1.0  0.89835  0.60878  0.04560  1.0000
  C   C658      1.0  0.88869  0.58336  0.04361  1.0000
  C   C659      1.0  0.86234  0.57755  0.05070  1.0000
  H   H659      1.0  0.84232  0.63763  0.06869  1.0000
  H   H660      1.0  0.88868  0.64788  0.05655  1.0000
  H   H661      1.0  0.90145  0.56822  0.03649  1.0000
  H   H662      1.0  0.85504  0.55785  0.04902  1.0000
  C   C660      1.0  0.74929  0.65282  0.18893  1.0000
  C   C661      1.0  0.74739  0.62608  0.19339  1.0000
  C   C662      1.0  0.74733  0.61633  0.21845  1.0000
  C   C663      1.0  0.74891  0.63309  0.23947  1.0000
  C   C664      1.0  0.75049  0.65984  0.23503  1.0000
  C   C665      1.0  0.75076  0.66958  0.20996  1.0000
  H   H663      1.0  0.74588  0.61286  0.17757  1.0000
  H   H664      1.0  0.74600  0.59561  0.22157  1.0000
  H   H665      1.0  0.75170  0.67305  0.25088  1.0000
  H   H666      1.0  0.75217  0.69030  0.20685  1.0000
  C   C666      1.0  0.89631  0.59189  0.38416  1.0000
  C   C667      1.0  0.88590  0.59967  0.40746  1.0000
  C   C668      1.0  0.85959  0.60867  0.40901  1.0000
  C   C669      1.0  0.84334  0.61016  0.38736  1.0000
  C   C670      1.0  0.85355  0.60177  0.36417  1.0000
  C   C671      1.0  0.87984  0.59261  0.36264  1.0000
  H   H667      1.0  0.89811  0.59900  0.42426  1.0000
  H   H668      1.0  0.85185  0.61497  0.42707  1.0000
  H   H669      1.0  0.84134  0.60271  0.34736  1.0000
  N   N54       1.0  0.90926  0.65935  0.40007  1.0000
  C   C672      1.0  0.70909  0.71941  0.44804  1.0000
  N   N55       1.0  0.82658  0.64323  0.15140  1.0000
  C   C673      1.0  0.80895  0.62309  0.14946  1.0000
  C   C674      1.0  0.85065  0.64201  0.13956  1.0000
  C   C675      1.0  0.81552  0.60069  0.13599  1.0000
  C   C676      1.0  0.85796  0.61980  0.12610  1.0000
  C   C677      1.0  0.84030  0.59898  0.12450  1.0000
  C   C678      1.0  0.81889  0.66689  0.16485  1.0000
  H   H670      1.0  0.78950  0.62447  0.15796  1.0000
  H   H671      1.0  0.86426  0.65833  0.14029  1.0000
  H   H672      1.0  0.80128  0.58499  0.13394  1.0000
  H   H673      1.0  0.87692  0.61889  0.11646  1.0000
  H   H674      1.0  0.84544  0.58185  0.11364  1.0000
  H   H675      1.0  0.80746  0.67974  0.15194  1.0000
  H   H676      1.0  0.80611  0.66219  0.18141  1.0000
  H   H677      1.0  0.83638  0.67766  0.17213  1.0000
  H   H678      1.0  0.89397  0.61643  0.95860  1.0000
  H   H679      1.0  0.97718  0.50432  0.96044  1.0000
  H   H680      1.0  0.75578  0.94581  0.42470  1.0000
  H   H681      1.0  0.71195  0.67358  0.02206  1.0000
  C   C679      1.0  0.93201  0.48267  0.44421  1.0000
  H   H682      1.0  0.84720  0.66999  0.35844  1.0000
  C   C680      1.0  0.73514  0.95487  0.99421  1.0000
  H   H683      1.0  0.69386  0.61521  0.27374  1.0000
  C   C681      1.0  0.67641  0.61308  0.28555  1.0000
  N   N56       1.0  0.68440  0.70467  0.01870  1.0000
  H   H684      1.0  0.81066  0.60982  0.00858  1.0000
  H   H685      1.0  0.90097  0.59889  0.98766  1.0000
  H   H686      1.0  0.95046  0.66297  0.40798  1.0000
  C   C682      1.0  0.66753  0.69487  0.03922  1.0000
  C   C683      1.0  0.93089  0.51349  0.40113  1.0000
  H   H687      1.0  0.68123  0.72447  0.39230  1.0000
  H   H688      1.0  0.93008  0.66076  0.43562  1.0000
  C   C684      1.0  0.69075  0.95926  0.41991  1.0000
  H   H689      1.0  0.88878  0.65327  0.33933  1.0000
  C   C685      1.0  0.91029  0.65408  0.37471  1.0000
  S   S226      1.0  0.76735  0.84471  0.95151  1.0000
  C   C686      1.0  0.85078  0.61292  0.99447  1.0000
  N   N57       1.0  0.92687  0.50865  0.44624  1.0000
  H   H690      1.0  0.93557  0.63233  0.41670  1.0000
  C   C687      1.0  0.69307  0.73587  0.98577  1.0000
  C   C688      1.0  0.89636  0.61824  0.97941  1.0000
  H   H691      1.0  0.70043  0.57126  0.32644  1.0000
  H   H692      1.0  0.92796  0.64560  0.36651  1.0000
  C   C689      1.0  0.88647  0.66863  0.41071  1.0000
  C   C690      1.0  0.68437  0.95987  0.44559  1.0000
  H   H693      1.0  0.74053  0.68936  0.98730  1.0000
  C   C691      1.0  0.84260  0.81843  0.95359  1.0000
  H   H694      1.0  0.67973  0.68643  0.05470  1.0000
  C   C692      1.0  0.84764  0.66504  0.00703  1.0000
  C   C693      1.0  0.98472  0.48507  0.96422  1.0000
  C   C694      1.0  0.86490  0.66777  0.36993  1.0000
  C   C695      1.0  0.70645  0.69104  0.01187  1.0000
  H   H695      1.0  0.84554  0.67923  0.40437  1.0000
  C   C696      1.0  0.86398  0.67298  0.39581  1.0000
  H   H696      1.0  0.93035  0.52582  0.38441  1.0000
  H   H697      1.0  0.84659  0.68537  0.01229  1.0000
  C   C697      1.0  0.82729  0.62268  0.00471  1.0000
  H   H698      1.0  0.94095  0.47886  0.38052  1.0000
  H   H699      1.0  0.78540  0.72250  0.43571  1.0000
  H   H700      1.0  0.82443  0.80617  0.95457  1.0000
  C   C698      1.0  0.69655  0.57506  0.30601  1.0000
  N   N58       1.0  0.67479  0.59357  0.30311  1.0000
  C   C699      1.0  0.87084  0.65463  0.99676  1.0000
  H   H701      1.0  0.88791  0.66718  0.99408  1.0000
  C   C700      1.0  0.72253  0.69969  0.99197  1.0000
  H   H702      1.0  0.69149  0.55654  0.29646  1.0000
  H   H703      1.0  0.91391  0.63072  0.98340  1.0000
  C   C701      1.0  0.93675  0.48715  0.39895  1.0000
  H   H704      1.0  0.73385  0.95030  0.01417  1.0000
  C   C702      1.0  0.76183  0.75708  0.43182  1.0000
  H   H705      1.0  0.88530  0.67199  0.43093  1.0000
  C   C703      1.0  0.93719  0.47156  0.42059  1.0000
  H   H706      1.0  0.84719  0.82569  0.97287  1.0000
  C   C704      1.0  0.67497  0.74884  0.43676  1.0000
  C   C705      1.0  0.75073  0.95256  0.44347  1.0000
  H   H707      1.0  0.69638  0.94106  0.41113  1.0000
  H   H708      1.0  0.97052  0.64754  0.95891  1.0000
  H   H709      1.0  0.69979  0.69799  0.40451  1.0000
  H   H710      1.0  0.72098  0.70245  0.44389  1.0000
  C   C706      1.0  0.68350  0.71167  0.40915  1.0000
  N   N59       1.0  0.68957  0.72713  0.43173  1.0000
  H   H711      1.0  0.66506  0.70027  0.41208  1.0000
  H   H712      1.0  0.92117  0.54446  0.42648  1.0000
  S   S227      1.0  0.99438  0.61613  0.40755  1.0000
  C   C707      1.0  0.73821  0.93999  0.95054  1.0000
  S   S228      1.0  0.74603  0.90081  0.45514  1.0000
  C   C708      1.0  0.68318  0.87750  0.86108  1.0000
  H   H713      1.0  0.79803  0.74925  0.56512  1.0000
  S   S229      1.0  0.73547  0.79570  0.92491  1.0000
  Fe  Fe114     1.0  0.73890  0.87077  0.93045  1.0000
  S   S230      1.0  0.74393  0.84933  0.89336  1.0000
  H   H714      1.0  0.83027  0.76897  0.47617  1.0000
  Fe  Fe115     1.0  0.70912  0.82482  0.90580  1.0000
  H   H715      1.0  0.88805  0.83838  0.93703  1.0000
  Fe  Fe116     1.0  0.76996  0.82189  0.91516  1.0000
  S   S231      1.0  0.80649  0.79954  0.90155  1.0000
  S   S232      1.0  0.98271  0.81749  0.59459  1.0000
  C   C709      1.0  0.80430  0.91037  0.49143  1.0000
  C   C710      1.0  0.71461  0.73375  0.46990  1.0000
  C   C711      1.0  0.98906  0.79166  0.74216  1.0000
  H   H716      1.0  0.98211  0.47947  0.51404  1.0000
  N   N60       1.0  0.82605  0.76613  0.54005  1.0000
  Fe  Fe117     1.0  0.95325  0.79177  0.57449  1.0000
  S   S233      1.0  0.91917  0.80427  0.54830  1.0000
  S   S234      1.0  0.95280  0.76152  0.60551  1.0000
  C   C712      1.0  0.80594  0.93649  0.48428  1.0000
  H   H717      1.0  0.89126  0.75418  0.53129  1.0000
  S   S235      1.0  0.99120  0.80643  0.83069  1.0000
  C   C713      1.0  0.68740  0.89329  0.88221  1.0000
  C   C714      1.0  0.80653  0.76856  0.56043  1.0000
  C   C715      1.0  0.88749  0.81736  0.93617  1.0000
  Fe  Fe118     1.0  0.95352  0.80105  0.85354  1.0000
  S   S236      1.0  0.92075  0.83091  0.85912  1.0000
  S   S237      1.0  0.94411  0.76164  0.83829  1.0000
  Fe  Fe119     1.0  0.70943  0.82557  0.51037  1.0000
  S   S238      1.0  0.71979  0.82971  0.46896  1.0000
  H   H718      1.0  0.97129  0.72323  0.53035  1.0000
  Fe  Fe120     1.0  0.76788  0.83717  0.52597  1.0000
  S   S239      1.0  0.78108  0.84176  0.48584  1.0000
  S   S240      1.0  0.79793  0.83871  0.55834  1.0000
  Fe  Fe121     1.0  0.74362  0.86496  0.48081  1.0000
  C   C716      1.0  0.79790  0.92368  0.53472  1.0000
  Fe  Fe122     1.0  0.75613  0.80659  0.47787  1.0000
  C   C717      1.0  0.98602  0.47231  0.49516  1.0000
  S   S241      1.0  0.73133  0.86238  0.52182  1.0000
  S   S242      1.0  0.74499  0.80062  0.51848  1.0000
  H   H719      1.0  0.99116  0.80406  0.75855  1.0000
  C   C718      1.0  0.73870  0.94332  0.48685  1.0000
  C   C719      1.0  0.83657  0.76634  0.49567  1.0000
  H   H720      1.0  0.73433  0.92954  0.50178  1.0000
  H   H721      1.0  0.98116  0.74748  0.68290  1.0000
  C   C720      1.0  0.88610  0.81555  0.55208  1.0000
  C   C721      1.0  0.87384  0.81772  0.57574  1.0000
  C   C722      1.0  0.84703  0.82535  0.57738  1.0000
  C   C723      1.0  0.83202  0.83040  0.55544  1.0000
  C   C724      1.0  0.84434  0.82836  0.53183  1.0000
  C   C725      1.0  0.87123  0.82127  0.53022  1.0000
  H   H722      1.0  0.88498  0.81349  0.59275  1.0000
  H   H723      1.0  0.83778  0.82703  0.59577  1.0000
  H   H724      1.0  0.83323  0.83227  0.51476  1.0000
  H   H725      1.0  0.88049  0.81974  0.51182  1.0000
  H   H726      1.0  0.73072  0.72816  0.48233  1.0000
  C   C726      1.0  0.69984  0.75590  0.47515  1.0000
  S   S243      1.0  0.98598  0.80169  0.66541  1.0000
  H   H727      1.0  0.79783  0.77314  0.51073  1.0000
  C   C727      1.0  0.98305  0.74914  0.72388  1.0000
  C   C728      1.0  0.99346  0.65276  0.51557  1.0000
  C   C729      1.0  0.96921  0.69113  0.90997  1.0000
  H   H728      1.0  0.80867  0.94121  0.46442  1.0000
  C   C730      1.0  0.83701  0.80925  0.88755  1.0000
  C   C731      1.0  0.84476  0.83529  0.88534  1.0000
  C   C732      1.0  0.87025  0.84169  0.87616  1.0000
  C   C733      1.0  0.88829  0.82219  0.86925  1.0000
  C   C734      1.0  0.88029  0.79622  0.87098  1.0000
  C   C735      1.0  0.85482  0.78985  0.87998  1.0000
  H   H729      1.0  0.83126  0.85046  0.89098  1.0000
  H   H730      1.0  0.87614  0.86186  0.87474  1.0000
  H   H731      1.0  0.89386  0.78096  0.86581  1.0000
  H   H732      1.0  0.84905  0.76966  0.88158  1.0000
  Fe  Fe123     1.0  0.98711  0.74371  0.58443  1.0000
  H   H733      1.0  0.68512  0.94219  0.45680  1.0000
  H   H734      1.0  0.79475  0.91876  0.55449  1.0000
  C   C736      1.0  0.98342  0.75991  0.69925  1.0000
  H   H735      1.0  0.96451  0.46752  0.93252  1.0000
  S   S244      1.0  0.95824  0.58661  0.45108  1.0000
  S   S245      1.0  0.98260  0.75028  0.77605  1.0000
  C   C737      1.0  0.99008  0.49008  0.47524  1.0000
  C   C738      1.0  0.81824  0.76875  0.51536  1.0000
  H   H736      1.0  0.96789  0.70609  0.48674  1.0000
  C   C739      1.0  0.80035  0.90397  0.51684  1.0000
  H   H737      1.0  0.70737  0.89984  0.88641  1.0000
  Fe  Fe124     1.0  0.96845  0.74639  0.87054  1.0000
  S   S246      1.0  0.70230  0.84805  0.94109  1.0000
  C   C740      1.0  0.97761  0.70368  0.52641  1.0000
  S   S247      1.0  0.98264  0.65807  0.46421  1.0000
  C   C741      1.0  0.67988  0.76354  0.45855  1.0000
  N   N61       1.0  0.91700  0.77907  0.75973  1.0000
  C   C742      1.0  0.90700  0.77742  0.78374  1.0000
  C   C743      1.0  0.92633  0.80225  0.75058  1.0000
  C   C744      1.0  0.90619  0.79933  0.79929  1.0000
  C   C745      1.0  0.92635  0.82443  0.76586  1.0000
  C   C746      1.0  0.91623  0.82288  0.79040  1.0000
  C   C747      1.0  0.91763  0.75568  0.74398  1.0000
  H   H738      1.0  0.89990  0.75899  0.79111  1.0000
  H   H739      1.0  0.93426  0.80361  0.73154  1.0000
  H   H740      1.0  0.89832  0.79799  0.81835  1.0000
  H   H741      1.0  0.93436  0.84261  0.75877  1.0000
  H   H742      1.0  0.91631  0.83980  0.80266  1.0000
  H   H743      1.0  0.93001  0.74060  0.75331  1.0000
  H   H744      1.0  0.89729  0.74796  0.74119  1.0000
  H   H745      1.0  0.92646  0.75954  0.72505  1.0000
  S   S248      1.0  0.66936  0.80527  0.51732  1.0000
  S   S249      1.0  0.77371  0.77039  0.46045  1.0000
  H   H746      1.0  0.89949  0.52067  0.47425  1.0000
  C   C748      1.0  0.90867  0.77715  0.92472  1.0000
  C   C749      1.0  0.97578  0.65665  0.94113  1.0000
  C   C750      1.0  0.98787  0.68824  0.54584  1.0000
  H   H747      1.0  0.79914  0.88379  0.52272  1.0000
  H   H748      1.0  0.83766  0.83506  0.94102  1.0000
  S   S250      1.0  0.67844  0.81134  0.87658  1.0000
  H   H749      1.0  0.92675  0.81483  0.92003  1.0000
  C   C751      1.0  0.85177  0.76027  0.54578  1.0000
  C   C752      1.0  0.98554  0.76492  0.74552  1.0000
  H   H750      1.0  0.92535  0.76670  0.91684  1.0000
  H   H751      1.0  0.69972  0.87141  0.84946  1.0000
  S   S251      1.0  0.73962  0.91518  0.92709  1.0000
  H   H752      1.0  0.85811  0.75849  0.56533  1.0000
  N   N62       1.0  0.66678  0.89998  0.89763  1.0000
  C   C753      1.0  0.86296  0.76090  0.50137  1.0000
  C   C754      1.0  0.87063  0.75765  0.52656  1.0000
  C   C755      1.0  0.98369  0.66846  0.49608  1.0000
  C   C756      1.0  0.79950  0.94963  0.52689  1.0000
  H   H753      1.0  0.87754  0.75959  0.48637  1.0000
  H   H754      1.0  0.66842  0.78085  0.46262  1.0000
  N   N63       1.0  0.80333  0.95573  0.50191  1.0000
  H   H755      1.0  0.99185  0.82319  0.71522  1.0000
  S   S252      1.0  0.95199  0.71927  0.90056  1.0000
  H   H756      1.0  0.80563  0.89523  0.47724  1.0000
  H   H757      1.0  0.81569  0.77716  0.57765  1.0000
  C   C757      1.0  0.97555  0.69383  0.50168  1.0000
  H   H758      1.0  0.79025  0.78190  0.55490  1.0000
  C   C758      1.0  0.98942  0.80244  0.71752  1.0000
  S   S253      1.0  0.97569  0.78576  0.88689  1.0000
  C   C759      1.0  0.92120  0.51992  0.47110  1.0000
  Fe  Fe125     1.0  0.98260  0.76577  0.81685  1.0000
  H   H759      1.0  0.92965  0.53981  0.47255  1.0000
  C   C760      1.0  0.67194  0.91592  0.92007  1.0000
  N   N64       1.0  0.86522  0.80405  0.94338  1.0000
  H   H760      1.0  0.68154  0.90396  0.93500  1.0000
  C   C761      1.0  0.90952  0.80414  0.92669  1.0000
  C   C762      1.0  0.96230  0.67895  0.93286  1.0000
  H   H761      1.0  0.98048  0.72840  0.72619  1.0000
  C   C763      1.0  0.98956  0.68078  0.89524  1.0000
  C   C764      1.0  0.74506  0.93434  0.46264  1.0000
  S   S254      1.0  0.98576  0.77213  0.55252  1.0000
  Fe  Fe126     1.0  0.98432  0.78600  0.62465  1.0000
  H   H762      1.0  0.94656  0.68687  0.94432  1.0000
  H   H763      1.0  0.70392  0.76727  0.49199  1.0000
  H   H764      1.0  0.93288  0.47047  0.46098  1.0000
  H   H765      1.0  0.93060  0.50849  0.48656  1.0000
  C   C765      1.0  0.86420  0.77757  0.94149  1.0000
  S   S255      1.0  0.98870  0.52392  0.48170  1.0000
  S   S256      1.0  0.99270  0.70073  0.57672  1.0000
  H   H766      1.0  0.88492  0.74281  0.93001  1.0000
  C   C766      1.0  0.88590  0.76373  0.93213  1.0000
  H   H767      1.0  0.84629  0.76708  0.94655  1.0000
  C   C767      1.0  0.97757  0.46412  0.94842  1.0000
  H   H768      1.0  0.68559  0.93224  0.91533  1.0000
  Fe  Fe127     1.0  0.99173  0.55777  0.45379  1.0000
  C   C768      1.0  0.98638  0.78670  0.69591  1.0000
  Fe  Fe128     1.0  0.99018  0.61714  0.45003  1.0000
