data_image0
_chemical_formula_structural       C2H2C2HC3HNH3CH4SFeS2FeS2FeSFeS3FeS2FeS2FeSFeS3C6H2CH4CH2C2H2C6H2CHC6H4CH2CHC4HCNC6H9C2HNH4CH2C2HC2NCH2CH3CHCSHCHCNHCHCHC2HC2H4C2H3CHNFeSHFeS2FeSFeS3FeS2FeS2FeSFeS3FeS2FeSHFeSFeS3FeS2FeS2FeSFeS3FeS2FeSFeCFeS2FeS2FeSFeHFeS3NCH3CSHC4HC2HC8H5CSHC3HCHC6H4C6H4C6H4CH4C7H4C2H2C6H5CH4C3H4CHSNC6H8NC6H8C4HCHCH4NC2HNH2SC2HCHSHCH2NCH2CH5NC3HC4H3C3H2C2H2C3HCH2CHC2H2CNCHCHCH2NHC2NHC8H2CNC2HC2H8C2H2CH3C3FeSFeS2FeSFeS3FeS2FeS2FeSFeS3FeSFeS2FeSFeHS2FeS2FeS2FeSFeS3FeHCFeS2FeCFeS3FeS2FeS2FeCFeS3CHCH2C2HCSH3C6H5CHC6H4CHC2H4C8H4C6H4C6H4C6H4C6H5C2HCHCHC2NC6H7NC6H5C2HNC4SCHC2HCH2CH8CH2NC6H10CHNHC2H3CHC2N2CNC2HCHCHCNH3C2HCNHC4HCH5SCNCHCHCHSCH3C3H2CSH4CH4FeS2FeS2FeSFeS3FeS2FeS2FeSFeS3H2C6H4CHNH3CH3C6H4C6H4C2H2C2H4C2HCNHSHCHNC6H8CHC2HC3HCH2NCH2CHCHNC6HC3H2CH2C2HCH6CHC3H2CH3NH2C4H2CH2SCH3NCHC2H5C6HCHSCHFeS2FeS2FeSFeS3FeS2FeS2FeSFeS3C6H2CHC2H2SC2H3C6H4C6H7NHC3H2C2H2CHC2H2NHC4NHC2H5C2HCHCH3C2H2CH4C2HNC5HCHCH2CH2C2H3CHC2H2C3FeS2FeSHFeSFeS3FeSHFeS2FeSFeS3FeS2FeS2FeSFeS3FeS2FeS2FeCFeS3FeSCFeSHFeSFeS2FeSNFeSHFeSFeS2N2CHC5HCHSH3C7H4C6H5CH3C2HCHC6H4C6H4C6H4C6H5SC6SNC6H8CNC2H3CNHCH2C3H2C2SH2NC6H9NC6H8NCH2CH2CH3C2H2CHC2H2NC2H8C3H3S2H2CH5C2HC3H2CH2CNHC2H2C4HCH2C4SC4HCH4CFeS2FeS2FeSFeS3FeSFeS2FeSFeS3FeS2FeS2FeSFeHS2FeSFeS2FeSFeS3FeS2FeS2FeCFeS3FeS2FeSHFeSFeHS2H2NCH3CH2C6H4CH5C6H4C6H4C2SH2C4HCHC2HC6H2CHC6H4C3H2C6H4C6H4CH2C3H2C3HCH4CNCNCH4NC6H11CH2NC6H2CHCNH3CHC2H2CNC6SH6CHCH2CH2C5HCH3CHCHCHSCHCHSHCH3CNC2H3C3HNCHC2H2C2HCH2FeS2FeS2FeSFeS3FeS2FeS2FeSFeS3H2C6H4C3H3C2H2C6H4C6H11CH2CHNHNCHCHSHCHNC3HCHC2H2C2HC2H2CH2C2H3CNC6H4CHSHC2H5C4H3CHCHNC2H2CH2C2HCH2CH
_chemical_formula_sum              "C768 H768 N64 S256 Fe128"
_cell_length_a       49.1804
_cell_length_b       49.3819
_cell_length_c       71.6694
_cell_angle_alpha    90.2802
_cell_angle_beta     90.6031
_cell_angle_gamma    86.9193

_space_group_name_H-M_alt    "P 1"
_space_group_IT_number       1

loop_
  _space_group_symop_operation_xyz
  'x, y, z'

loop_
  _atom_site_type_symbol
  _atom_site_label
  _atom_site_symmetry_multiplicity
  _atom_site_fract_x
  _atom_site_fract_y
  _atom_site_fract_z
  _atom_site_occupancy
  C   C1        1.0  0.10710  0.02440  0.03091  1.0000
  C   C2        1.0  0.03135  0.12407  0.01605  1.0000
  H   H1        1.0  0.08703  0.06178  0.04053  1.0000
  H   H2        1.0  0.15154  0.08475  0.04891  1.0000
  C   C3        1.0  0.09902  0.05217  0.02953  1.0000
  C   C4        1.0  0.18718  0.03654  0.02481  1.0000
  H   H3        1.0  0.16330  0.11212  0.02173  1.0000
  C   C5        1.0  0.17071  0.09105  0.02267  1.0000
  C   C6        1.0  0.16504  0.03239  0.05511  1.0000
  C   C7        1.0  0.16401  0.07538  0.03801  1.0000
  H   H4        1.0  0.10144  0.01288  0.04293  1.0000
  N   N1        1.0  0.17197  0.04841  0.03881  1.0000
  H   H5        1.0  0.19303  0.01503  0.02529  1.0000
  H   H6        1.0  0.04622  0.12528  0.02728  1.0000
  H   H7        1.0  0.14506  0.03965  0.06090  1.0000
  C   C8        1.0  0.12389  0.01206  0.01732  1.0000
  H   H8        1.0  0.03070  0.36811  0.01985  1.0000
  H   H9        1.0  0.16302  0.01071  0.05125  1.0000
  H   H10       1.0  0.03068  0.08052  0.01699  1.0000
  H   H11       1.0  0.18105  0.03367  0.06605  1.0000
  S   S1        1.0  0.10008  0.10343  0.01483  1.0000
  Fe  Fe1       1.0  0.40592  0.10934  0.57520  1.0000
  S   S2        1.0  0.40341  0.11654  0.54447  1.0000
  S   S3        1.0  0.44604  0.09833  0.58907  1.0000
  Fe  Fe2       1.0  0.34691  0.12508  0.58109  1.0000
  S   S4        1.0  0.33925  0.13361  0.55045  1.0000
  S   S5        1.0  0.31750  0.13664  0.60422  1.0000
  Fe  Fe3       1.0  0.36464  0.09447  0.54554  1.0000
  S   S6        1.0  0.35798  0.06645  0.52045  1.0000
  Fe  Fe4       1.0  0.37870  0.15468  0.55183  1.0000
  S   S7        1.0  0.39130  0.19352  0.53803  1.0000
  S   S8        1.0  0.36909  0.08453  0.57619  1.0000
  S   S9        1.0  0.38431  0.14882  0.58250  1.0000
  Fe  Fe5       1.0  0.37996  0.35112  0.55225  1.0000
  S   S10       1.0  0.41064  0.35179  0.57556  1.0000
  S   S11       1.0  0.35172  0.31602  0.55303  1.0000
  Fe  Fe6       1.0  0.39755  0.40567  0.53587  1.0000
  S   S12       1.0  0.42908  0.40952  0.55827  1.0000
  S   S13       1.0  0.40044  0.43636  0.51223  1.0000
  Fe  Fe7       1.0  0.43884  0.36528  0.55366  1.0000
  S   S14       1.0  0.48144  0.34771  0.55029  1.0000
  Fe  Fe8       1.0  0.39768  0.39586  0.57802  1.0000
  S   S15       1.0  0.39197  0.41890  0.60507  1.0000
  S   S16       1.0  0.40935  0.36157  0.52991  1.0000
  S   S17       1.0  0.36480  0.39499  0.55599  1.0000
  C   C9        1.0  0.39399  0.39991  0.62580  1.0000
  C   C10       1.0  0.39273  0.37171  0.62535  1.0000
  C   C11       1.0  0.39062  0.35723  0.64201  1.0000
  C   C12       1.0  0.39037  0.37078  0.65921  1.0000
  C   C13       1.0  0.39301  0.39883  0.65978  1.0000
  C   C14       1.0  0.39448  0.41341  0.64306  1.0000
  H   H12       1.0  0.39203  0.36115  0.61219  1.0000
  H   H13       1.0  0.38849  0.33555  0.64152  1.0000
  C   C15       1.0  0.39654  0.48855  0.45058  1.0000
  H   H14       1.0  0.39541  0.43525  0.64347  1.0000
  H   H15       1.0  0.31936  0.14781  0.67239  1.0000
  H   H16       1.0  0.43135  0.08436  0.65374  1.0000
  H   H17       1.0  0.33284  0.31899  0.60450  1.0000
  C   C16       1.0  0.35856  0.03032  0.51877  1.0000
  H   H18       1.0  0.47555  0.39003  0.57846  1.0000
  H   H19       1.0  0.45195  0.40396  0.51738  1.0000
  C   C17       1.0  0.39287  0.47183  0.51435  1.0000
  C   C18       1.0  0.37142  0.48235  0.52533  1.0000
  H   H20       1.0  0.42349  0.48177  0.49458  1.0000
  H   H21       1.0  0.36034  0.46890  0.53395  1.0000
  C   C19       1.0  0.32902  0.12824  0.62696  1.0000
  C   C20       1.0  0.34806  0.10661  0.62993  1.0000
  C   C21       1.0  0.35599  0.09924  0.64817  1.0000
  C   C22       1.0  0.34573  0.11404  0.66354  1.0000
  C   C23       1.0  0.32724  0.13616  0.66062  1.0000
  C   C24       1.0  0.31856  0.14295  0.64237  1.0000
  H   H22       1.0  0.35609  0.09506  0.61816  1.0000
  H   H23       1.0  0.37024  0.08205  0.65031  1.0000
  C   C25       1.0  0.50499  0.36777  0.56145  1.0000
  H   H24       1.0  0.30387  0.15975  0.64011  1.0000
  C   C26       1.0  0.38278  0.22710  0.54577  1.0000
  C   C27       1.0  0.35921  0.23355  0.55600  1.0000
  C   C28       1.0  0.35050  0.26094  0.55891  1.0000
  C   C29       1.0  0.36560  0.28209  0.55204  1.0000
  C   C30       1.0  0.39003  0.27559  0.54281  1.0000
  C   C31       1.0  0.39836  0.24825  0.53950  1.0000
  H   H25       1.0  0.34702  0.21749  0.56091  1.0000
  H   H26       1.0  0.33158  0.26574  0.56607  1.0000
  H   H27       1.0  0.40185  0.29163  0.53743  1.0000
  H   H28       1.0  0.41660  0.24349  0.53157  1.0000
  C   C32       1.0  0.33277  0.36069  0.59596  1.0000
  H   H29       1.0  0.39690  0.18638  0.61870  1.0000
  H   H30       1.0  0.37669  0.18182  0.65017  1.0000
  C   C33       1.0  0.35773  0.01809  0.50097  1.0000
  H   H31       1.0  0.47610  0.47890  0.55244  1.0000
  C   C34       1.0  0.49664  0.38766  0.57445  1.0000
  C   C35       1.0  0.46015  0.14408  0.57108  1.0000
  C   C36       1.0  0.46914  0.12187  0.58197  1.0000
  C   C37       1.0  0.47428  0.44440  0.53392  1.0000
  H   H32       1.0  0.43880  0.14782  0.56795  1.0000
  C   C38       1.0  0.42387  0.15080  0.62183  1.0000
  N   N2        1.0  0.33259  0.21999  0.51347  1.0000
  C   C39       1.0  0.35496  0.22607  0.50341  1.0000
  C   C40       1.0  0.31529  0.24028  0.52020  1.0000
  C   C41       1.0  0.36082  0.25308  0.50027  1.0000
  C   C42       1.0  0.32058  0.26751  0.51735  1.0000
  C   C43       1.0  0.34360  0.27389  0.50742  1.0000
  C   C44       1.0  0.32705  0.19170  0.51736  1.0000
  H   H33       1.0  0.36912  0.21003  0.49854  1.0000
  H   H34       1.0  0.29784  0.23544  0.52844  1.0000
  H   H35       1.0  0.37922  0.25780  0.49303  1.0000
  H   H36       1.0  0.30767  0.28359  0.52353  1.0000
  H   H37       1.0  0.34857  0.29492  0.50590  1.0000
  H   H38       1.0  0.34432  0.17747  0.51329  1.0000
  H   H39       1.0  0.32429  0.18894  0.53260  1.0000
  H   H40       1.0  0.30847  0.18587  0.50975  1.0000
  H   H41       1.0  0.49174  0.27676  0.56137  1.0000
  C   C45       1.0  0.33097  0.34002  0.60900  1.0000
  C   C46       1.0  0.42871  0.10317  0.66228  1.0000
  H   H42       1.0  0.46431  0.09647  0.54436  1.0000
  N   N3        1.0  0.42012  0.12629  0.65046  1.0000
  H   H43       1.0  0.48535  0.06387  0.56465  1.0000
  H   H44       1.0  0.35967  0.02262  0.54828  1.0000
  H   H45       1.0  0.29982  0.38547  0.65582  1.0000
  H   H46       1.0  0.45262  0.44797  0.53121  1.0000
  C   C47       1.0  0.35918  0.01360  0.53450  1.0000
  H   H47       1.0  0.32848  0.36294  0.66249  1.0000
  H   H48       1.0  0.43289  0.15256  0.60817  1.0000
  C   C48       1.0  0.47407  0.40348  0.51429  1.0000
  C   C49       1.0  0.50678  0.15585  0.56668  1.0000
  H   H49       1.0  0.44823  0.10712  0.66946  1.0000
  C   C50       1.0  0.39252  0.16732  0.64545  1.0000
  C   C51       1.0  0.32166  0.38010  0.65326  1.0000
  N   N4        1.0  0.48827  0.42241  0.52627  1.0000
  C   C52       1.0  0.43167  0.12889  0.63333  1.0000
  H   H50       1.0  0.44676  0.11381  0.62831  1.0000
  H   H51       1.0  0.35706  0.03078  0.48870  1.0000
  C   C53       1.0  0.33093  0.38768  0.60185  1.0000
  H   H52       1.0  0.39253  0.40944  0.67303  1.0000
  H   H53       1.0  0.33598  0.35574  0.58135  1.0000
  H   H54       1.0  0.33397  0.39743  0.65744  1.0000
  C   C54       1.0  0.40382  0.16985  0.62781  1.0000
  H   H55       1.0  0.32694  0.41469  0.62529  1.0000
  C   C55       1.0  0.47894  0.16111  0.56348  1.0000
  S   S18       1.0  0.38226  0.35289  0.67931  1.0000
  H   H56       1.0  0.47192  0.17765  0.55449  1.0000
  C   C56       1.0  0.48750  0.46216  0.54579  1.0000
  H   H57       1.0  0.32631  0.33055  0.63797  1.0000
  C   C57       1.0  0.32741  0.39366  0.62079  1.0000
  N   N5        1.0  0.32583  0.37327  0.63353  1.0000
  H   H58       1.0  0.41314  0.09926  0.67295  1.0000
  C   C58       1.0  0.40140  0.14559  0.65682  1.0000
  H   H59       1.0  0.50388  0.10076  0.59486  1.0000
  C   C59       1.0  0.48400  0.09985  0.53833  1.0000
  H   H60       1.0  0.33317  0.40395  0.59194  1.0000
  C   C60       1.0  0.32730  0.34672  0.62786  1.0000
  C   C61       1.0  0.40690  0.48966  0.50316  1.0000
  H   H61       1.0  0.34517  0.48441  0.48144  1.0000
  C   C62       1.0  0.37951  0.47723  0.46354  1.0000
  C   C63       1.0  0.48646  0.12207  0.52655  1.0000
  H   H62       1.0  0.38350  0.45651  0.46828  1.0000
  H   H63       1.0  0.39262  0.14385  0.67055  1.0000
  H   H64       1.0  0.46895  0.13581  0.52371  1.0000
  H   H65       1.0  0.47660  0.40878  0.49941  1.0000
  C   C64       1.0  0.35783  0.49315  0.47099  1.0000
  C   C65       1.0  0.49686  0.11763  0.58617  1.0000
  H   H66       1.0  0.41366  0.47659  0.44488  1.0000
  H   H67       1.0  0.27059  0.11541  0.66878  1.0000
  H   H68       1.0  0.48205  0.38226  0.51673  1.0000
  C   C66       1.0  0.50369  0.06068  0.55573  1.0000
  H   H69       1.0  0.50212  0.04148  0.54778  1.0000
  N   N6        1.0  0.50631  0.08332  0.54283  1.0000
  Fe  Fe9       1.0  0.40239  0.36451  0.70625  1.0000
  S   S19       1.0  0.41107  0.40482  0.71909  1.0000
  H   H70       1.0  0.42177  0.46528  0.73035  1.0000
  Fe  Fe10      1.0  0.42758  0.33292  0.73854  1.0000
  S   S20       1.0  0.43902  0.37000  0.75425  1.0000
  S   S21       1.0  0.43391  0.29062  0.74934  1.0000
  Fe  Fe11      1.0  0.39703  0.38662  0.74592  1.0000
  S   S22       1.0  0.37079  0.40600  0.76868  1.0000
  Fe  Fe12      1.0  0.45224  0.38480  0.72637  1.0000
  S   S23       1.0  0.49073  0.40606  0.71954  1.0000
  S   S24       1.0  0.38488  0.34833  0.73243  1.0000
  S   S25       1.0  0.44428  0.34599  0.71141  1.0000
  Fe  Fe13      1.0  0.21803  0.38392  0.79300  1.0000
  S   S26       1.0  0.24016  0.35503  0.81263  1.0000
  S   S27       1.0  0.24191  0.39693  0.76789  1.0000
  Fe  Fe14      1.0  0.16187  0.37730  0.81127  1.0000
  S   S28       1.0  0.18108  0.34702  0.83122  1.0000
  S   S29       1.0  0.11834  0.38333  0.82191  1.0000
  Fe  Fe15      1.0  0.21420  0.37574  0.83474  1.0000
  S   S30       1.0  0.22743  0.38221  0.86464  1.0000
  Fe  Fe16      1.0  0.20469  0.32954  0.80734  1.0000
  S   S31       1.0  0.20898  0.28510  0.80057  1.0000
  S   S32       1.0  0.19469  0.40717  0.81566  1.0000
  S   S33       1.0  0.18313  0.35710  0.78675  1.0000
  Fe  Fe17      1.0  0.33781  0.18689  0.72841  1.0000
  S   S34       1.0  0.34511  0.17170  0.75743  1.0000
  S   S35       1.0  0.32898  0.23135  0.72412  1.0000
  Fe  Fe18      1.0  0.34958  0.13188  0.71100  1.0000
  S   S36       1.0  0.35786  0.11251  0.73899  1.0000
  H   H71       1.0  0.07655  0.09263  0.85159  1.0000
  Fe  Fe19      1.0  0.32031  0.13720  0.74815  1.0000
  S   S37       1.0  0.28881  0.11942  0.76698  1.0000
  Fe  Fe20      1.0  0.38183  0.14905  0.74523  1.0000
  S   S38       1.0  0.42270  0.15203  0.76021  1.0000
  S   S39       1.0  0.31048  0.15392  0.71966  1.0000
  S   S40       1.0  0.37589  0.16675  0.71670  1.0000
  Fe  Fe21      1.0  0.11647  0.18810  0.83233  1.0000
  S   S41       1.0  0.09805  0.17777  0.80467  1.0000
  S   S42       1.0  0.11727  0.22962  0.84476  1.0000
  Fe  Fe22      1.0  0.13631  0.13041  0.84026  1.0000
  S   S43       1.0  0.11999  0.11510  0.81307  1.0000
  S   S44       1.0  0.15904  0.10208  0.86003  1.0000
  Fe  Fe23      1.0  0.13747  0.15235  0.80073  1.0000
  S   S45       1.0  0.16306  0.15730  0.77463  1.0000
  Fe  Fe24      1.0  0.08245  0.14178  0.81972  1.0000
  S   S46       1.0  0.04054  0.12476  0.82325  1.0000
  S   S47       1.0  0.15643  0.16537  0.82761  1.0000
  S   S48       1.0  0.09841  0.15455  0.84775  1.0000
  Fe  Fe25      1.0  0.14228  0.15134  0.95914  1.0000
  S   S49       1.0  0.14309  0.16063  0.98992  1.0000
  S   S50       1.0  0.17987  0.14053  0.94284  1.0000
  Fe  Fe26      1.0  0.08169  0.15695  0.95611  1.0000
  S   S51       1.0  0.04489  0.15676  0.93737  1.0000
  Fe  Fe27      1.0  0.11200  0.19420  0.98228  1.0000
  C   C67       1.0  0.06385  0.31722  0.79775  1.0000
  Fe  Fe28      1.0  0.10836  0.13265  0.99117  1.0000
  S   S52       1.0  0.11387  0.18659  0.95144  1.0000
  S   S53       1.0  0.11035  0.12081  0.96095  1.0000
  Fe  Fe29      1.0  0.13682  0.43875  0.94331  1.0000
  S   S54       1.0  0.16989  0.42262  0.96253  1.0000
  S   S55       1.0  0.14256  0.45176  0.91354  1.0000
  Fe  Fe30      1.0  0.09294  0.43144  0.97214  1.0000
  S   S56       1.0  0.04870  0.43661  0.97966  1.0000
  Fe  Fe31      1.0  0.14817  0.44847  0.98454  1.0000
  H   H72       1.0  0.33232  0.39251  0.73916  1.0000
  Fe  Fe32      1.0  0.14108  0.38997  0.96935  1.0000
  S   S57       1.0  0.15246  0.34548  0.96291  1.0000
  S   S58       1.0  0.11719  0.46684  0.96458  1.0000
  S   S59       1.0  0.10931  0.40532  0.94888  1.0000
  N   N7        1.0  0.46493  0.20982  0.73241  1.0000
  C   C68       1.0  0.26804  0.11123  0.68352  1.0000
  H   H73       1.0  0.05419  0.40287  0.94648  1.0000
  H   H74       1.0  0.02906  0.06524  0.95961  1.0000
  H   H75       1.0  0.12429  0.33363  0.99764  1.0000
  C   C69       1.0  0.12060  0.26639  0.98627  1.0000
  S   S60       1.0  0.12271  0.41400  0.99342  1.0000
  H   H76       1.0  0.43170  0.18778  0.72202  1.0000
  C   C70       1.0  0.13985  0.31544  0.97231  1.0000
  C   C71       1.0  0.14351  0.29102  0.96222  1.0000
  C   C72       1.0  0.13389  0.26663  0.96911  1.0000
  C   C73       1.0  0.44381  0.46542  0.73394  1.0000
  H   H77       1.0  0.13696  0.24799  0.96126  1.0000
  C   C74       1.0  0.03653  0.10528  0.94964  1.0000
  C   C75       1.0  0.30432  0.07087  0.72121  1.0000
  H   H78       1.0  0.05706  0.10474  0.95506  1.0000
  C   C76       1.0  0.07441  0.28909  0.82386  1.0000
  C   C77       1.0  0.47700  0.44530  0.75620  1.0000
  C   C78       1.0  0.16387  0.11335  0.88299  1.0000
  C   C79       1.0  0.14502  0.13139  0.89173  1.0000
  C   C80       1.0  0.14910  0.13894  0.91048  1.0000
  C   C81       1.0  0.17268  0.12946  0.92011  1.0000
  C   C82       1.0  0.19159  0.11183  0.91121  1.0000
  C   C83       1.0  0.18690  0.10335  0.89286  1.0000
  H   H79       1.0  0.12708  0.13907  0.88422  1.0000
  H   H80       1.0  0.13443  0.15266  0.91729  1.0000
  H   H81       1.0  0.20980  0.10446  0.91859  1.0000
  H   H82       1.0  0.20145  0.08931  0.88617  1.0000
  H   H83       1.0  0.10474  0.42824  0.87989  1.0000
  C   C84       1.0  0.02747  0.29696  0.81413  1.0000
  S   S61       1.0  0.17000  0.47563  0.00516  1.0000
  H   H84       1.0  0.04142  0.13439  0.89907  1.0000
  C   C85       1.0  0.02556  0.12833  0.94043  1.0000
  C   C86       1.0  0.48345  0.12512  0.72522  1.0000
  C   C87       1.0  0.43570  0.20678  0.72966  1.0000
  H   H85       1.0  0.44960  0.48679  0.73508  1.0000
  C   C88       1.0  0.11163  0.31010  0.80785  1.0000
  H   H86       1.0  0.43944  0.12468  0.72557  1.0000
  C   C89       1.0  0.25385  0.13021  0.76870  1.0000
  C   C90       1.0  0.23789  0.11858  0.78239  1.0000
  C   C91       1.0  0.21022  0.12693  0.78455  1.0000
  C   C92       1.0  0.19802  0.14665  0.77275  1.0000
  C   C93       1.0  0.21391  0.15802  0.75888  1.0000
  C   C94       1.0  0.24175  0.15010  0.75698  1.0000
  H   H87       1.0  0.24701  0.10313  0.79150  1.0000
  H   H88       1.0  0.19821  0.11783  0.79517  1.0000
  H   H89       1.0  0.20463  0.17327  0.74969  1.0000
  H   H90       1.0  0.25378  0.15931  0.74644  1.0000
  C   C95       1.0  0.16735  0.43337  0.90034  1.0000
  C   C96       1.0  0.16870  0.43794  0.88110  1.0000
  C   C97       1.0  0.18720  0.42245  0.87004  1.0000
  C   C98       1.0  0.20506  0.40291  0.87828  1.0000
  C   C99       1.0  0.20449  0.39915  0.89766  1.0000
  C   C100      1.0  0.18539  0.41402  0.90863  1.0000
  H   H91       1.0  0.15500  0.45306  0.87460  1.0000
  H   H92       1.0  0.18768  0.42571  0.85515  1.0000
  H   H93       1.0  0.21827  0.38403  0.90410  1.0000
  H   H94       1.0  0.18449  0.41027  0.92344  1.0000
  C   C101      1.0  0.18393  0.26932  0.81304  1.0000
  C   C102      1.0  0.16909  0.24929  0.80446  1.0000
  C   C103      1.0  0.14859  0.23709  0.81427  1.0000
  C   C104      1.0  0.14249  0.24536  0.83251  1.0000
  C   C105      1.0  0.15713  0.26554  0.84108  1.0000
  C   C106      1.0  0.17815  0.27722  0.83142  1.0000
  H   H95       1.0  0.17308  0.24345  0.79015  1.0000
  H   H96       1.0  0.13722  0.22158  0.80754  1.0000
  H   H97       1.0  0.15275  0.27165  0.85530  1.0000
  H   H98       1.0  0.19033  0.29186  0.83835  1.0000
  C   C107      1.0  0.08647  0.38333  0.81018  1.0000
  H   H99       1.0  0.47673  0.16334  0.77234  1.0000
  H   H100      1.0  0.14398  0.01804  0.99119  1.0000
  H   H101      1.0  0.10192  0.38692  0.78236  1.0000
  H   H102      1.0  0.06462  0.38005  0.83592  1.0000
  C   C108      1.0  0.40529  0.27357  0.74208  1.0000
  C   C109      1.0  0.39532  0.25325  0.75321  1.0000
  C   C110      1.0  0.37193  0.24019  0.74765  1.0000
  C   C111      1.0  0.35822  0.24768  0.73109  1.0000
  C   C112      1.0  0.36814  0.26810  0.72000  1.0000
  C   C113      1.0  0.39185  0.28076  0.72537  1.0000
  C   C114      1.0  0.19889  0.48058  0.92936  1.0000
  H   H103      1.0  0.36346  0.34541  0.77220  1.0000
  H   H104      1.0  0.35781  0.27380  0.70708  1.0000
  H   H105      1.0  0.39984  0.29596  0.71642  1.0000
  H   H106      1.0  0.29793  0.04968  0.72039  1.0000
  C   C115      1.0  0.02931  0.41081  0.97059  1.0000
  C   C116      1.0  0.13777  0.36574  0.90937  1.0000
  H   H107      1.0  0.22986  0.44934  0.92297  1.0000
  H   H108      1.0  0.25988  0.09561  0.73580  1.0000
  C   C117      1.0  0.33508  0.40250  0.76837  1.0000
  C   C118      1.0  0.32027  0.40680  0.78489  1.0000
  C   C119      1.0  0.29182  0.40457  0.78504  1.0000
  C   C120      1.0  0.27782  0.39869  0.76854  1.0000
  C   C121      1.0  0.29266  0.39435  0.75203  1.0000
  C   C122      1.0  0.32120  0.39579  0.75199  1.0000
  H   H109      1.0  0.33080  0.41207  0.79762  1.0000
  H   H110      1.0  0.28060  0.40814  0.79781  1.0000
  H   H111      1.0  0.28199  0.38985  0.73920  1.0000
  H   H112      1.0  0.08572  0.32502  0.95328  1.0000
  H   H113      1.0  0.23122  0.13664  0.68613  1.0000
  C   C123      1.0  0.28694  0.09391  0.69292  1.0000
  H   H114      1.0  0.05164  0.31461  0.94898  1.0000
  H   H115      1.0  0.05609  0.38694  0.76720  1.0000
  H   H116      1.0  0.08882  0.40165  0.86669  1.0000
  H   H117      1.0  0.12156  0.31296  0.82168  1.0000
  C   C124      1.0  0.07089  0.35209  0.98270  1.0000
  C   C125      1.0  0.16088  0.35380  0.88076  1.0000
  C   C126      1.0  0.02291  0.37432  0.94840  1.0000
  H   H118      1.0  0.13550  0.36320  0.92429  1.0000
  H   H119      1.0  0.17087  0.33553  0.90740  1.0000
  H   H120      1.0  0.04044  0.27129  0.83717  1.0000
  H   H121      1.0  0.12895  0.06676  0.98852  1.0000
  C   C127      1.0  0.27700  0.32773  0.76558  1.0000
  H   H122      1.0  0.08834  0.35939  0.97552  1.0000
  S   S62       1.0  0.35692  0.10437  0.68611  1.0000
  N   N8        1.0  0.26024  0.21289  0.78043  1.0000
  C   C128      1.0  0.27665  0.19191  0.78731  1.0000
  C   C129      1.0  0.23376  0.21637  0.78604  1.0000
  C   C130      1.0  0.26685  0.17422  0.80053  1.0000
  C   C131      1.0  0.22319  0.19881  0.79904  1.0000
  C   C132      1.0  0.23991  0.17771  0.80638  1.0000
  C   C133      1.0  0.27044  0.23073  0.76609  1.0000
  H   H123      1.0  0.29728  0.18836  0.78234  1.0000
  H   H124      1.0  0.22056  0.23265  0.78032  1.0000
  H   H125      1.0  0.27969  0.15713  0.80550  1.0000
  H   H126      1.0  0.20195  0.20105  0.80301  1.0000
  H   H127      1.0  0.23167  0.16346  0.81602  1.0000
  H   H128      1.0  0.26238  0.25198  0.76830  1.0000
  H   H129      1.0  0.29307  0.23085  0.76641  1.0000
  H   H130      1.0  0.26403  0.22370  0.75205  1.0000
  N   N9        1.0  0.18169  0.18718  0.88958  1.0000
  C   C134      1.0  0.15864  0.19881  0.88148  1.0000
  C   C135      1.0  0.18693  0.19103  0.90818  1.0000
  C   C136      1.0  0.13966  0.21402  0.89217  1.0000
  C   C137      1.0  0.16833  0.20601  0.91931  1.0000
  C   C138      1.0  0.14453  0.21753  0.91122  1.0000
  C   C139      1.0  0.20125  0.17131  0.87807  1.0000
  H   H131      1.0  0.15465  0.19608  0.86670  1.0000
  H   H132      1.0  0.20505  0.18161  0.91472  1.0000
  H   H133      1.0  0.12124  0.22286  0.88566  1.0000
  H   H134      1.0  0.17211  0.20808  0.93420  1.0000
  H   H135      1.0  0.12979  0.22895  0.91975  1.0000
  H   H136      1.0  0.21340  0.15619  0.88661  1.0000
  H   H137      1.0  0.19052  0.15957  0.86722  1.0000
  H   H138      1.0  0.21517  0.18502  0.87118  1.0000
  C   C140      1.0  0.12165  0.38530  0.89961  1.0000
  C   C141      1.0  0.45745  0.13113  0.73276  1.0000
  C   C142      1.0  0.24299  0.11735  0.71214  1.0000
  C   C143      1.0  0.14431  0.37342  0.87145  1.0000
  H   H139      1.0  0.30645  0.07676  0.73616  1.0000
  C   C144      1.0  0.03437  0.38321  0.79297  1.0000
  H   H140      1.0  0.02932  0.36311  0.93606  1.0000
  C   C145      1.0  0.02261  0.09894  0.01028  1.0000
  H   H141      1.0  0.17687  0.34237  0.87333  1.0000
  H   H142      1.0  0.14740  0.37678  0.85673  1.0000
  H   H143      1.0  0.08930  0.27935  0.83325  1.0000
  H   H144      1.0  0.32482  0.07187  0.71488  1.0000
  N   N10       1.0  0.32544  0.32710  0.77059  1.0000
  C   C146      1.0  0.50451  0.14723  0.75139  1.0000
  C   C147      1.0  0.28090  0.31205  0.74948  1.0000
  H   H145      1.0  0.07661  0.11182  0.91935  1.0000
  N   N11       1.0  0.12535  0.38917  0.88094  1.0000
  H   H146      1.0  0.26351  0.30666  0.74107  1.0000
  H   H147      1.0  0.34989  0.30493  0.75074  1.0000
  S   S63       1.0  0.07725  0.16709  0.98633  1.0000
  C   C148      1.0  0.07665  0.10745  0.90450  1.0000
  C   C149      1.0  0.05663  0.12023  0.89309  1.0000
  H   H148      1.0  0.12241  0.08975  0.92094  1.0000
  C   C150      1.0  0.02586  0.33438  0.00109  1.0000
  H   H149      1.0  0.12195  0.29244  0.80070  1.0000
  S   S64       1.0  0.10802  0.23629  0.99557  1.0000
  H   H150      1.0  0.45511  0.45540  0.72219  1.0000
  C   C151      1.0  0.11643  0.07614  0.90936  1.0000
  H   H151      1.0  0.10794  0.05774  0.91536  1.0000
  H   H152      1.0  0.41979  0.42460  0.78877  1.0000
  N   N12       1.0  0.09616  0.08992  0.89704  1.0000
  C   C152      1.0  0.05648  0.11475  0.87398  1.0000
  H   H153      1.0  0.50794  0.37493  0.75269  1.0000
  H   H154      1.0  0.45915  0.23658  0.75565  1.0000
  C   C153      1.0  0.08395  0.38520  0.79077  1.0000
  H   H155      1.0  0.04129  0.12478  0.86489  1.0000
  H   H156      1.0  0.13540  0.07019  0.90170  1.0000
  H   H157      1.0  0.48526  0.11407  0.71218  1.0000
  H   H158      1.0  0.24503  0.44417  0.95612  1.0000
  H   H159      1.0  0.15400  0.29093  0.94903  1.0000
  N   N13       1.0  0.05825  0.32980  0.97626  1.0000
  C   C154      1.0  0.05795  0.38531  0.78222  1.0000
  C   C155      1.0  0.03726  0.39657  0.95444  1.0000
  C   C156      1.0  0.02069  0.08284  0.95215  1.0000
  H   H160      1.0  0.07519  0.29415  0.96342  1.0000
  C   C157      1.0  0.09608  0.08431  0.87831  1.0000
  C   C158      1.0  0.12260  0.05505  0.00026  1.0000
  C   C159      1.0  0.10848  0.40992  0.87098  1.0000
  C   C160      1.0  0.04679  0.28448  0.82616  1.0000
  H   H161      1.0  0.42644  0.22440  0.72186  1.0000
  H   H162      1.0  0.35990  0.31714  0.78779  1.0000
  H   H163      1.0  0.50510  0.42633  0.77613  1.0000
  C   C161      1.0  0.47372  0.22618  0.74644  1.0000
  C   C162      1.0  0.11691  0.29082  0.99635  1.0000
  C   C163      1.0  0.07627  0.09664  0.86651  1.0000
  H   H164      1.0  0.11878  0.41671  0.85819  1.0000
  H   H165      1.0  0.11169  0.07064  0.87231  1.0000
  C   C164      1.0  0.21608  0.47504  0.96617  1.0000
  C   C165      1.0  0.46326  0.42407  0.78458  1.0000
  H   H166      1.0  0.02895  0.16696  0.01107  1.0000
  H   H167      1.0  0.02565  0.30359  0.97983  1.0000
  C   C166      1.0  0.06134  0.36601  0.99858  1.0000
  C   C167      1.0  0.47854  0.15279  0.75911  1.0000
  C   C168      1.0  0.42994  0.44412  0.76307  1.0000
  H   H168      1.0  0.29631  0.34732  0.78850  1.0000
  C   C169      1.0  0.26237  0.10003  0.72112  1.0000
  H   H169      1.0  0.40551  0.24774  0.76621  1.0000
  H   H170      1.0  0.34335  0.34995  0.79265  1.0000
  C   C170      1.0  0.48320  0.19704  0.72060  1.0000
  H   H171      1.0  0.31059  0.29121  0.73177  1.0000
  C   C171      1.0  0.06289  0.38142  0.82090  1.0000
  C   C172      1.0  0.32943  0.31137  0.75499  1.0000
  H   H172      1.0  0.42539  0.20535  0.74333  1.0000
  H   H173      1.0  0.22581  0.12626  0.71986  1.0000
  C   C173      1.0  0.15762  0.35007  0.89987  1.0000
  N   N14       1.0  0.08256  0.30568  0.80999  1.0000
  C   C174      1.0  0.12659  0.31519  0.98947  1.0000
  H   H174      1.0  0.02400  0.15624  0.79015  1.0000
  C   C175      1.0  0.34915  0.33520  0.78141  1.0000
  H   H175      1.0  0.01908  0.37976  0.82080  1.0000
  C   C176      1.0  0.24600  0.12311  0.69325  1.0000
  H   H176      1.0  0.11489  0.32876  0.79971  1.0000
  H   H177      1.0  0.36425  0.22471  0.75642  1.0000
  N   N15       1.0  0.18602  0.49568  0.94304  1.0000
  H   H178      1.0  0.10680  0.39803  0.90715  1.0000
  C   C177      1.0  0.03700  0.38124  0.81236  1.0000
  C   C178      1.0  0.06822  0.31522  0.95961  1.0000
  N   N16       1.0  0.28429  0.08904  0.71158  1.0000
  H   H179      1.0  0.25661  0.33483  0.76969  1.0000
  C   C179      1.0  0.45489  0.14473  0.74987  1.0000
  C   C180      1.0  0.30726  0.30356  0.74421  1.0000
  C   C181      1.0  0.29962  0.33490  0.77612  1.0000
  C   C182      1.0  0.03602  0.32089  0.98522  1.0000
  C   C183      1.0  0.50156  0.22954  0.74923  1.0000
  C   C184      1.0  0.48389  0.43150  0.77272  1.0000
  C   C185      1.0  0.19428  0.05163  0.00928  1.0000
  C   C186      1.0  0.19478  0.49357  0.96117  1.0000
  H   H180      1.0  0.40871  0.44864  0.75939  1.0000
  H   H181      1.0  0.07029  0.32983  0.78646  1.0000
  C   C187      1.0  0.13107  0.02740  0.00181  1.0000
  N   N17       1.0  0.45031  0.45109  0.75143  1.0000
  C   C188      1.0  0.43610  0.43054  0.77980  1.0000
  C   C189      1.0  0.22029  0.46184  0.93383  1.0000
  H   H182      1.0  0.19221  0.48251  0.91492  1.0000
  C   C190      1.0  0.03604  0.31337  0.79978  1.0000
  C   C191      1.0  0.22880  0.45897  0.95239  1.0000
  H   H183      1.0  0.49764  0.31883  0.70826  1.0000
  H   H184      1.0  0.49315  0.45075  0.74693  1.0000
  H   H185      1.0  0.47630  0.18392  0.70955  1.0000
  H   H186      1.0  0.46827  0.41310  0.79735  1.0000
  H   H187      1.0  0.49856  0.36077  0.69077  1.0000
  H   H188      1.0  0.02122  0.32333  0.79036  1.0000
  H   H189      1.0  0.20563  0.04194  0.99795  1.0000
  H   H190      1.0  0.01442  0.17686  0.97339  1.0000
  C   C192      1.0  0.18587  0.07904  0.00820  1.0000
  C   C193      1.0  0.10716  0.06777  0.01440  1.0000
  H   H191      1.0  0.07099  0.38407  0.00337  1.0000
  H   H192      1.0  0.10686  0.29079  0.00971  1.0000
  C   C194      1.0  0.02162  0.14754  0.00676  1.0000
  H   H193      1.0  0.19058  0.09086  0.99602  1.0000
  H   H194      1.0  0.22219  0.47287  0.98072  1.0000
  H   H195      1.0  0.30387  0.08457  0.68521  1.0000
  C   C195      1.0  0.50708  0.13319  0.73445  1.0000
  C   C196      1.0  0.00908  0.14054  0.81582  1.0000
  C   C197      1.0  0.03867  0.35707  0.00779  1.0000
  Fe  Fe33      1.0  0.33068  0.89948  0.32332  1.0000
  S   S65       1.0  0.33350  0.91213  0.29320  1.0000
  Fe  Fe34      1.0  0.33052  0.84053  0.31346  1.0000
  S   S66       1.0  0.33375  0.84783  0.28285  1.0000
  S   S67       1.0  0.33190  0.79909  0.32583  1.0000
  Fe  Fe35      1.0  0.36496  0.87744  0.29098  1.0000
  S   S68       1.0  0.40477  0.87943  0.27530  1.0000
  Fe  Fe36      1.0  0.30169  0.88142  0.28762  1.0000
  S   S69       1.0  0.26948  0.88333  0.26419  1.0000
  S   S70       1.0  0.36411  0.86722  0.32119  1.0000
  S   S71       1.0  0.29645  0.87173  0.31809  1.0000
  Fe  Fe37      1.0  0.10996  0.86688  0.19704  1.0000
  S   S72       1.0  0.09607  0.90374  0.21345  1.0000
  S   S73       1.0  0.13329  0.86577  0.17021  1.0000
  Fe  Fe38      1.0  0.08865  0.82852  0.22544  1.0000
  S   S74       1.0  0.07313  0.86195  0.24441  1.0000
  S   S75       1.0  0.08439  0.78467  0.23178  1.0000
  Fe  Fe39      1.0  0.05749  0.88157  0.21781  1.0000
  S   S76       1.0  0.01529  0.90062  0.21120  1.0000
  Fe  Fe40      1.0  0.11318  0.88048  0.23838  1.0000
  S   S77       1.0  0.14008  0.89763  0.26119  1.0000
  S   S78       1.0  0.07062  0.84654  0.19936  1.0000
  S   S79       1.0  0.12960  0.84532  0.22156  1.0000
  Fe  Fe41      1.0  0.40696  0.65291  0.33064  1.0000
  S   S80       1.0  0.42160  0.61528  0.31511  1.0000
  Fe  Fe42      1.0  0.42858  0.69013  0.30155  1.0000
  S   S81       1.0  0.44489  0.65609  0.28351  1.0000
  S   S82       1.0  0.43397  0.73353  0.29437  1.0000
  Fe  Fe43      1.0  0.40481  0.63738  0.28947  1.0000
  S   S83       1.0  0.37929  0.62245  0.26505  1.0000
  Fe  Fe44      1.0  0.46017  0.63755  0.31049  1.0000
  H   H196      1.0  0.05768  0.89263  0.10098  1.0000
  S   S84       1.0  0.38775  0.67324  0.30539  1.0000
  S   S85       1.0  0.44626  0.67328  0.32803  1.0000
  Fe  Fe45      1.0  0.19225  0.68234  0.21288  1.0000
  S   S86       1.0  0.18872  0.67316  0.24321  1.0000
  S   S87       1.0  0.19089  0.72463  0.20169  1.0000
  Fe  Fe46      1.0  0.18909  0.62419  0.20155  1.0000
  S   S88       1.0  0.18497  0.60990  0.23124  1.0000
  S   S89       1.0  0.18271  0.59812  0.17618  1.0000
  Fe  Fe47      1.0  0.15554  0.64613  0.23438  1.0000
  S   S90       1.0  0.11587  0.65234  0.25032  1.0000
  Fe  Fe48      1.0  0.21870  0.63821  0.23762  1.0000
  S   S91       1.0  0.24903  0.63234  0.26189  1.0000
  S   S92       1.0  0.15723  0.65793  0.20443  1.0000
  S   S93       1.0  0.22480  0.64973  0.20756  1.0000
  Fe  Fe49      1.0  0.07694  0.90801  0.04086  1.0000
  H   H197      1.0  0.38723  0.93648  0.28255  1.0000
  C   C198      1.0  0.01037  0.66991  0.03634  1.0000
  Fe  Fe50      1.0  0.10138  0.92893  0.07643  1.0000
  S   S94       1.0  0.14362  0.92758  0.06456  1.0000
  S   S95       1.0  0.08907  0.94301  0.10526  1.0000
  Fe  Fe51      1.0  0.12289  0.94629  0.03899  1.0000
  C   C199      1.0  0.40918  0.94405  0.33611  1.0000
  Fe  Fe52      1.0  0.13298  0.88673  0.05280  1.0000
  S   S96       1.0  0.15991  0.84757  0.05277  1.0000
  S   S97       1.0  0.08138  0.95010  0.05174  1.0000
  S   S98       1.0  0.09256  0.88713  0.06671  1.0000
  Fe  Fe53      1.0  0.17038  0.65127  0.07691  1.0000
  S   S99       1.0  0.17285  0.66750  0.04753  1.0000
  S   S100      1.0  0.20399  0.65334  0.09834  1.0000
  Fe  Fe54      1.0  0.11190  0.63807  0.07270  1.0000
  S   S101      1.0  0.10954  0.65392  0.04361  1.0000
  S   S102      1.0  0.07656  0.62074  0.08709  1.0000
  Fe  Fe55      1.0  0.14951  0.63056  0.03972  1.0000
  C   C200      1.0  0.22760  0.57283  0.27668  1.0000
  Fe  Fe56      1.0  0.13246  0.68900  0.05422  1.0000
  S   S103      1.0  0.11233  0.73057  0.04730  1.0000
  S   S104      1.0  0.15059  0.61306  0.06853  1.0000
  S   S105      1.0  0.13150  0.67466  0.08383  1.0000
  C   C201      1.0  0.05262  0.60899  0.07112  1.0000
  H   H198      1.0  0.01299  0.95131  0.14324  1.0000
  C   C202      1.0  0.05804  0.60814  0.05201  1.0000
  H   H199      1.0  0.37767  0.94263  0.31528  1.0000
  H   H200      1.0  0.07811  0.61157  0.04706  1.0000
  C   C203      1.0  0.46611  0.88673  0.31359  1.0000
  C   C204      1.0  0.17254  0.55372  0.02394  1.0000
  H   H201      1.0  0.18431  0.56453  0.03411  1.0000
  C   C205      1.0  0.16195  0.61488  0.27920  1.0000
  S   S106      1.0  0.11673  0.90529  0.02608  1.0000
  H   H202      1.0  0.30783  0.68628  0.26551  1.0000
  H   H203      1.0  0.03400  0.91534  0.06461  1.0000
  H   H204      1.0  0.45791  0.95066  0.29473  1.0000
  C   C206      1.0  0.14639  0.81500  0.05461  1.0000
  C   C207      1.0  0.11831  0.81171  0.05456  1.0000
  C   C208      1.0  0.10823  0.78556  0.05352  1.0000
  C   C209      1.0  0.12603  0.76236  0.05251  1.0000
  C   C210      1.0  0.15412  0.76550  0.05355  1.0000
  C   C211      1.0  0.16421  0.79171  0.05460  1.0000
  H   H205      1.0  0.10430  0.82934  0.05461  1.0000
  H   H206      1.0  0.08647  0.78340  0.05282  1.0000
  H   H207      1.0  0.16809  0.74786  0.05272  1.0000
  H   H208      1.0  0.18598  0.79400  0.05469  1.0000
  H   H209      1.0  0.02328  0.60122  0.09229  1.0000
  C   C212      1.0  0.05237  0.71473  0.22190  1.0000
  H   H210      1.0  0.17265  0.95739  0.25233  1.0000
  C   C213      1.0  0.18840  0.61404  0.15473  1.0000
  C   C214      1.0  0.17108  0.60960  0.13948  1.0000
  C   C215      1.0  0.17564  0.62165  0.12213  1.0000
  C   C216      1.0  0.19798  0.63768  0.11985  1.0000
  C   C217      1.0  0.21518  0.64228  0.13514  1.0000
  C   C218      1.0  0.21027  0.63069  0.15259  1.0000
  H   H211      1.0  0.15392  0.59707  0.14120  1.0000
  H   H212      1.0  0.16199  0.61841  0.11051  1.0000
  H   H213      1.0  0.23238  0.65480  0.13349  1.0000
  H   H214      1.0  0.22383  0.63407  0.16425  1.0000
  C   C219      1.0  0.08473  0.63884  0.24321  1.0000
  H   H215      1.0  0.19217  0.51455  0.03028  1.0000
  C   C220      1.0  0.08390  0.61762  0.23026  1.0000
  C   C221      1.0  0.39933  0.94443  0.31772  1.0000
  H   H216      1.0  0.10260  0.60919  0.22423  1.0000
  H   H217      1.0  0.15109  0.91903  0.19408  1.0000
  H   H218      1.0  0.07183  0.86539  0.11480  1.0000
  H   H219      1.0  0.40073  0.67648  0.25217  1.0000
  C   C222      1.0  0.44397  0.94933  0.30630  1.0000
  C   C223      1.0  0.15271  0.57038  0.26754  1.0000
  C   C224      1.0  0.34303  0.62446  0.26451  1.0000
  C   C225      1.0  0.32925  0.62129  0.24738  1.0000
  C   C226      1.0  0.30055  0.62415  0.24619  1.0000
  C   C227      1.0  0.28526  0.62961  0.26226  1.0000
  C   C228      1.0  0.29902  0.63248  0.27941  1.0000
  C   C229      1.0  0.32772  0.63030  0.28051  1.0000
  H   H220      1.0  0.34087  0.61682  0.23489  1.0000
  H   H221      1.0  0.29030  0.62172  0.23291  1.0000
  H   H222      1.0  0.28745  0.63664  0.29196  1.0000
  H   H223      1.0  0.33798  0.63288  0.29379  1.0000
  C   C230      1.0  0.12116  0.88770  0.15239  1.0000
  C   C231      1.0  0.10353  0.91013  0.15629  1.0000
  C   C232      1.0  0.09452  0.92759  0.14182  1.0000
  C   C233      1.0  0.10249  0.92228  0.12337  1.0000
  C   C234      1.0  0.12007  0.89982  0.11949  1.0000
  C   C235      1.0  0.12957  0.88272  0.13401  1.0000
  H   H224      1.0  0.09706  0.91418  0.17045  1.0000
  H   H225      1.0  0.08109  0.94508  0.14490  1.0000
  H   H226      1.0  0.12641  0.89564  0.10531  1.0000
  H   H227      1.0  0.14332  0.86545  0.13095  1.0000
  C   C236      1.0  0.11156  0.76641  0.22127  1.0000
  C   C237      1.0  0.12004  0.74099  0.22826  1.0000
  C   C238      1.0  0.14371  0.72764  0.22150  1.0000
  C   C239      1.0  0.15949  0.73998  0.20820  1.0000
  C   C240      1.0  0.15066  0.76512  0.20081  1.0000
  C   C241      1.0  0.12646  0.77816  0.20719  1.0000
  H   H228      1.0  0.10898  0.73197  0.23941  1.0000
  H   H229      1.0  0.15011  0.70821  0.22720  1.0000
  H   H230      1.0  0.16262  0.77471  0.19040  1.0000
  H   H231      1.0  0.11953  0.79746  0.20132  1.0000
  C   C242      1.0  0.36274  0.78250  0.31947  1.0000
  C   C243      1.0  0.37999  0.79468  0.30698  1.0000
  C   C244      1.0  0.40301  0.78014  0.30013  1.0000
  C   C245      1.0  0.40881  0.75343  0.30584  1.0000
  C   C246      1.0  0.39267  0.74192  0.31931  1.0000
  C   C247      1.0  0.36946  0.75636  0.32601  1.0000
  H   H232      1.0  0.37514  0.81491  0.30194  1.0000
  H   H233      1.0  0.41546  0.78919  0.28974  1.0000
  H   H234      1.0  0.39762  0.72165  0.32431  1.0000
  H   H235      1.0  0.23098  0.55161  0.28157  1.0000
  C   C248      1.0  0.23342  0.88374  0.26529  1.0000
  C   C249      1.0  0.21885  0.89700  0.27964  1.0000
  C   C250      1.0  0.19021  0.90057  0.27839  1.0000
  C   C251      1.0  0.17584  0.89067  0.26294  1.0000
  C   C252      1.0  0.19034  0.87639  0.24900  1.0000
  C   C253      1.0  0.21895  0.87311  0.25014  1.0000
  H   H236      1.0  0.22971  0.90552  0.29129  1.0000
  H   H237      1.0  0.17921  0.91161  0.28928  1.0000
  H   H238      1.0  0.17965  0.86856  0.23708  1.0000
  H   H239      1.0  0.23005  0.86294  0.23894  1.0000
  H   H240      1.0  0.35155  0.67335  0.25026  1.0000
  C   C254      1.0  0.43722  0.88133  0.28617  1.0000
  C   C255      1.0  0.03424  0.61784  0.23283  1.0000
  H   H241      1.0  0.42308  0.87971  0.31442  1.0000
  C   C256      1.0  0.18959  0.60674  0.28063  1.0000
  H   H242      1.0  0.34262  0.75866  0.28644  1.0000
  C   C257      1.0  0.48572  0.88894  0.28292  1.0000
  H   H243      1.0  0.06855  0.65539  0.19940  1.0000
  C   C258      1.0  0.03506  0.63923  0.24567  1.0000
  C   C259      1.0  0.45452  0.94906  0.32451  1.0000
  N   N18       1.0  0.17489  0.71069  0.14527  1.0000
  C   C260      1.0  0.18270  0.73614  0.14966  1.0000
  C   C261      1.0  0.17090  0.70340  0.12704  1.0000
  C   C262      1.0  0.18655  0.75513  0.13562  1.0000
  C   C263      1.0  0.17500  0.72171  0.11263  1.0000
  C   C264      1.0  0.18274  0.74778  0.11698  1.0000
  C   C265      1.0  0.17139  0.69117  0.16029  1.0000
  H   H244      1.0  0.18605  0.74183  0.16411  1.0000
  H   H245      1.0  0.16472  0.68328  0.12348  1.0000
  H   H246      1.0  0.19263  0.77533  0.13919  1.0000
  H   H247      1.0  0.01637  0.64760  0.25171  1.0000
  H   H248      1.0  0.18587  0.76218  0.10590  1.0000
  H   H249      1.0  0.15723  0.70000  0.17096  1.0000
  H   H250      1.0  0.19137  0.68599  0.16717  1.0000
  N   N19       1.0  0.12459  0.54804  0.06886  1.0000
  C   C266      1.0  0.10913  0.55840  0.08324  1.0000
  C   C267      1.0  0.15178  0.54167  0.07152  1.0000
  C   C268      1.0  0.12087  0.56290  0.10078  1.0000
  C   C269      1.0  0.16417  0.54574  0.08891  1.0000
  C   C270      1.0  0.14858  0.55651  0.10360  1.0000
  C   C271      1.0  0.11241  0.54581  0.05018  1.0000
  H   H251      1.0  0.08766  0.56375  0.08112  1.0000
  H   H252      1.0  0.16414  0.53374  0.06012  1.0000
  H   H253      1.0  0.10859  0.57190  0.11194  1.0000
  H   H254      1.0  0.18582  0.54108  0.09090  1.0000
  H   H255      1.0  0.15805  0.56018  0.11707  1.0000
  C   C272      1.0  0.05176  0.68693  0.02306  1.0000
  C   C273      1.0  0.02267  0.91694  0.16098  1.0000
  H   H256      1.0  0.11443  0.56510  0.04249  1.0000
  N   N20       1.0  0.04278  0.89154  0.12885  1.0000
  C   C274      1.0  0.03147  0.91744  0.12791  1.0000
  C   C275      1.0  0.03027  0.67607  0.07235  1.0000
  C   C276      1.0  0.04397  0.87796  0.14546  1.0000
  C   C277      1.0  0.01121  0.59821  0.04548  1.0000
  S   S107      1.0  0.50349  0.62225  0.31813  1.0000
  C   C278      1.0  0.05272  0.87778  0.11188  1.0000
  H   H257      1.0  0.06127  0.66792  0.01708  1.0000
  C   C279      1.0  0.03391  0.89045  0.16174  1.0000
  C   C280      1.0  0.17703  0.52540  0.02169  1.0000
  H   H258      1.0  0.15496  0.63554  0.28258  1.0000
  C   C281      1.0  0.01871  0.88449  0.04652  1.0000
  H   H259      1.0  0.06213  0.73151  0.22848  1.0000
  H   H260      1.0  0.03697  0.86461  0.10618  1.0000
  C   C282      1.0  0.48020  0.77829  0.31124  1.0000
  H   H261      1.0  0.16312  0.67198  0.15510  1.0000
  H   H262      1.0  0.04105  0.60421  0.02433  1.0000
  H   H263      1.0  0.18110  0.75568  0.24585  1.0000
  H   H264      1.0  0.05309  0.85750  0.14625  1.0000
  H   H265      1.0  0.23668  0.57479  0.26263  1.0000
  H   H266      1.0  0.47632  0.95000  0.32688  1.0000
  H   H267      1.0  0.45784  0.88372  0.25989  1.0000
  H   H268      1.0  0.06073  0.66578  0.26107  1.0000
  C   C283      1.0  0.18051  0.56292  0.26910  1.0000
  H   H269      1.0  0.23878  0.58599  0.28644  1.0000
  H   H270      1.0  0.22438  0.90648  0.20362  1.0000
  N   N21       1.0  0.18030  0.79516  0.25794  1.0000
  C   C284      1.0  0.19715  0.80944  0.26917  1.0000
  C   C285      1.0  0.15270  0.80021  0.25851  1.0000
  C   C286      1.0  0.18633  0.82901  0.28162  1.0000
  C   C287      1.0  0.14123  0.81994  0.27055  1.0000
  C   C288      1.0  0.15820  0.83436  0.28220  1.0000
  C   C289      1.0  0.19164  0.77497  0.24467  1.0000
  H   H271      1.0  0.21909  0.80607  0.26844  1.0000
  H   H272      1.0  0.13938  0.78918  0.24947  1.0000
  H   H273      1.0  0.19975  0.84064  0.29029  1.0000
  H   H274      1.0  0.11935  0.82432  0.27059  1.0000
  H   H275      1.0  0.14960  0.85027  0.29124  1.0000
  H   H276      1.0  0.18892  0.78261  0.23017  1.0000
  H   H277      1.0  0.21369  0.77010  0.24717  1.0000
  H   H278      1.0  0.46816  0.88841  0.32859  1.0000
  H   H279      1.0  0.46938  0.78272  0.29781  1.0000
  H   H280      1.0  0.01514  0.92684  0.17363  1.0000
  C   C290      1.0  0.05618  0.67209  0.20532  1.0000
  H   H281      1.0  0.47566  0.72722  0.32306  1.0000
  N   N22       1.0  0.37159  0.70756  0.26058  1.0000
  H   H282      1.0  0.30346  0.72898  0.28420  1.0000
  C   C291      1.0  0.34972  0.69184  0.25843  1.0000
  C   C292      1.0  0.34444  0.73978  0.27862  1.0000
  H   H283      1.0  0.41500  0.70714  0.25985  1.0000
  H   H284      1.0  0.39796  0.70615  0.23735  1.0000
  H   H285      1.0  0.17249  0.71552  0.09818  1.0000
  C   C293      1.0  0.39759  0.69899  0.25199  1.0000
  H   H286      1.0  0.35635  0.74693  0.33582  1.0000
  C   C294      1.0  0.17067  0.90790  0.19771  1.0000
  C   C295      1.0  0.02785  0.67135  0.20526  1.0000
  N   N23       1.0  0.18521  0.92153  0.21272  1.0000
  N   N24       1.0  0.02460  0.71387  0.22176  1.0000
  C   C296      1.0  0.02140  0.93059  0.14396  1.0000
  N   N25       1.0  0.49975  0.75510  0.30878  1.0000
  C   C297      1.0  0.03721  0.60327  0.03915  1.0000
  C   C298      1.0  0.21260  0.94440  0.24255  1.0000
  H   H287      1.0  0.03492  0.87980  0.17494  1.0000
  C   C299      1.0  0.06024  0.64946  0.25097  1.0000
  H   H288      1.0  0.09044  0.54173  0.05094  1.0000
  C   C300      1.0  0.17079  0.93546  0.22626  1.0000
  H   H289      1.0  0.46455  0.77412  0.32178  1.0000
  C   C301      1.0  0.32242  0.72319  0.27728  1.0000
  N   N26       1.0  0.03527  0.68043  0.03920  1.0000
  H   H290      1.0  0.12199  0.60272  0.27127  1.0000
  H   H291      1.0  0.16624  0.88705  0.20209  1.0000
  H   H292      1.0  0.09065  0.69409  0.21442  1.0000
  C   C302      1.0  0.46011  0.88422  0.27492  1.0000
  C   C303      1.0  0.22712  0.92994  0.22879  1.0000
  H   H293      1.0  0.24907  0.92655  0.23016  1.0000
  C   C304      1.0  0.44047  0.88193  0.30559  1.0000
  N   N27       1.0  0.19848  0.58092  0.27581  1.0000
  H   H294      1.0  0.22322  0.95235  0.25457  1.0000
  C   C305      1.0  0.18426  0.94730  0.24127  1.0000
  C   C306      1.0  0.36895  0.73171  0.26996  1.0000
  C   C307      1.0  0.14343  0.59649  0.27272  1.0000
  C   C308      1.0  0.32489  0.69922  0.26689  1.0000
  H   H295      1.0  0.14869  0.93668  0.22591  1.0000
  C   C309      1.0  0.40608  0.94781  0.28393  1.0000
  H   H296      1.0  0.18769  0.54279  0.26465  1.0000
  H   H297      1.0  0.38593  0.74476  0.27093  1.0000
  H   H298      1.0  0.05834  0.59040  0.21537  1.0000
  H   H299      1.0  0.40160  0.96917  0.27969  1.0000
  H   H300      1.0  0.20394  0.62138  0.28527  1.0000
  S   S108      1.0  0.03965  0.89193  0.02789  1.0000
  C   C310      1.0  0.21300  0.91848  0.21391  1.0000
  N   N28       1.0  0.41674  0.94676  0.30310  1.0000
  C   C311      1.0  0.05879  0.60701  0.22526  1.0000
  H   H301      1.0  0.13850  0.55623  0.26200  1.0000
  C   C312      1.0  0.49434  0.73010  0.31558  1.0000
  H   H302      1.0  0.50282  0.89250  0.27404  1.0000
  C   C313      1.0  0.04533  0.68350  0.05692  1.0000
  H   H303      1.0  0.18278  0.90644  0.18470  1.0000
  S   S109      1.0  0.13954  0.97909  0.02051  1.0000
  C   C314      1.0  0.02730  0.60165  0.07748  1.0000
  H   H304      1.0  0.03883  0.67746  0.08631  1.0000
  H   H305      1.0  0.12259  0.52899  0.04203  1.0000
  H   H306      1.0  0.42091  0.93789  0.27409  1.0000
  C   C315      1.0  0.48872  0.89088  0.30230  1.0000
  C   C316      1.0  0.06859  0.69381  0.21377  1.0000
  C   C317      1.0  0.43698  0.94630  0.33949  1.0000
  H   H307      1.0  0.06531  0.69134  0.05924  1.0000
  H   H308      1.0  0.17114  0.81575  0.01625  1.0000
  C   C318      1.0  0.01982  0.89947  0.06313  1.0000
  S   S110      1.0  0.33804  0.92714  0.34782  1.0000
  H   H309      1.0  0.03093  0.92835  0.11480  1.0000
  H   H310      1.0  0.06827  0.70050  0.02701  1.0000
  H   H311      1.0  0.02015  0.75148  0.23693  1.0000
  H   H312      1.0  0.49078  0.79655  0.31584  1.0000
  C   C319      1.0  0.01229  0.69252  0.21365  1.0000
  H   H313      1.0  0.01809  0.65397  0.19940  1.0000
  H   H314      1.0  0.39524  0.94193  0.34761  1.0000
  H   H315      1.0  0.00868  0.96932  0.04583  1.0000
  H   H316      1.0  0.50805  0.68788  0.31794  1.0000
  Fe  Fe57      1.0  0.40522  0.88878  0.45988  1.0000
  S   S111      1.0  0.39998  0.88059  0.49025  1.0000
  S   S112      1.0  0.44496  0.89763  0.44679  1.0000
  Fe  Fe58      1.0  0.34635  0.88199  0.45093  1.0000
  S   S113      1.0  0.33614  0.87316  0.48089  1.0000
  S   S114      1.0  0.31635  0.87647  0.42732  1.0000
  Fe  Fe59      1.0  0.36234  0.90829  0.48792  1.0000
  S   S115      1.0  0.35583  0.93699  0.51293  1.0000
  Fe  Fe60      1.0  0.37471  0.84643  0.48062  1.0000
  S   S116      1.0  0.38274  0.80517  0.49440  1.0000
  S   S117      1.0  0.36946  0.91890  0.45790  1.0000
  S   S118      1.0  0.38295  0.85288  0.45042  1.0000
  Fe  Fe61      1.0  0.37466  0.64959  0.47296  1.0000
  S   S119      1.0  0.41445  0.64371  0.45847  1.0000
  S   S120      1.0  0.35129  0.68928  0.46568  1.0000
  Fe  Fe62      1.0  0.38266  0.59350  0.49214  1.0000
  S   S121      1.0  0.42364  0.58493  0.47940  1.0000
  S   S122      1.0  0.36432  0.56225  0.51094  1.0000
  Fe  Fe63      1.0  0.43015  0.62854  0.48594  1.0000
  S   S123      1.0  0.46856  0.64643  0.49564  1.0000
  Fe  Fe64      1.0  0.40354  0.60116  0.45324  1.0000
  S   S124      1.0  0.41289  0.58044  0.42596  1.0000
  S   S125      1.0  0.39091  0.63640  0.50108  1.0000
  S   S126      1.0  0.36189  0.60757  0.46536  1.0000
  H   H317      1.0  0.36108  0.82811  0.35355  1.0000
  H   H318      1.0  0.42063  0.60972  0.36095  1.0000
  C   C320      1.0  0.40492  0.60176  0.40686  1.0000
  C   C321      1.0  0.38636  0.62401  0.40887  1.0000
  C   C322      1.0  0.37975  0.64072  0.39353  1.0000
  C   C323      1.0  0.39216  0.63573  0.37624  1.0000
  C   C324      1.0  0.41100  0.61368  0.37426  1.0000
  C   C325      1.0  0.41714  0.59654  0.38953  1.0000
  H   H319      1.0  0.37673  0.62811  0.42216  1.0000
  H   H320      1.0  0.36501  0.65763  0.39506  1.0000
  H   H321      1.0  0.43715  0.72812  0.46418  1.0000
  H   H322      1.0  0.43153  0.57935  0.38792  1.0000
  C   C326      1.0  0.36344  0.51021  0.52452  1.0000
  H   H323      1.0  0.42208  0.95317  0.46160  1.0000
  N   N29       1.0  0.44613  0.94828  0.48631  1.0000
  H   H324      1.0  0.47143  0.61133  0.46320  1.0000
  H   H325      1.0  0.37506  0.85563  0.40904  1.0000
  H   H326      1.0  0.41200  0.93162  0.52497  1.0000
  C   C327      1.0  0.42484  0.94560  0.49814  1.0000
  H   H327      1.0  0.43760  0.65794  0.39802  1.0000
  H   H328      1.0  0.40961  0.53080  0.49342  1.0000
  H   H329      1.0  0.47058  0.71204  0.46687  1.0000
  C   C328      1.0  0.32233  0.89124  0.40543  1.0000
  C   C329      1.0  0.33993  0.91240  0.40359  1.0000
  C   C330      1.0  0.34422  0.92368  0.38592  1.0000
  C   C331      1.0  0.33164  0.91332  0.36993  1.0000
  C   C332      1.0  0.31467  0.89166  0.37173  1.0000
  C   C333      1.0  0.30969  0.88098  0.38944  1.0000
  H   H330      1.0  0.34973  0.92047  0.41583  1.0000
  H   H331      1.0  0.35738  0.94042  0.38466  1.0000
  H   H332      1.0  0.30487  0.88350  0.35952  1.0000
  H   H333      1.0  0.29614  0.86455  0.39074  1.0000
  C   C334      1.0  0.37802  0.77328  0.48369  1.0000
  C   C335      1.0  0.36053  0.77059  0.46835  1.0000
  C   C336      1.0  0.35350  0.74461  0.46235  1.0000
  C   C337      1.0  0.36427  0.72112  0.47139  1.0000
  C   C338      1.0  0.38317  0.72377  0.48591  1.0000
  C   C339      1.0  0.38978  0.74974  0.49213  1.0000
  H   H334      1.0  0.35138  0.78852  0.46170  1.0000
  H   H335      1.0  0.33891  0.74272  0.45107  1.0000
  H   H336      1.0  0.39153  0.70588  0.49303  1.0000
  H   H337      1.0  0.40331  0.75161  0.50403  1.0000
  C   C340      1.0  0.35729  0.98964  0.49889  1.0000
  C   C341      1.0  0.35733  0.97298  0.51464  1.0000
  H   H338      1.0  0.35835  0.97256  0.54472  1.0000
  H   H339      1.0  0.35618  0.98071  0.48511  1.0000
  C   C342      1.0  0.46965  0.87118  0.47659  1.0000
  C   C343      1.0  0.47281  0.88783  0.46110  1.0000
  H   H340      1.0  0.33469  0.55751  0.47451  1.0000
  H   H341      1.0  0.45064  0.86188  0.47877  1.0000
  H   H342      1.0  0.31187  0.53374  0.46441  1.0000
  H   H343      1.0  0.34625  0.82062  0.42134  1.0000
  C   C344      1.0  0.44027  0.66883  0.41107  1.0000
  C   C345      1.0  0.39157  0.51545  0.44510  1.0000
  H   H344      1.0  0.36597  0.55162  0.44834  1.0000
  C   C346      1.0  0.35840  0.98516  0.53242  1.0000
  N   N30       1.0  0.35336  0.51965  0.46575  1.0000
  H   H345      1.0  0.32457  0.78874  0.39943  1.0000
  S   S127      1.0  0.38403  0.65792  0.35766  1.0000
  H   H346      1.0  0.40622  0.85574  0.36822  1.0000
  C   C347      1.0  0.46690  0.67819  0.43861  1.0000
  H   H347      1.0  0.40431  0.95207  0.49387  1.0000
  N   N31       1.0  0.31531  0.77952  0.50306  1.0000
  C   C348      1.0  0.30145  0.76251  0.49173  1.0000
  C   C349      1.0  0.33220  0.76922  0.51689  1.0000
  C   C350      1.0  0.30470  0.73436  0.49388  1.0000
  C   C351      1.0  0.33579  0.74118  0.51951  1.0000
  C   C352      1.0  0.32205  0.72368  0.50783  1.0000
  C   C353      1.0  0.31215  0.80887  0.50000  1.0000
  H   H348      1.0  0.28847  0.77066  0.48054  1.0000
  H   H349      1.0  0.34389  0.78264  0.52549  1.0000
  H   H350      1.0  0.29477  0.72082  0.48432  1.0000
  H   H351      1.0  0.34996  0.73306  0.53002  1.0000
  H   H352      1.0  0.32561  0.70187  0.50909  1.0000
  H   H353      1.0  0.32630  0.82021  0.50895  1.0000
  H   H354      1.0  0.31712  0.81363  0.48531  1.0000
  H   H355      1.0  0.29098  0.81643  0.50300  1.0000
  C   C354      1.0  0.49052  0.62099  0.46482  1.0000
  H   H356      1.0  0.44497  0.94566  0.35365  1.0000
  C   C355      1.0  0.42912  0.93405  0.51578  1.0000
  C   C356      1.0  0.47211  0.94054  0.49182  1.0000
  H   H357      1.0  0.40085  0.68996  0.40958  1.0000
  C   C357      1.0  0.33015  0.53577  0.47341  1.0000
  C   C358      1.0  0.36966  0.53076  0.45279  1.0000
  C   C359      1.0  0.44901  0.70834  0.46339  1.0000
  H   H358      1.0  0.39071  0.88059  0.38403  1.0000
  C   C360      1.0  0.37692  0.52791  0.51289  1.0000
  H   H359      1.0  0.45767  0.95481  0.45805  1.0000
  H   H360      1.0  0.48844  0.85413  0.50152  1.0000
  N   N32       1.0  0.44656  0.69586  0.44488  1.0000
  C   C361      1.0  0.44105  0.96060  0.46795  1.0000
  H   H361      1.0  0.37579  0.87580  0.36156  1.0000
  H   H362      1.0  0.48524  0.67421  0.44690  1.0000
  C   C362      1.0  0.42304  0.70014  0.43467  1.0000
  H   H363      1.0  0.40638  0.71318  0.44000  1.0000
  C   C363      1.0  0.41965  0.68688  0.41755  1.0000
  H   H364      1.0  0.48908  0.94297  0.48255  1.0000
  N   N33       1.0  0.36974  0.84393  0.38059  1.0000
  C   C364      1.0  0.35809  0.82639  0.36845  1.0000
  C   C365      1.0  0.36621  0.84150  0.39940  1.0000
  C   C366      1.0  0.34181  0.80618  0.37505  1.0000
  C   C367      1.0  0.34993  0.82163  0.40646  1.0000
  C   C368      1.0  0.33759  0.80395  0.39417  1.0000
  C   C369      1.0  0.38657  0.86500  0.37327  1.0000
  H   H365      1.0  0.44130  0.69459  0.47415  1.0000
  C   C370      1.0  0.49811  0.89833  0.45771  1.0000
  C   C371      1.0  0.49122  0.86645  0.48931  1.0000
  C   C372      1.0  0.46404  0.66436  0.42167  1.0000
  H   H366      1.0  0.33231  0.79256  0.36533  1.0000
  H   H367      1.0  0.34639  0.51801  0.53273  1.0000
  C   C373      1.0  0.39903  0.51753  0.50244  1.0000
  H   H368      1.0  0.32567  0.52931  0.48786  1.0000
  H   H369      1.0  0.43900  0.98301  0.46931  1.0000
  C   C374      1.0  0.45540  0.92525  0.52127  1.0000
  C   C375      1.0  0.47712  0.92865  0.50929  1.0000
  H   H370      1.0  0.40463  0.52453  0.43501  1.0000
  C   C376      1.0  0.49397  0.63997  0.47912  1.0000
  H   H371      1.0  0.50076  0.91101  0.44565  1.0000
  H   H372      1.0  0.47992  0.64985  0.41697  1.0000
  H   H373      1.0  0.45891  0.91575  0.53476  1.0000
  H   H374      1.0  0.49766  0.92166  0.51332  1.0000
  H   H375      1.0  0.50558  0.60852  0.52190  1.0000
  H   H376      1.0  0.49710  0.58154  0.49342  1.0000
  C   C377      1.0  0.13935  0.55390  0.99889  1.0000
  H   H377      1.0  0.12494  0.56489  0.98982  1.0000
  C   C378      1.0  0.14339  0.52553  0.99691  1.0000
  C   C379      1.0  0.12058  0.83377  0.01002  1.0000
  C   C380      1.0  0.15964  0.80099  0.00791  1.0000
  H   H378      1.0  0.12021  0.76574  0.00861  1.0000
  H   H379      1.0  0.16608  0.80173  0.99314  1.0000
  C   C381      1.0  0.08446  0.79256  0.01024  1.0000
  H   H380      1.0  0.13197  0.51496  0.98648  1.0000
  H   H381      1.0  0.13460  0.85000  0.01033  1.0000
  H   H382      1.0  0.07064  0.77621  0.01081  1.0000
  N   N34       1.0  0.13024  0.80729  0.00920  1.0000
  H   H383      1.0  0.05280  0.82445  0.01281  1.0000
  H   H384      1.0  0.14941  0.51859  0.95002  1.0000
  C   C382      1.0  0.11258  0.78678  0.00898  1.0000
  C   C383      1.0  0.16254  0.51111  0.00815  1.0000
  C   C384      1.0  0.16352  0.51510  0.93811  1.0000
  C   C385      1.0  0.09259  0.84024  0.01112  1.0000
  H   H385      1.0  0.17165  0.53473  0.93402  1.0000
  H   H386      1.0  0.15118  0.50723  0.92637  1.0000
  C   C386      1.0  0.07448  0.81951  0.01143  1.0000
  H   H387      1.0  0.08494  0.86120  0.01204  1.0000
  H   H388      1.0  0.03898  0.69749  0.01218  1.0000
  S   S128      1.0  0.14937  0.60416  0.01346  1.0000
  C   C387      1.0  0.15381  0.56819  0.01243  1.0000
  H   H389      1.0  0.16532  0.78060  0.01372  1.0000
  H   H390      1.0  0.18506  0.50598  0.97196  1.0000
  H   H391      1.0  0.93410  0.45337  0.03710  1.0000
  N   N35       1.0  0.87003  0.34688  0.03126  1.0000
  C   C388      1.0  0.91646  0.46214  0.02974  1.0000
  H   H392      1.0  0.91711  0.50029  0.04466  1.0000
  C   C389      1.0  0.89152  0.32697  0.03723  1.0000
  C   C390      1.0  0.90686  0.48882  0.03408  1.0000
  H   H393      1.0  0.89236  0.38084  0.03974  1.0000
  H   H394      1.0  0.88871  0.32167  0.05210  1.0000
  H   H395      1.0  0.89119  0.30813  0.02867  1.0000
  H   H396      1.0  0.91200  0.33505  0.03547  1.0000
  H   H397      1.0  0.85649  0.41477  0.02992  1.0000
  C   C391      1.0  0.87353  0.37395  0.03381  1.0000
  C   C392      1.0  0.88386  0.50042  0.02492  1.0000
  C   C393      1.0  0.85320  0.39329  0.02835  1.0000
  C   C394      1.0  0.84613  0.33829  0.02397  1.0000
  C   C395      1.0  0.90349  0.44680  0.01603  1.0000
  C   C396      1.0  0.82902  0.38476  0.02050  1.0000
  H   H398      1.0  0.84322  0.31680  0.02209  1.0000
  C   C397      1.0  0.82534  0.35707  0.01838  1.0000
  H   H399      1.0  0.81331  0.39960  0.01591  1.0000
  S   S129      1.0  0.87982  0.04298  0.01916  1.0000
  C   C398      1.0  0.88352  0.00695  0.01981  1.0000
  H   H400      1.0  0.82071  0.05235  0.01725  1.0000
  Fe  Fe65      1.0  0.61362  0.11599  0.53950  1.0000
  S   S130      1.0  0.58216  0.11130  0.56139  1.0000
  S   S131      1.0  0.61032  0.08592  0.51526  1.0000
  Fe  Fe66      1.0  0.63121  0.17016  0.55721  1.0000
  S   S132      1.0  0.60039  0.16860  0.57989  1.0000
  S   S133      1.0  0.65844  0.20565  0.56164  1.0000
  Fe  Fe67      1.0  0.61352  0.12461  0.58184  1.0000
  S   S134      1.0  0.61956  0.10186  0.60891  1.0000
  Fe  Fe68      1.0  0.57230  0.15562  0.55738  1.0000
  S   S135      1.0  0.53010  0.17442  0.55455  1.0000
  S   S136      1.0  0.64638  0.12618  0.56037  1.0000
  S   S137      1.0  0.60176  0.16031  0.53423  1.0000
  Fe  Fe69      1.0  0.63600  0.36783  0.55096  1.0000
  S   S138      1.0  0.62964  0.37540  0.58146  1.0000
  S   S139      1.0  0.62497  0.32762  0.53777  1.0000
  Fe  Fe70      1.0  0.64820  0.42835  0.54364  1.0000
  S   S140      1.0  0.64266  0.43998  0.57380  1.0000
  S   S141      1.0  0.65782  0.45683  0.51975  1.0000
  Fe  Fe71      1.0  0.66607  0.40066  0.58003  1.0000
  S   S142      1.0  0.69889  0.39516  0.60216  1.0000
  Fe  Fe72      1.0  0.60687  0.41362  0.57250  1.0000
  S   S143      1.0  0.56648  0.42436  0.58545  1.0000
  S   S144      1.0  0.67460  0.39040  0.54988  1.0000
  S   S145      1.0  0.61041  0.40487  0.54193  1.0000
  C   C399      1.0  0.69077  0.40689  0.62483  1.0000
  C   C400      1.0  0.66894  0.42567  0.62781  1.0000
  C   C401      1.0  0.66260  0.43444  0.64602  1.0000
  C   C402      1.0  0.67735  0.42375  0.66141  1.0000
  C   C403      1.0  0.69888  0.40458  0.65847  1.0000
  C   C404      1.0  0.70587  0.39656  0.64019  1.0000
  H   H401      1.0  0.65713  0.43374  0.61609  1.0000
  H   H402      1.0  0.64595  0.44931  0.64822  1.0000
  C   C405      1.0  0.51573  0.41849  0.52917  1.0000
  H   H403      1.0  0.72276  0.38198  0.63797  1.0000
  C   C406      1.0  0.64565  0.01092  0.52638  1.0000
  C   C407      1.0  0.67546  0.00866  0.48130  1.0000
  H   H404      1.0  0.71189  0.43388  0.57414  1.0000
  H   H405      1.0  0.68605  0.21740  0.62035  1.0000
  S   S146      1.0  0.64720  0.16872  0.68083  1.0000
  C   C408      1.0  0.55165  0.38028  0.56538  1.0000
  C   C409      1.0  0.54318  0.40114  0.57762  1.0000
  H   H406      1.0  0.54862  0.07388  0.53816  1.0000
  H   H407      1.0  0.57285  0.37702  0.56197  1.0000
  H   H408      1.0  0.66040  0.49337  0.48894  1.0000
  C   C410      1.0  0.62229  0.12119  0.62949  1.0000
  C   C411      1.0  0.62591  0.10792  0.64667  1.0000
  C   C412      1.0  0.63146  0.12271  0.66295  1.0000
  C   C413      1.0  0.63363  0.15079  0.66202  1.0000
  C   C414      1.0  0.62882  0.16417  0.64503  1.0000
  C   C415      1.0  0.62312  0.14942  0.62881  1.0000
  H   H409      1.0  0.62532  0.08607  0.64726  1.0000
  H   H410      1.0  0.52155  0.05890  0.56538  1.0000
  H   H411      1.0  0.63057  0.18588  0.64426  1.0000
  H   H412      1.0  0.62060  0.15982  0.61571  1.0000
  C   C416      1.0  0.64812  0.23951  0.55543  1.0000
  C   C417      1.0  0.66027  0.26127  0.56444  1.0000
  C   C418      1.0  0.65313  0.28839  0.55947  1.0000
  C   C419      1.0  0.63413  0.29400  0.54514  1.0000
  C   C420      1.0  0.62188  0.27224  0.53623  1.0000
  C   C421      1.0  0.62866  0.24517  0.54141  1.0000
  H   H413      1.0  0.67553  0.25714  0.57518  1.0000
  H   H414      1.0  0.66284  0.30491  0.56636  1.0000
  H   H415      1.0  0.60724  0.27633  0.52508  1.0000
  H   H416      1.0  0.61933  0.22868  0.53422  1.0000
  H   H417      1.0  0.72440  0.42563  0.54101  1.0000
  H   H418      1.0  0.60908  0.36683  0.66319  1.0000
  H   H419      1.0  0.55137  0.43269  0.54329  1.0000
  N   N36       1.0  0.55792  0.28811  0.57019  1.0000
  H   H420      1.0  0.53708  0.13129  0.58173  1.0000
  C   C422      1.0  0.61725  0.05024  0.51640  1.0000
  C   C423      1.0  0.60370  0.03329  0.50394  1.0000
  C   C424      1.0  0.63787  0.03876  0.52793  1.0000
  H   H421      1.0  0.58781  0.04197  0.49490  1.0000
  H   H422      1.0  0.64862  0.05154  0.53749  1.0000
  C   C425      1.0  0.71281  0.45078  0.56457  1.0000
  C   C426      1.0  0.56928  0.26256  0.56724  1.0000
  H   H423      1.0  0.53907  0.34864  0.54697  1.0000
  H   H424      1.0  0.71045  0.39632  0.67024  1.0000
  C   C427      1.0  0.51538  0.45786  0.54924  1.0000
  H   H425      1.0  0.65840  0.20733  0.60552  1.0000
  C   C428      1.0  0.70639  0.47718  0.57069  1.0000
  C   C429      1.0  0.68027  0.20315  0.60914  1.0000
  H   H426      1.0  0.69128  0.18387  0.64362  1.0000
  H   H427      1.0  0.62042  0.39466  0.64942  1.0000
  N   N37       1.0  0.64843  0.36008  0.65171  1.0000
  H   H428      1.0  0.63547  0.11225  0.67600  1.0000
  C   C430      1.0  0.66461  0.34436  0.66347  1.0000
  C   C431      1.0  0.67220  0.34076  0.62527  1.0000
  C   C432      1.0  0.68530  0.32679  0.65644  1.0000
  C   C433      1.0  0.68922  0.32518  0.63720  1.0000
  N   N38       1.0  0.71471  0.49398  0.53994  1.0000
  H   H429      1.0  0.69247  0.20729  0.59658  1.0000
  C   C434      1.0  0.51569  0.13469  0.57854  1.0000
  C   C435      1.0  0.51187  0.12711  0.51922  1.0000
  H   H430      1.0  0.69056  0.09951  0.62954  1.0000
  H   H431      1.0  0.70560  0.31214  0.63156  1.0000
  H   H432      1.0  0.68115  0.11171  0.59648  1.0000
  H   H433      1.0  0.66187  0.34555  0.67843  1.0000
  H   H434      1.0  0.64361  0.49912  0.54752  1.0000
  C   C436      1.0  0.52972  0.43626  0.54056  1.0000
  C   C437      1.0  0.62692  0.37840  0.65946  1.0000
  H   H435      1.0  0.56561  0.32502  0.58446  1.0000
  C   C438      1.0  0.64572  0.04594  0.47065  1.0000
  H   H436      1.0  0.61554  0.03570  0.45032  1.0000
  C   C439      1.0  0.63275  0.02806  0.45869  1.0000
  H   H437      1.0  0.57922  0.32165  0.56123  1.0000
  H   H438      1.0  0.50910  0.42049  0.59201  1.0000
  H   H439      1.0  0.67547  0.34024  0.61030  1.0000
  C   C440      1.0  0.65224  0.49267  0.51843  1.0000
  C   C441      1.0  0.57540  0.31057  0.57431  1.0000
  H   H440      1.0  0.67721  0.16012  0.58727  1.0000
  H   H441      1.0  0.63844  0.06705  0.47173  1.0000
  C   C442      1.0  0.53253  0.36395  0.55706  1.0000
  H   H442      1.0  0.52689  0.40114  0.52306  1.0000
  H   H443      1.0  0.51432  0.14490  0.51070  1.0000
  H   H444      1.0  0.70036  0.48084  0.58505  1.0000
  H   H445      1.0  0.69590  0.13600  0.65319  1.0000
  C   C443      1.0  0.65167  0.35810  0.63281  1.0000
  C   C444      1.0  0.72006  0.44615  0.54602  1.0000
  H   H446      1.0  0.63909  0.37076  0.62345  1.0000
  N   N39       1.0  0.68479  0.17475  0.61475  1.0000
  C   C445      1.0  0.69024  0.16820  0.63301  1.0000
  C   C446      1.0  0.68205  0.15482  0.60166  1.0000
  C   C447      1.0  0.69294  0.14105  0.63855  1.0000
  C   C448      1.0  0.68454  0.12747  0.60672  1.0000
  C   C449      1.0  0.68989  0.12060  0.62531  1.0000
  H   H447      1.0  0.67654  0.04950  0.49197  1.0000
  C   C450      1.0  0.66716  0.03610  0.48203  1.0000
  H   H448      1.0  0.59546  0.30328  0.58019  1.0000
  C   C451      1.0  0.53424  0.10946  0.52324  1.0000
  H   H449      1.0  0.56209  0.22110  0.55975  1.0000
  H   H450      1.0  0.69830  0.31477  0.66595  1.0000
  C   C452      1.0  0.53101  0.08737  0.53500  1.0000
  H   H451      1.0  0.59107  0.25849  0.56871  1.0000
  H   H452      1.0  0.72602  0.46426  0.51933  1.0000
  C   C453      1.0  0.51350  0.27245  0.56313  1.0000
  C   C454      1.0  0.55298  0.24131  0.56219  1.0000
  H   H453      1.0  0.63448  0.38891  0.67210  1.0000
  H   H454      1.0  0.55414  0.11316  0.51763  1.0000
  H   H455      1.0  0.51205  0.23006  0.55606  1.0000
  C   C455      1.0  0.53041  0.29317  0.56824  1.0000
  H   H456      1.0  0.52538  0.34700  0.67577  1.0000
  C   C456      1.0  0.51570  0.40456  0.58239  1.0000
  C   C457      1.0  0.72100  0.46812  0.53384  1.0000
  H   H457      1.0  0.52590  0.47094  0.55882  1.0000
  H   H458      1.0  0.52133  0.31334  0.57055  1.0000
  C   C458      1.0  0.70757  0.49871  0.55813  1.0000
  C   C459      1.0  0.52491  0.24635  0.56009  1.0000
  C   C460      1.0  0.65578  0.50555  0.50121  1.0000
  Fe  Fe73      1.0  0.90107  0.36747  0.79173  1.0000
  S   S147      1.0  0.89593  0.35480  0.82148  1.0000
  S   S148      1.0  0.86904  0.36285  0.76867  1.0000
  Fe  Fe74      1.0  0.96307  0.37508  0.79718  1.0000
  S   S149      1.0  0.96228  0.36283  0.82711  1.0000
  H   H459      1.0  0.00785  0.32760  0.00787  1.0000
  Fe  Fe75      1.0  0.93528  0.33043  0.81771  1.0000
  S   S150      1.0  0.94540  0.28806  0.82756  1.0000
  Fe  Fe76      1.0  0.92328  0.38844  0.82861  1.0000
  S   S151      1.0  0.91993  0.41463  0.85446  1.0000
  S   S152      1.0  0.93888  0.34034  0.78754  1.0000
  S   S153      1.0  0.92565  0.40358  0.79896  1.0000
  Fe  Fe77      1.0  0.67691  0.40679  0.70860  1.0000
  S   S154      1.0  0.67389  0.42054  0.73860  1.0000
  H   H460      1.0  0.96194  0.10725  0.93147  1.0000
  Fe  Fe78      1.0  0.68416  0.34814  0.71925  1.0000
  S   S155      1.0  0.68228  0.35673  0.74995  1.0000
  S   S156      1.0  0.68413  0.30667  0.70643  1.0000
  Fe  Fe79      1.0  0.64685  0.38558  0.74234  1.0000
  S   S157      1.0  0.60697  0.38242  0.75793  1.0000
  Fe  Fe80      1.0  0.70966  0.39043  0.74366  1.0000
  S   S158      1.0  0.74324  0.40027  0.76470  1.0000
  S   S159      1.0  0.64725  0.37447  0.71217  1.0000
  S   S160      1.0  0.71438  0.37941  0.71320  1.0000
  Fe  Fe81      1.0  0.84664  0.18389  0.83340  1.0000
  S   S161      1.0  0.84996  0.18552  0.80240  1.0000
  S   S162      1.0  0.84305  0.22366  0.84881  1.0000
  Fe  Fe82      1.0  0.85284  0.12296  0.83396  1.0000
  S   S163      1.0  0.85684  0.11988  0.80265  1.0000
  S   S164      1.0  0.86308  0.08748  0.85295  1.0000
  Fe  Fe83      1.0  0.88457  0.15443  0.80594  1.0000
  S   S165      1.0  0.92410  0.16006  0.79053  1.0000
  Fe  Fe84      1.0  0.82159  0.15122  0.80193  1.0000
  S   S166      1.0  0.78970  0.15504  0.77842  1.0000
  S   S167      1.0  0.88292  0.15505  0.83702  1.0000
  S   S168      1.0  0.81575  0.15193  0.83314  1.0000
  Fe  Fe85      1.0  0.63509  0.14775  0.74976  1.0000
  S   S169      1.0  0.64576  0.18395  0.73341  1.0000
  S   S170      1.0  0.66309  0.13179  0.77330  1.0000
  Fe  Fe86      1.0  0.57878  0.14527  0.73046  1.0000
  S   S171      1.0  0.58576  0.18136  0.71268  1.0000
  S   S172      1.0  0.53930  0.12444  0.72459  1.0000
  Fe  Fe87      1.0  0.62783  0.16292  0.70872  1.0000
  C   C461      1.0  0.97703  0.50301  0.00332  1.0000
  Fe  Fe88      1.0  0.60283  0.19912  0.73862  1.0000
  S   S173      1.0  0.59322  0.24269  0.74564  1.0000
  S   S174      1.0  0.62018  0.12490  0.72452  1.0000
  S   S175      1.0  0.59282  0.16463  0.75706  1.0000
  Fe  Fe89      1.0  0.91221  0.12667  0.98562  1.0000
  S   S176      1.0  0.91533  0.11629  0.95530  1.0000
  C   C462      1.0  0.56713  0.08712  0.75987  1.0000
  Fe  Fe90      1.0  0.89266  0.06952  0.99513  1.0000
  S   S177      1.0  0.89398  0.05566  0.96524  1.0000
  H   H461      1.0  0.58955  0.41383  0.72511  1.0000
  Fe  Fe91      1.0  0.93363  0.07617  0.96458  1.0000
  S   S178      1.0  0.97242  0.05804  0.95254  1.0000
  Fe  Fe92      1.0  0.87555  0.09728  0.95881  1.0000
  S   S179      1.0  0.84119  0.10880  0.93893  1.0000
  S   S180      1.0  0.87085  0.11009  0.98878  1.0000
  Fe  Fe93      1.0  0.89244  0.32259  0.98253  1.0000
  S   S181      1.0  0.90585  0.32235  0.95287  1.0000
  N   N40       1.0  0.82136  0.04603  0.98765  1.0000
  Fe  Fe94      1.0  0.90701  0.38226  0.98877  1.0000
  S   S182      1.0  0.92109  0.38641  0.95923  1.0000
  H   H462      1.0  0.79090  0.06541  0.00455  1.0000
  Fe  Fe95      1.0  0.88465  0.36353  0.95108  1.0000
  S   S183      1.0  0.85969  0.36980  0.92483  1.0000
  Fe  Fe96      1.0  0.94103  0.34505  0.96330  1.0000
  S   S184      1.0  0.98265  0.33856  0.95127  1.0000
  S   S185      1.0  0.86827  0.36265  0.98031  1.0000
  N   N41       1.0  0.80633  0.43877  0.74932  1.0000
  N   N42       1.0  0.00392  0.14598  0.99201  1.0000
  C   C463      1.0  0.99156  0.38171  0.97396  1.0000
  H   H463      1.0  0.97410  0.37594  0.98171  1.0000
  C   C464      1.0  0.91285  0.19967  0.99113  1.0000
  C   C465      1.0  0.52560  0.38357  0.74670  1.0000
  C   C466      1.0  0.98272  0.10666  0.93655  1.0000
  C   C467      1.0  0.88811  0.25283  0.99189  1.0000
  C   C468      1.0  0.91593  0.24883  0.98834  1.0000
  H   H464      1.0  0.88718  0.14301  0.88881  1.0000
  C   C469      1.0  0.52037  0.21620  0.73744  1.0000
  H   H465      1.0  0.94444  0.45486  0.97950  1.0000
  S   S186      1.0  0.92990  0.16715  0.99262  1.0000
  H   H466      1.0  0.99034  0.14647  0.92625  1.0000
  H   H467      1.0  0.97986  0.12039  0.97535  1.0000
  H   H468      1.0  0.97103  0.07454  0.77302  1.0000
  C   C470      1.0  0.97342  0.07633  0.81463  1.0000
  C   C471      1.0  0.84752  0.10268  0.91510  1.0000
  C   C472      1.0  0.86894  0.08485  0.90943  1.0000
  C   C473      1.0  0.87342  0.08009  0.89031  1.0000
  C   C474      1.0  0.85708  0.09376  0.87681  1.0000
  C   C475      1.0  0.83610  0.11209  0.88252  1.0000
  C   C476      1.0  0.83107  0.11621  0.90162  1.0000
  H   H469      1.0  0.88179  0.07439  0.91974  1.0000
  H   H470      1.0  0.88968  0.06589  0.88598  1.0000
  H   H471      1.0  0.82332  0.12262  0.87221  1.0000
  H   H472      1.0  0.81453  0.13010  0.90593  1.0000
  C   C477      1.0  0.75481  0.14723  0.77730  1.0000
  C   C478      1.0  0.74004  0.15293  0.76073  1.0000
  C   C479      1.0  0.71205  0.14828  0.75930  1.0000
  C   C480      1.0  0.69848  0.13758  0.77441  1.0000
  C   C481      1.0  0.71328  0.13160  0.79094  1.0000
  C   C482      1.0  0.74126  0.13654  0.79245  1.0000
  H   H473      1.0  0.75031  0.16107  0.74889  1.0000
  H   H474      1.0  0.70106  0.15285  0.74645  1.0000
  H   H475      1.0  0.70304  0.12325  0.80272  1.0000
  H   H476      1.0  0.75233  0.13203  0.80528  1.0000
  H   H477      1.0  0.61713  0.10331  0.79047  1.0000
  C   C483      1.0  0.95653  0.15534  0.80146  1.0000
  H   H478      1.0  0.89518  0.17860  0.95185  1.0000
  H   H479      1.0  0.99544  0.07533  0.81336  1.0000
  H   H480      1.0  0.56420  0.29959  0.74582  1.0000
  C   C484      1.0  0.51813  0.32229  0.71305  1.0000
  C   C485      1.0  0.00371  0.09765  0.99570  1.0000
  H   H481      1.0  0.86244  0.16354  0.95197  1.0000
  C   C486      1.0  0.51116  0.19992  0.72299  1.0000
  H   H482      1.0  0.91543  0.49339  0.98444  1.0000
  C   C487      1.0  0.65723  0.28975  0.71613  1.0000
  C   C488      1.0  0.65099  0.26408  0.70958  1.0000
  C   C489      1.0  0.63048  0.25002  0.71815  1.0000
  C   C490      1.0  0.61673  0.26129  0.73360  1.0000
  C   C491      1.0  0.62282  0.28702  0.74000  1.0000
  C   C492      1.0  0.64256  0.30144  0.73102  1.0000
  H   H483      1.0  0.66209  0.25495  0.69798  1.0000
  H   H484      1.0  0.62547  0.23040  0.71279  1.0000
  H   H485      1.0  0.61273  0.29568  0.75216  1.0000
  H   H486      1.0  0.64673  0.32138  0.73597  1.0000
  C   C493      1.0  0.90262  0.40230  0.87382  1.0000
  C   C494      1.0  0.90859  0.41214  0.89171  1.0000
  C   C495      1.0  0.89591  0.40191  0.90749  1.0000
  C   C496      1.0  0.87647  0.38243  0.90537  1.0000
  C   C497      1.0  0.87002  0.37306  0.88744  1.0000
  C   C498      1.0  0.88334  0.38266  0.87173  1.0000
  H   H487      1.0  0.92320  0.42761  0.89338  1.0000
  H   H488      1.0  0.90060  0.40963  0.92122  1.0000
  H   H489      1.0  0.85479  0.35820  0.88572  1.0000
  H   H490      1.0  0.87824  0.37528  0.85801  1.0000
  C   C499      1.0  0.91751  0.27081  0.83547  1.0000
  C   C500      1.0  0.91988  0.24258  0.83685  1.0000
  C   C501      1.0  0.89723  0.22812  0.84154  1.0000
  C   C502      1.0  0.87223  0.24182  0.84524  1.0000
  C   C503      1.0  0.87023  0.27018  0.84489  1.0000
  C   C504      1.0  0.89280  0.28465  0.83986  1.0000
  H   H491      1.0  0.93901  0.23176  0.83366  1.0000
  H   H492      1.0  0.89924  0.20638  0.84211  1.0000
  H   H493      1.0  0.85099  0.28091  0.84791  1.0000
  H   H494      1.0  0.89097  0.30643  0.83942  1.0000
  C   C505      1.0  0.83319  0.36971  0.76901  1.0000
  C   C506      1.0  0.81998  0.38186  0.78433  1.0000
  C   C507      1.0  0.79202  0.38978  0.78312  1.0000
  C   C508      1.0  0.77687  0.38536  0.76671  1.0000
  C   C509      1.0  0.78977  0.37186  0.75176  1.0000
  C   C510      1.0  0.81780  0.36426  0.75288  1.0000
  H   H495      1.0  0.83147  0.38608  0.79687  1.0000
  H   H496      1.0  0.78222  0.40012  0.79479  1.0000
  H   H497      1.0  0.77840  0.36826  0.73906  1.0000
  H   H498      1.0  0.82778  0.35471  0.74097  1.0000
  H   H499      1.0  0.87126  0.42778  0.76480  1.0000
  S   S187      1.0  0.87254  0.28591  0.99428  1.0000
  C   C511      1.0  0.95954  0.14413  0.81929  1.0000
  C   C512      1.0  0.99883  0.12877  0.93354  1.0000
  C   C513      1.0  0.99350  0.08384  0.94612  1.0000
  C   C514      1.0  0.57070  0.33033  0.72532  1.0000
  C   C515      1.0  0.57473  0.38961  0.74730  1.0000
  C   C516      1.0  0.57183  0.40535  0.73116  1.0000
  S   S188      1.0  0.92986  0.34184  0.99340  1.0000
  N   N43       1.0  0.95083  0.35833  0.89751  1.0000
  C   C517      1.0  0.93583  0.34328  0.90911  1.0000
  C   C518      1.0  0.95079  0.35344  0.87870  1.0000
  C   C519      1.0  0.91950  0.32328  0.90192  1.0000
  C   C520      1.0  0.93501  0.33331  0.87106  1.0000
  C   C521      1.0  0.91918  0.31826  0.88276  1.0000
  C   C522      1.0  0.96783  0.37908  0.90546  1.0000
  H   H500      1.0  0.93603  0.34716  0.92399  1.0000
  H   H501      1.0  0.96240  0.36562  0.86945  1.0000
  H   H502      1.0  0.90682  0.31212  0.91111  1.0000
  H   H503      1.0  0.93467  0.32970  0.85615  1.0000
  H   H504      1.0  0.90647  0.30296  0.87697  1.0000
  H   H505      1.0  0.98766  0.36956  0.91020  1.0000
  H   H506      1.0  0.97127  0.39525  0.89513  1.0000
  H   H507      1.0  0.95770  0.38915  0.91766  1.0000
  C   C523      1.0  0.88060  0.45840  0.00673  1.0000
  N   N44       1.0  0.53290  0.34154  0.70477  1.0000
  C   C524      1.0  0.87020  0.18411  0.88779  1.0000
  C   C525      1.0  0.62274  0.07881  0.76574  1.0000
  H   H508      1.0  0.84549  0.31107  0.78323  1.0000
  H   H509      1.0  0.51717  0.29207  0.73471  1.0000
  H   H510      1.0  0.99020  0.10017  0.78462  1.0000
  C   C526      1.0  0.52912  0.30695  0.72794  1.0000
  N   N45       1.0  0.95720  0.08547  0.80009  1.0000
  H   H511      1.0  0.98047  0.45949  0.98016  1.0000
  C   C527      1.0  0.92947  0.08709  0.80177  1.0000
  H   H512      1.0  0.57092  0.36044  0.70392  1.0000
  H   H513      1.0  0.77331  0.45619  0.76523  1.0000
  C   C528      1.0  0.81088  0.45481  0.78087  1.0000
  C   C529      1.0  0.96954  0.09254  0.78235  1.0000
  C   C530      1.0  0.96138  0.46200  0.98833  1.0000
  H   H514      1.0  0.64467  0.07616  0.76765  1.0000
  H   H515      1.0  0.57699  0.04029  0.72772  1.0000
  C   C531      1.0  0.93185  0.50359  0.99122  1.0000
  C   C532      1.0  0.88135  0.16027  0.91634  1.0000
  S   S189      1.0  0.66808  0.43461  0.68407  1.0000
  H   H516      1.0  0.86441  0.19968  0.95369  1.0000
  H   H517      1.0  0.55355  0.36685  0.76764  1.0000
  N   N46       1.0  0.72481  0.22329  0.77371  1.0000
  C   C533      1.0  0.71517  0.24250  0.76125  1.0000
  C   C534      1.0  0.70727  0.20685  0.78231  1.0000
  C   C535      1.0  0.68726  0.24602  0.75744  1.0000
  C   C536      1.0  0.67926  0.20956  0.77861  1.0000
  C   C537      1.0  0.66922  0.22949  0.76624  1.0000
  C   C538      1.0  0.75423  0.21957  0.77709  1.0000
  H   H518      1.0  0.72906  0.25520  0.75413  1.0000
  H   H519      1.0  0.71491  0.19117  0.79184  1.0000
  H   H520      1.0  0.67972  0.26130  0.74759  1.0000
  H   H521      1.0  0.66553  0.19596  0.78507  1.0000
  H   H522      1.0  0.64755  0.23186  0.76325  1.0000
  H   H523      1.0  0.75897  0.20750  0.78991  1.0000
  H   H524      1.0  0.76399  0.20844  0.76518  1.0000
  H   H525      1.0  0.76352  0.23942  0.77888  1.0000
  H   H526      1.0  0.85299  0.22480  0.89117  1.0000
  N   N47       1.0  0.87446  0.27882  0.79013  1.0000
  C   C539      1.0  0.87647  0.25310  0.79722  1.0000
  C   C540      1.0  0.89479  0.28798  0.77934  1.0000
  C   C541      1.0  0.89923  0.23578  0.79344  1.0000
  C   C542      1.0  0.91793  0.27126  0.77542  1.0000
  C   C543      1.0  0.92012  0.24499  0.78257  1.0000
  C   C544      1.0  0.85129  0.29732  0.79505  1.0000
  H   H527      1.0  0.86069  0.24598  0.80613  1.0000
  H   H528      1.0  0.89325  0.30843  0.77381  1.0000
  H   H529      1.0  0.90106  0.21553  0.79930  1.0000
  H   H530      1.0  0.93419  0.27878  0.76711  1.0000
  H   H531      1.0  0.93804  0.23178  0.77989  1.0000
  H   H532      1.0  0.83310  0.28606  0.79861  1.0000
  H   H533      1.0  0.85682  0.30991  0.80726  1.0000
  H   H534      1.0  0.80163  0.46349  0.79336  1.0000
  N   N48       1.0  0.95665  0.49031  0.99422  1.0000
  C   C545      1.0  0.57924  0.09832  0.77567  1.0000
  H   H535      1.0  0.97485  0.06287  0.84330  1.0000
  H   H536      1.0  0.54204  0.21831  0.73958  1.0000
  C   C546      1.0  0.97999  0.16054  0.79131  1.0000
  H   H537      1.0  0.92814  0.26614  0.98630  1.0000
  H   H538      1.0  0.94994  0.21969  0.98602  1.0000
  C   C547      1.0  0.86246  0.20550  0.91776  1.0000
  H   H539      1.0  0.95723  0.10914  0.77527  1.0000
  H   H540      1.0  0.84246  0.42132  0.73686  1.0000
  H   H541      1.0  0.82621  0.05205  0.94078  1.0000
  C   C548      1.0  0.79499  0.45070  0.76488  1.0000
  C   C549      1.0  0.83854  0.44678  0.78081  1.0000
  H   H542      1.0  0.54741  0.06272  0.73105  1.0000
  H   H543      1.0  0.79059  0.45272  0.72321  1.0000
  C   C550      1.0  0.99441  0.12156  0.98674  1.0000
  H   H544      1.0  0.94172  0.14002  0.82728  1.0000
  C   C551      1.0  0.84998  0.43492  0.76481  1.0000
  C   C552      1.0  0.78950  0.43500  0.73258  1.0000
  H   H545      1.0  0.85534  0.22312  0.92578  1.0000
  H   H546      1.0  0.56708  0.11066  0.78536  1.0000
  N   N49       1.0  0.87237  0.18240  0.92655  1.0000
  C   C553      1.0  0.81339  0.06228  0.00408  1.0000
  C   C554      1.0  0.83351  0.43117  0.74906  1.0000
  H   H547      1.0  0.59105  0.33426  0.73029  1.0000
  H   H548      1.0  0.81368  0.07902  0.96882  1.0000
  H   H549      1.0  0.52556  0.18900  0.71394  1.0000
  H   H550      1.0  0.97790  0.16923  0.77750  1.0000
  H   H551      1.0  0.76783  0.43259  0.73629  1.0000
  H   H552      1.0  0.85103  0.23299  0.99738  1.0000
  H   H553      1.0  0.54543  0.09100  0.75752  1.0000
  H   H554      1.0  0.87274  0.18630  0.99646  1.0000
  C   C555      1.0  0.00618  0.15330  0.79848  1.0000
  C   C556      1.0  0.87364  0.18107  0.94699  1.0000
  C   C557      1.0  0.55553  0.31114  0.73415  1.0000
  H   H555      1.0  0.96306  0.44869  0.00080  1.0000
  H   H556      1.0  0.52251  0.15350  0.75868  1.0000
  H   H557      1.0  0.87036  0.44687  0.99615  1.0000
  S   S190      1.0  0.93369  0.08747  0.99487  1.0000
  S   S191      1.0  0.00223  0.38195  0.78164  1.0000
  H   H558      1.0  0.88880  0.14183  0.92325  1.0000
  H   H559      1.0  0.85295  0.49378  0.00408  1.0000
  C   C558      1.0  0.61000  0.06799  0.75006  1.0000
  H   H560      1.0  0.83033  0.00984  0.00323  1.0000
  H   H561      1.0  0.86906  0.18465  0.87269  1.0000
  H   H562      1.0  0.85098  0.44916  0.79325  1.0000
  H   H563      1.0  0.97992  0.16708  0.97098  1.0000
  H   H564      1.0  0.62235  0.05683  0.73986  1.0000
  C   C559      1.0  0.60724  0.09414  0.77856  1.0000
  C   C560      1.0  0.99650  0.17049  0.98126  1.0000
  H   H565      1.0  0.91659  0.09449  0.79029  1.0000
  C   C561      1.0  0.92826  0.22242  0.98819  1.0000
  C   C562      1.0  0.91734  0.07987  0.81847  1.0000
  C   C563      1.0  0.57002  0.06174  0.73026  1.0000
  H   H566      1.0  0.79629  0.41622  0.72496  1.0000
  H   H567      1.0  0.54383  0.42306  0.71069  1.0000
  C   C564      1.0  0.54588  0.41053  0.72303  1.0000
  H   H568      1.0  0.00027  0.41417  0.99284  1.0000
  H   H569      1.0  0.92427  0.06615  0.84663  1.0000
  C   C565      1.0  0.87256  0.23008  0.99454  1.0000
  N   N50       1.0  0.58252  0.07216  0.74732  1.0000
  H   H570      1.0  0.98769  0.12676  0.83979  1.0000
  C   C566      1.0  0.88047  0.16079  0.89684  1.0000
  C   C567      1.0  0.55144  0.37904  0.75515  1.0000
  H   H571      1.0  0.99666  0.07824  0.99105  1.0000
  H   H572      1.0  0.82274  0.08226  0.00372  1.0000
  C   C568      1.0  0.93366  0.07124  0.83353  1.0000
  C   C569      1.0  0.55909  0.34526  0.71045  1.0000
  C   C570      1.0  0.96192  0.06937  0.83163  1.0000
  C   C571      1.0  0.86115  0.20666  0.89824  1.0000
  H   H573      1.0  0.89538  0.08112  0.81985  1.0000
  C   C572      1.0  0.52273  0.39945  0.73062  1.0000
  H   H574      1.0  0.57555  0.07430  0.71816  1.0000
  H   H575      1.0  0.98907  0.18706  0.99073  1.0000
  C   C573      1.0  0.88480  0.20358  0.99395  1.0000
  C   C574      1.0  0.98568  0.13660  0.82636  1.0000
  C   C575      1.0  0.81993  0.05772  0.97037  1.0000
  C   C576      1.0  0.87075  0.48500  0.01127  1.0000
  S   S192      1.0  0.91666  0.41323  0.01141  1.0000
  C   C577      1.0  0.82919  0.01916  0.98954  1.0000
  C   C578      1.0  0.00018  0.36680  0.95826  1.0000
  C   C579      1.0  0.00624  0.40355  0.98019  1.0000
  C   C580      1.0  0.82693  0.04252  0.95443  1.0000
  H   H576      1.0  0.99663  0.49238  0.00579  1.0000
  C   C581      1.0  0.52099  0.35749  0.68922  1.0000
  H   H577      1.0  0.52908  0.37810  0.68895  1.0000
  H   H578      1.0  0.80676  0.35016  0.01210  1.0000
  H   H579      1.0  0.00592  0.29386  0.81589  1.0000
  H   H580      1.0  0.50848  0.24225  0.76052  1.0000
  C   C582      1.0  0.83548  0.01526  0.95627  1.0000
  Fe  Fe97      1.0  0.80235  0.86793  0.23803  1.0000
  S   S193      1.0  0.79147  0.85707  0.20847  1.0000
  S   S194      1.0  0.77226  0.87824  0.26138  1.0000
  Fe  Fe98      1.0  0.86465  0.86000  0.23094  1.0000
  S   S195      1.0  0.85790  0.84902  0.20104  1.0000
  S   S196      1.0  0.90721  0.85281  0.24326  1.0000
  Fe  Fe99      1.0  0.82597  0.88278  0.20078  1.0000
  S   S197      1.0  0.82562  0.91081  0.17618  1.0000
  Fe  Fe100     1.0  0.82466  0.82427  0.21157  1.0000
  S   S198      1.0  0.82372  0.78129  0.20159  1.0000
  S   S199      1.0  0.83498  0.89635  0.23015  1.0000
  S   S200      1.0  0.83300  0.83286  0.24164  1.0000
  Fe  Fe101     1.0  0.61433  0.87790  0.32997  1.0000
  S   S201      1.0  0.60054  0.90784  0.30781  1.0000
  Fe  Fe102     1.0  0.59083  0.83081  0.30924  1.0000
  S   S202      1.0  0.57525  0.85645  0.28544  1.0000
  S   S203      1.0  0.58411  0.78643  0.30932  1.0000
  Fe  Fe103     1.0  0.61607  0.87548  0.28745  1.0000
  S   S204      1.0  0.64237  0.87726  0.26138  1.0000
  Fe  Fe104     1.0  0.56112  0.88578  0.30787  1.0000
  S   S205      1.0  0.51817  0.90446  0.31239  1.0000
  S   S206      1.0  0.63217  0.84741  0.30969  1.0000
  S   S207      1.0  0.57441  0.85839  0.33160  1.0000
  Fe  Fe105     1.0  0.93139  0.67918  0.22114  1.0000
  S   S208      1.0  0.94714  0.65885  0.24723  1.0000
  S   S209      1.0  0.93865  0.72294  0.21667  1.0000
  Fe  Fe106     1.0  0.90767  0.62835  0.20564  1.0000
  S   S210      1.0  0.92203  0.60348  0.23027  1.0000
  S   S211      1.0  0.87972  0.61400  0.18305  1.0000
  Fe  Fe107     1.0  0.90648  0.63951  0.24723  1.0000
  S   S212      1.0  0.87980  0.63730  0.27286  1.0000
  Fe  Fe108     1.0  0.96116  0.62530  0.22772  1.0000
  H   H581      1.0  0.82310  0.71285  0.04943  1.0000
  S   S213      1.0  0.88994  0.66288  0.22274  1.0000
  S   S214      1.0  0.94759  0.64719  0.20150  1.0000
  Fe  Fe109     1.0  0.69069  0.62289  0.32742  1.0000
  S   S215      1.0  0.68593  0.61261  0.29693  1.0000
  Fe  Fe110     1.0  0.69261  0.68253  0.31986  1.0000
  S   S216      1.0  0.68764  0.67735  0.28903  1.0000
  S   S217      1.0  0.69408  0.72422  0.33224  1.0000
  Fe  Fe111     1.0  0.65566  0.64840  0.29632  1.0000
  S   S218      1.0  0.61520  0.64911  0.28060  1.0000
  Fe  Fe112     1.0  0.71865  0.64242  0.29241  1.0000
  S   S219      1.0  0.75022  0.63812  0.26915  1.0000
  S   S220      1.0  0.65839  0.65639  0.32693  1.0000
  S   S221      1.0  0.72571  0.64978  0.32314  1.0000
  Fe  Fe113     1.0  0.85820  0.85658  0.07876  1.0000
  S   S222      1.0  0.85334  0.84964  0.04782  1.0000
  S   S223      1.0  0.82408  0.84891  0.09850  1.0000
  Fe  Fe114     1.0  0.91850  0.86221  0.07615  1.0000
  S   S224      1.0  0.91825  0.85478  0.04531  1.0000
  S   S225      1.0  0.95660  0.87241  0.09168  1.0000
  Fe  Fe115     1.0  0.88167  0.88387  0.04468  1.0000
  C   C583      1.0  0.54159  0.73658  0.29577  1.0000
  Fe  Fe116     1.0  0.89047  0.82143  0.05136  1.0000
  S   S226      1.0  0.89603  0.78082  0.03631  1.0000
  S   S227      1.0  0.88331  0.89309  0.07545  1.0000
  S   S228      1.0  0.89378  0.82662  0.08231  1.0000
  Fe  Fe117     1.0  0.92389  0.57898  0.08318  1.0000
  S   S229      1.0  0.88033  0.58591  0.07401  1.0000
  S   S230      1.0  0.94120  0.56800  0.11155  1.0000
  Fe  Fe118     1.0  0.94533  0.59500  0.04568  1.0000
  S   S231      1.0  0.90373  0.60443  0.03357  1.0000
  H   H582      1.0  0.87178  0.95457  0.04944  1.0000
  Fe  Fe119     1.0  0.89432  0.62455  0.06130  1.0000
  S   S232      1.0  0.87456  0.66536  0.07040  1.0000
  Fe  Fe120     1.0  0.89387  0.56492  0.04718  1.0000
  H   H583      1.0  0.96479  0.65723  0.12005  1.0000
  S   S233      1.0  0.93703  0.61833  0.07195  1.0000
  S   S234      1.0  0.93626  0.55492  0.05768  1.0000
  H   H584      1.0  0.87263  0.80823  0.15027  1.0000
  H   H585      1.0  0.93753  0.94267  0.07338  1.0000
  N   N51       1.0  0.92543  0.64942  0.12981  1.0000
  C   C584      1.0  0.98672  0.86564  0.23291  1.0000
  H   H586      1.0  0.90420  0.72694  0.02169  1.0000
  H   H587      1.0  0.62871  0.80233  0.33294  1.0000
  H   H588      1.0  0.86423  0.54954  0.26160  1.0000
  C   C585      1.0  0.57718  0.57427  0.32751  1.0000
  H   H589      1.0  0.98720  0.59032  0.06964  1.0000
  H   H590      1.0  0.87079  0.00496  0.04844  1.0000
  C   C586      1.0  0.89355  0.74869  0.04695  1.0000
  C   C587      1.0  0.89803  0.72514  0.03606  1.0000
  C   C588      1.0  0.89377  0.69931  0.04341  1.0000
  C   C589      1.0  0.88459  0.69681  0.06169  1.0000
  C   C590      1.0  0.88088  0.72027  0.07279  1.0000
  C   C591      1.0  0.88553  0.74610  0.06551  1.0000
  H   H591      1.0  0.97504  0.65402  0.04905  1.0000
  H   H592      1.0  0.81162  0.72839  0.08135  1.0000
  H   H593      1.0  0.87379  0.71854  0.08694  1.0000
  H   H594      1.0  0.88205  0.76405  0.07404  1.0000
  C   C592      1.0  0.79776  0.59187  0.22156  1.0000
  H   H595      1.0  0.92230  0.82278  0.20989  1.0000
  H   H596      1.0  0.80742  0.57683  0.26734  1.0000
  H   H597      1.0  0.57896  0.57795  0.28018  1.0000
  H   H598      1.0  0.78165  0.59741  0.21162  1.0000
  H   H599      1.0  0.96960  0.84214  0.05821  1.0000
  C   C593      1.0  0.89644  0.59968  0.16349  1.0000
  C   C594      1.0  0.88223  0.59761  0.14652  1.0000
  C   C595      1.0  0.89575  0.58788  0.13044  1.0000
  C   C596      1.0  0.92333  0.57948  0.13145  1.0000
  C   C597      1.0  0.93733  0.58095  0.14855  1.0000
  C   C598      1.0  0.92404  0.59140  0.16448  1.0000
  H   H600      1.0  0.86086  0.60397  0.14570  1.0000
  H   H601      1.0  0.88478  0.58663  0.11734  1.0000
  H   H602      1.0  0.95863  0.57428  0.14941  1.0000
  H   H603      1.0  0.93510  0.59274  0.17755  1.0000
  C   C599      1.0  0.84363  0.64038  0.27201  1.0000
  C   C600      1.0  0.82938  0.64571  0.25531  1.0000
  C   C601      1.0  0.80070  0.64647  0.25495  1.0000
  C   C602      1.0  0.78589  0.64156  0.27116  1.0000
  C   C603      1.0  0.80010  0.63701  0.28797  1.0000
  C   C604      1.0  0.82882  0.63646  0.28836  1.0000
  H   H604      1.0  0.84038  0.64852  0.24257  1.0000
  H   H605      1.0  0.78991  0.64995  0.24187  1.0000
  H   H606      1.0  0.78900  0.63312  0.30055  1.0000
  H   H607      1.0  0.83962  0.63242  0.30138  1.0000
  C   C605      1.0  0.82720  0.75331  0.03905  1.0000
  C   C606      1.0  0.53637  0.71112  0.30278  1.0000
  S   S235      1.0  0.88292  0.91351  0.02028  1.0000
  H   H608      1.0  0.88015  0.58103  0.25708  1.0000
  H   H609      1.0  0.70950  0.91915  0.20186  1.0000
  C   C607      1.0  0.98283  0.85881  0.05930  1.0000
  C   C608      1.0  0.58354  0.64524  0.29160  1.0000
  C   C609      1.0  0.55992  0.64353  0.28053  1.0000
  C   C610      1.0  0.82144  0.73439  0.05265  1.0000
  H   H610      1.0  0.56123  0.64553  0.26554  1.0000
  C   C611      1.0  0.84542  0.58372  0.22910  1.0000
  H   H611      1.0  0.99854  0.93987  0.01896  1.0000
  C   C612      1.0  0.53306  0.63443  0.30789  1.0000
  C   C613      1.0  0.88763  0.84840  0.15069  1.0000
  H   H612      1.0  0.54648  0.57114  0.30591  1.0000
  C   C614      1.0  0.61328  0.76857  0.31777  1.0000
  C   C615      1.0  0.61798  0.74140  0.31277  1.0000
  C   C616      1.0  0.64258  0.72768  0.31763  1.0000
  C   C617      1.0  0.66236  0.74084  0.32787  1.0000
  C   C618      1.0  0.65724  0.76773  0.33358  1.0000
  C   C619      1.0  0.63264  0.78159  0.32854  1.0000
  H   H613      1.0  0.60318  0.73119  0.30444  1.0000
  H   H614      1.0  0.64648  0.70725  0.31272  1.0000
  C   C620      1.0  0.56792  0.57343  0.30899  1.0000
  H   H615      1.0  0.83174  0.79555  0.03326  1.0000
  C   C621      1.0  0.82574  0.89333  0.15470  1.0000
  C   C622      1.0  0.81590  0.86732  0.15339  1.0000
  C   C623      1.0  0.81514  0.85399  0.13603  1.0000
  C   C624      1.0  0.82506  0.86620  0.12003  1.0000
  C   C625      1.0  0.83557  0.89192  0.12144  1.0000
  C   C626      1.0  0.83552  0.90562  0.13869  1.0000
  H   H616      1.0  0.80836  0.85765  0.16567  1.0000
  H   H617      1.0  0.80701  0.83410  0.13505  1.0000
  H   H618      1.0  0.84311  0.90155  0.10914  1.0000
  H   H619      1.0  0.84314  0.92573  0.13964  1.0000
  C   C627      1.0  0.93692  0.86638  0.23406  1.0000
  C   C628      1.0  0.96260  0.85562  0.23998  1.0000
  C   C629      1.0  0.93557  0.88721  0.22085  1.0000
  H   H620      1.0  0.96387  0.83953  0.25020  1.0000
  H   H621      1.0  0.00633  0.85730  0.23773  1.0000
  C   C630      1.0  0.85635  0.76577  0.20436  1.0000
  C   C631      1.0  0.86170  0.73915  0.19816  1.0000
  C   C632      1.0  0.88737  0.72619  0.20137  1.0000
  C   C633      1.0  0.90756  0.73976  0.21093  1.0000
  C   C634      1.0  0.90245  0.76655  0.21670  1.0000
  C   C635      1.0  0.87687  0.77954  0.21343  1.0000
  H   H622      1.0  0.84593  0.72849  0.19106  1.0000
  H   H623      1.0  0.89154  0.70572  0.19643  1.0000
  H   H624      1.0  0.91785  0.77689  0.22444  1.0000
  H   H625      1.0  0.87281  0.79980  0.21873  1.0000
  C   C636      1.0  0.73633  0.87550  0.26135  1.0000
  C   C637      1.0  0.72178  0.86842  0.24532  1.0000
  C   C638      1.0  0.69304  0.86887  0.24556  1.0000
  C   C639      1.0  0.67858  0.87583  0.26190  1.0000
  C   C640      1.0  0.69320  0.88200  0.27808  1.0000
  C   C641      1.0  0.72187  0.88204  0.27773  1.0000
  H   H626      1.0  0.73261  0.86326  0.23262  1.0000
  H   H627      1.0  0.68193  0.86391  0.23301  1.0000
  H   H628      1.0  0.68240  0.88747  0.29075  1.0000
  H   H629      1.0  0.73289  0.88757  0.29021  1.0000
  C   C642      1.0  0.94569  0.92609  0.04600  1.0000
  H   H630      1.0  0.59946  0.64425  0.31968  1.0000
  H   H631      1.0  0.95323  0.83364  0.19977  1.0000
  C   C643      1.0  0.87739  0.96472  0.03681  1.0000
  C   C644      1.0  0.88415  0.94943  0.02088  1.0000
  C   C645      1.0  0.81513  0.74335  0.07074  1.0000
  H   H632      1.0  0.55529  0.63435  0.33397  1.0000
  H   H633      1.0  0.99452  0.72755  0.24117  1.0000
  C   C646      1.0  0.80891  0.77971  0.09420  1.0000
  C   C647      1.0  0.98541  0.88684  0.22001  1.0000
  C   C648      1.0  0.99453  0.66284  0.05145  1.0000
  H   H634      1.0  0.95848  0.91402  0.20409  1.0000
  C   C649      1.0  0.87683  0.99332  0.03620  1.0000
  H   H635      1.0  0.89649  0.68145  0.03467  1.0000
  H   H636      1.0  0.96371  0.62865  0.13580  1.0000
  H   H637      1.0  0.83016  0.59446  0.20161  1.0000
  H   H638      1.0  0.62740  0.58563  0.28766  1.0000
  C   C650      1.0  0.00671  0.59589  0.06464  1.0000
  N   N52       1.0  0.60389  0.57866  0.33150  1.0000
  C   C651      1.0  0.66830  0.80632  0.28003  1.0000
  N   N53       1.0  0.68337  0.78516  0.28786  1.0000
  C   C652      1.0  0.70762  0.79056  0.29905  1.0000
  H   H639      1.0  0.67422  0.82698  0.28200  1.0000
  H   H640      1.0  0.72525  0.79298  0.28976  1.0000
  H   H641      1.0  0.70413  0.80938  0.30748  1.0000
  H   H642      1.0  0.71263  0.77381  0.30908  1.0000
  N   N54       1.0  0.84929  0.73042  0.24987  1.0000
  C   C653      1.0  0.85105  0.75793  0.25123  1.0000
  C   C654      1.0  0.86921  0.71333  0.25744  1.0000
  C   C655      1.0  0.87385  0.76896  0.25957  1.0000
  C   C656      1.0  0.89234  0.72362  0.26580  1.0000
  C   C657      1.0  0.89472  0.75164  0.26672  1.0000
  C   C658      1.0  0.82557  0.71904  0.24080  1.0000
  H   H643      1.0  0.83513  0.77151  0.24537  1.0000
  H   H644      1.0  0.86737  0.69156  0.25697  1.0000
  H   H645      1.0  0.87559  0.79081  0.26012  1.0000
  H   H646      1.0  0.90828  0.70988  0.27145  1.0000
  H   H647      1.0  0.91269  0.75995  0.27294  1.0000
  H   H648      1.0  0.83203  0.70143  0.23188  1.0000
  H   H649      1.0  0.81127  0.71229  0.25153  1.0000
  H   H650      1.0  0.81465  0.73412  0.23150  1.0000
  H   H651      1.0  0.99437  0.74599  0.21951  1.0000
  H   H652      1.0  0.56007  0.73951  0.28809  1.0000
  H   H653      1.0  0.82813  0.78605  0.10083  1.0000
  C   C659      1.0  0.87875  0.66124  0.12175  1.0000
  H   H654      1.0  0.97806  0.97089  0.07333  1.0000
  H   H655      1.0  0.77045  0.58846  0.24474  1.0000
  N   N55       1.0  0.91939  0.83046  0.18095  1.0000
  C   C660      1.0  0.92021  0.85678  0.17516  1.0000
  C   C661      1.0  0.90242  0.81314  0.17229  1.0000
  C   C662      1.0  0.90441  0.86611  0.15991  1.0000
  C   C663      1.0  0.88634  0.82183  0.15700  1.0000
  C   C664      1.0  0.61332  0.58165  0.29876  1.0000
  C   C665      1.0  0.93532  0.82120  0.19732  1.0000
  H   H656      1.0  0.93294  0.87078  0.18240  1.0000
  H   H657      1.0  0.90090  0.79262  0.17738  1.0000
  C   C666      1.0  0.79144  0.58657  0.24008  1.0000
  H   H658      1.0  0.95211  0.62519  0.11245  1.0000
  C   C667      1.0  0.82633  0.78083  0.04360  1.0000
  N   N56       1.0  0.81427  0.77043  0.07506  1.0000
  H   H659      1.0  0.81961  0.81048  0.06538  1.0000
  H   H660      1.0  0.90879  0.64641  0.10230  1.0000
  H   H661      1.0  0.86643  0.58256  0.22457  1.0000
  C   C668      1.0  0.52297  0.75848  0.29893  1.0000
  H   H662      1.0  0.85555  0.58000  0.27498  1.0000
  C   C669      1.0  0.87349  0.66821  0.14031  1.0000
  C   C670      1.0  0.53475  0.63827  0.28863  1.0000
  H   H663      1.0  0.86259  0.66251  0.11130  1.0000
  H   H664      1.0  0.99031  0.69161  0.21386  1.0000
  C   C671      1.0  0.97363  0.95825  0.06139  1.0000
  N   N57       1.0  0.75184  0.92685  0.20241  1.0000
  C   C672      1.0  0.72679  0.92471  0.21027  1.0000
  C   C673      1.0  0.77382  0.93281  0.21324  1.0000
  C   C674      1.0  0.72316  0.92928  0.22940  1.0000
  C   C675      1.0  0.77097  0.93709  0.23245  1.0000
  C   C676      1.0  0.74545  0.93536  0.24053  1.0000
  C   C677      1.0  0.75565  0.92131  0.18245  1.0000
  S   S236      1.0  0.98389  0.59782  0.02963  1.0000
  H   H665      1.0  0.79380  0.93390  0.20708  1.0000
  H   H666      1.0  0.70341  0.92709  0.23572  1.0000
  H   H667      1.0  0.78856  0.94094  0.24115  1.0000
  H   H668      1.0  0.99307  0.65918  0.08132  1.0000
  H   H669      1.0  0.76490  0.90047  0.18046  1.0000
  H   H670      1.0  0.76960  0.93580  0.17630  1.0000
  C   C678      1.0  0.95291  0.63984  0.12425  1.0000
  H   H671      1.0  0.79412  0.79759  0.09418  1.0000
  C   C679      1.0  0.00141  0.89498  0.07745  1.0000
  H   H672      1.0  0.00112  0.90760  0.08982  1.0000
  H   H673      1.0  0.89055  0.67086  0.16805  1.0000
  C   C680      1.0  0.92059  0.65675  0.14796  1.0000
  H   H674      1.0  0.67246  0.77799  0.34154  1.0000
  H   H675      1.0  0.90487  0.88703  0.15539  1.0000
  C   C681      1.0  0.86079  0.57190  0.26088  1.0000
  C   C682      1.0  0.98243  0.87510  0.07530  1.0000
  C   C683      1.0  0.58153  0.64277  0.31097  1.0000
  C   C684      1.0  0.55643  0.63727  0.31905  1.0000
  C   C685      1.0  0.81249  0.58012  0.25285  1.0000
  H   H676      1.0  0.73615  0.92328  0.17451  1.0000
  C   C686      1.0  0.82491  0.59036  0.21598  1.0000
  H   H677      1.0  0.85306  0.67473  0.14454  1.0000
  H   H678      1.0  0.61809  0.77149  0.25967  1.0000
  H   H679      1.0  0.64702  0.73296  0.27267  1.0000
  C   C687      1.0  0.95092  0.94248  0.06144  1.0000
  H   H680      1.0  0.68863  0.74218  0.29074  1.0000
  C   C688      1.0  0.67643  0.75903  0.28478  1.0000
  H   H681      1.0  0.94304  0.79978  0.19563  1.0000
  C   C689      1.0  0.64461  0.80175  0.26979  1.0000
  H   H682      1.0  0.63231  0.81875  0.26410  1.0000
  S   S237      1.0  0.87131  0.53420  0.02970  1.0000
  C   C690      1.0  0.95971  0.89749  0.21396  1.0000
  H   H683      1.0  0.55077  0.69407  0.30051  1.0000
  C   C691      1.0  0.63675  0.77525  0.26722  1.0000
  H   H684      1.0  0.52738  0.77829  0.29358  1.0000
  S   S238      1.0  0.00319  0.60399  0.22582  1.0000
  H   H685      1.0  0.93664  0.65447  0.15841  1.0000
  C   C692      1.0  0.65295  0.75368  0.27451  1.0000
  H   H686      1.0  0.91593  0.89577  0.21626  1.0000
  H   H687      1.0  0.87539  0.85538  0.13882  1.0000
  H   H688      1.0  0.51697  0.63593  0.27986  1.0000
  C   C693      1.0  0.89456  0.66619  0.15349  1.0000
  N   N58       1.0  0.83909  0.57911  0.24733  1.0000
  C   C694      1.0  0.58612  0.57731  0.29456  1.0000
  C   C695      1.0  0.90504  0.65200  0.11671  1.0000
  H   H689      1.0  0.92794  0.91405  0.04612  1.0000
  H   H690      1.0  0.64298  0.58601  0.32064  1.0000
  H   H691      1.0  0.74320  0.93766  0.25553  1.0000
  C   C696      1.0  0.81980  0.78909  0.06179  1.0000
  C   C697      1.0  0.00048  0.86392  0.04469  1.0000
  C   C698      1.0  0.62191  0.58220  0.31743  1.0000
  H   H692      1.0  0.80027  0.76376  0.10286  1.0000
  N   N59       1.0  0.96279  0.92509  0.03106  1.0000
  C   C699      1.0  0.99074  0.95747  0.04596  1.0000
  H   H693      1.0  0.00281  0.66636  0.02230  1.0000
  C   C700      1.0  0.51253  0.70774  0.31269  1.0000
  C   C701      1.0  0.98489  0.94076  0.03078  1.0000
  H   H694      1.0  0.94550  0.89026  0.01902  1.0000
  H   H695      1.0  0.98891  0.53987  0.01697  1.0000
  C   C702      1.0  0.95671  0.90817  0.01485  1.0000
  C   C703      1.0  0.00466  0.66577  0.06955  1.0000
  H   H696      1.0  0.56260  0.57223  0.33860  1.0000
  C   C704      1.0  0.00768  0.73584  0.23029  1.0000
  H   H697      1.0  0.83340  0.74661  0.02521  1.0000
  H   H698      1.0  0.00007  0.85184  0.03207  1.0000
  Fe  Fe121     1.0  0.62620  0.92802  0.49244  1.0000
  S   S239      1.0  0.58346  0.93383  0.48158  1.0000
  S   S240      1.0  0.64582  0.96017  0.51025  1.0000
  Fe  Fe122     1.0  0.63354  0.87025  0.47526  1.0000
  S   S241      1.0  0.59167  0.87270  0.46292  1.0000
  S   S242      1.0  0.65945  0.83120  0.47072  1.0000
  Fe  Fe123     1.0  0.60024  0.91520  0.45517  1.0000
  S   S243      1.0  0.58481  0.93285  0.42796  1.0000
  Fe  Fe124     1.0  0.57927  0.89077  0.49034  1.0000
  S   S244      1.0  0.54235  0.87419  0.50301  1.0000
  S   S245      1.0  0.64363  0.91193  0.46525  1.0000
  S   S246      1.0  0.62068  0.88594  0.50351  1.0000
  Fe  Fe125     1.0  0.64529  0.61344  0.48923  1.0000
  S   S247      1.0  0.64306  0.59883  0.45950  1.0000
  S   S248      1.0  0.64972  0.58614  0.51501  1.0000
  Fe  Fe126     1.0  0.62834  0.67334  0.47813  1.0000
  S   S249      1.0  0.62437  0.66211  0.44801  1.0000
  S   S250      1.0  0.61254  0.71609  0.48624  1.0000
  Fe  Fe127     1.0  0.60454  0.62529  0.45785  1.0000
  S   S251      1.0  0.56642  0.61114  0.44427  1.0000
  Fe  Fe128     1.0  0.66329  0.63725  0.45250  1.0000
  S   S252      1.0  0.69633  0.64309  0.43153  1.0000
  S   S253      1.0  0.60547  0.63780  0.48787  1.0000
  S   S254      1.0  0.66877  0.65046  0.48245  1.0000
  H   H699      1.0  0.63991  0.96533  0.44117  1.0000
  H   H700      1.0  0.59165  0.54082  0.48760  1.0000
  C   C705      1.0  0.69236  0.62887  0.40913  1.0000
  C   C706      1.0  0.70929  0.63665  0.39470  1.0000
  C   C707      1.0  0.70609  0.62630  0.37656  1.0000
  C   C708      1.0  0.68659  0.60734  0.37289  1.0000
  C   C709      1.0  0.66984  0.59929  0.38737  1.0000
  C   C710      1.0  0.67240  0.61038  0.40539  1.0000
  H   H701      1.0  0.72480  0.65089  0.39753  1.0000
  H   H702      1.0  0.71925  0.63244  0.36553  1.0000
  H   H703      1.0  0.65485  0.58450  0.38469  1.0000
  H   H704      1.0  0.65931  0.60422  0.41645  1.0000
  C   C711      1.0  0.64917  0.55015  0.51565  1.0000
  C   C712      1.0  0.65415  0.53409  0.49979  1.0000
  C   C713      1.0  0.64506  0.53727  0.53280  1.0000
  H   H705      1.0  0.65761  0.54362  0.48652  1.0000
  H   H706      1.0  0.64119  0.54948  0.54517  1.0000
  H   H707      1.0  0.57156  0.85075  0.37583  1.0000
  C   C714      1.0  0.53764  0.62466  0.45594  1.0000
  C   C715      1.0  0.54010  0.64552  0.46898  1.0000
  H   H708      1.0  0.55288  0.87622  0.40186  1.0000
  H   H709      1.0  0.55880  0.65586  0.47013  1.0000
  C   C716      1.0  0.60080  0.91987  0.40776  1.0000
  C   C717      1.0  0.58715  0.92215  0.39051  1.0000
  C   C718      1.0  0.59923  0.91114  0.37429  1.0000
  C   C719      1.0  0.62534  0.89850  0.37522  1.0000
  C   C720      1.0  0.63913  0.89660  0.39243  1.0000
  C   C721      1.0  0.62674  0.90692  0.40872  1.0000
  H   H710      1.0  0.56707  0.93220  0.38971  1.0000
  H   H711      1.0  0.58853  0.91273  0.36103  1.0000
  H   H712      1.0  0.65933  0.88682  0.39317  1.0000
  H   H713      1.0  0.63742  0.90510  0.42196  1.0000
  C   C722      1.0  0.64579  0.79873  0.47242  1.0000
  C   C723      1.0  0.61777  0.79576  0.47387  1.0000
  C   C724      1.0  0.60774  0.76993  0.47672  1.0000
  C   C725      1.0  0.62554  0.74677  0.47825  1.0000
  C   C726      1.0  0.65346  0.74952  0.47586  1.0000
  C   C727      1.0  0.66351  0.77539  0.47293  1.0000
  H   H714      1.0  0.60385  0.81345  0.47334  1.0000
  H   H715      1.0  0.58610  0.76800  0.47844  1.0000
  H   H716      1.0  0.66745  0.73195  0.47724  1.0000
  H   H717      1.0  0.68522  0.77746  0.47177  1.0000
  H   H718      1.0  0.59152  0.59111  0.51573  1.0000
  H   H719      1.0  0.62817  0.74500  0.52334  1.0000
  H   H720      1.0  0.58504  0.56477  0.46869  1.0000
  H   H721      1.0  0.59076  0.83906  0.51484  1.0000
  H   H722      1.0  0.53885  0.90245  0.46788  1.0000
  H   H723      1.0  0.64477  0.66650  0.37911  1.0000
  H   H724      1.0  0.60799  0.57254  0.48712  1.0000
  C   C728      1.0  0.51780  0.58351  0.49844  1.0000
  H   H725      1.0  0.64963  0.71460  0.43590  1.0000
  H   H726      1.0  0.52098  0.66801  0.49156  1.0000
  C   C729      1.0  0.53989  0.57217  0.48840  1.0000
  H   H727      1.0  0.73849  0.52294  0.52692  1.0000
  N   N60       1.0  0.56599  0.57525  0.49450  1.0000
  H   H728      1.0  0.60955  0.97402  0.45430  1.0000
  N   N61       1.0  0.58852  0.84954  0.40338  1.0000
  C   C730      1.0  0.58883  0.84442  0.38460  1.0000
  H   H729      1.0  0.64075  0.83002  0.51785  1.0000
  C   C731      1.0  0.57084  0.58904  0.51070  1.0000
  H   H730      1.0  0.56968  0.87559  0.42388  1.0000
  S   S255      1.0  0.68309  0.59338  0.35037  1.0000
  H   H731      1.0  0.65959  0.78279  0.52217  1.0000
  C   C732      1.0  0.58874  0.56263  0.48397  1.0000
  H   H732      1.0  0.70810  0.72990  0.40714  1.0000
  N   N62       1.0  0.58182  0.79758  0.51764  1.0000
  C   C733      1.0  0.63772  0.78701  0.52144  1.0000
  C   C734      1.0  0.62712  0.81354  0.51899  1.0000
  C   C735      1.0  0.51847  0.65282  0.48083  1.0000
  H   H733      1.0  0.54893  0.80943  0.49961  1.0000
  C   C736      1.0  0.62010  0.76584  0.52220  1.0000
  H   H734      1.0  0.54496  0.82042  0.52345  1.0000
  C   C737      1.0  0.61048  0.84170  0.41436  1.0000
  C   C738      1.0  0.63396  0.82942  0.40646  1.0000
  H   H735      1.0  0.61249  0.82897  0.36126  1.0000
  H   H736      1.0  0.65162  0.82414  0.41518  1.0000
  C   C739      1.0  0.63468  0.82473  0.38724  1.0000
  C   C740      1.0  0.51972  0.89346  0.47033  1.0000
  H   H737      1.0  0.68069  0.68532  0.35973  1.0000
  C   C741      1.0  0.56415  0.86255  0.41190  1.0000
  C   C742      1.0  0.61345  0.58037  0.35089  1.0000
  H   H738      1.0  0.55049  0.84696  0.41683  1.0000
  H   H739      1.0  0.70366  0.53458  0.53130  1.0000
  C   C743      1.0  0.61187  0.83193  0.37627  1.0000
  H   H740      1.0  0.61026  0.84548  0.42925  1.0000
  H   H741      1.0  0.54049  0.78556  0.51738  1.0000
  C   C744      1.0  0.51613  0.87799  0.48635  1.0000
  C   C745      1.0  0.59893  0.81849  0.51715  1.0000
  H   H742      1.0  0.65300  0.81606  0.38076  1.0000
  H   H743      1.0  0.55325  0.61300  0.53327  1.0000
  H   H744      1.0  0.57873  0.75466  0.51973  1.0000
  C   C746      1.0  0.55260  0.80335  0.51439  1.0000
  N   N63       1.0  0.67337  0.70667  0.41144  1.0000
  C   C747      1.0  0.69369  0.71655  0.40095  1.0000
  C   C748      1.0  0.65596  0.68888  0.40377  1.0000
  C   C749      1.0  0.69634  0.70936  0.38211  1.0000
  C   C750      1.0  0.65812  0.68116  0.38502  1.0000
  C   C751      1.0  0.67841  0.69156  0.37417  1.0000
  C   C752      1.0  0.67116  0.71403  0.43126  1.0000
  H   H745      1.0  0.51032  0.59733  0.44297  1.0000
  H   H746      1.0  0.64069  0.68001  0.41222  1.0000
  H   H747      1.0  0.53606  0.56144  0.47547  1.0000
  H   H748      1.0  0.63071  0.56527  0.35337  1.0000
  C   C753      1.0  0.54926  0.60129  0.52079  1.0000
  H   H749      1.0  0.67883  0.73442  0.43408  1.0000
  S   S256      1.0  0.64087  0.88398  0.35531  1.0000
  H   H750      1.0  0.68315  0.69888  0.43985  1.0000
  C   C754      1.0  0.71712  0.51680  0.52714  1.0000
  C   C755      1.0  0.59204  0.77148  0.52012  1.0000
  H   H751      1.0  0.62083  0.60090  0.35374  1.0000
  H   H752      1.0  0.71235  0.71721  0.37369  1.0000
  H   H753      1.0  0.66229  0.00247  0.53489  1.0000
  H   H754      1.0  0.71078  0.51120  0.51276  1.0000
  H   H755      1.0  0.70246  0.51919  0.56296  1.0000
  C   C756      1.0  0.62629  0.98245  0.44624  1.0000
  C   C757      1.0  0.51249  0.61313  0.45333  1.0000
  C   C758      1.0  0.64639  0.50871  0.53419  1.0000
  C   C759      1.0  0.52258  0.59860  0.51453  1.0000
  H   H756      1.0  0.59721  0.57649  0.36105  1.0000
  H   H757      1.0  0.60100  0.99275  0.49266  1.0000
  H   H758      1.0  0.66775  0.96982  0.46947  1.0000
  C   C760      1.0  0.66201  0.99135  0.46924  1.0000
  H   H759      1.0  0.61733  0.99267  0.43364  1.0000
  C   C761      1.0  0.63264  0.99412  0.51354  1.0000
  H   H760      1.0  0.69120  0.00049  0.49075  1.0000
  N   N64       1.0  0.64113  0.00119  0.45799  1.0000
  C   C762      1.0  0.61117  0.00535  0.50262  1.0000
  C   C763      1.0  0.89117  0.99161  0.00407  1.0000
  H   H761      1.0  0.89649  0.95144  0.99216  1.0000
  H   H762      1.0  0.94399  0.56405  0.01167  1.0000
  C   C764      1.0  0.92698  0.53033  0.99738  1.0000
  H   H763      1.0  0.94377  0.92013  0.00473  1.0000
  H   H764      1.0  0.97576  0.90031  0.00802  1.0000
  C   C765      1.0  0.97284  0.52977  0.00964  1.0000
  C   C766      1.0  0.89119  0.96306  0.00456  1.0000
  H   H765      1.0  0.89645  0.00176  0.99137  1.0000
  C   C767      1.0  0.83658  0.00343  0.97393  1.0000
  H   H766      1.0  0.90702  0.54054  0.99551  1.0000
  H   H767      1.0  0.84346  0.98231  0.97561  1.0000
  C   C768      1.0  0.94762  0.54342  0.00665  1.0000
  H   H768      1.0  0.84147  0.00341  0.94405  1.0000
