data_image0
_chemical_formula_structural       SC2H2FeHSC2SCHC2FeCHC2H2CHC2FeHC2SH4SHCH3C2HFeH2CH2CH3C2SNCH4C2NHSC4HCH2CSHC3HC2SNHSCSHS2H2FeHSC3HC4H2CHCFeC2FeHFeHCSNHCNC2HCFeSH3S2HFe2CS3H2NH5CHC2HC2HFeC2SCHCFeHFeSHCSHCH3SHCHCNHSHCHFeHCHCHFeH4CHSHSCSHCHFeSCHCH3SH2FeHC2SC2HCSCH2SC2H2C3HC3HCH2CSCH3C4HC4HCHSH3C2HCHC2HCHFeCHS2H5C3HSC2FeH2CHCHSCHNHSHCHC2SC4H2Fe2C2HSH2CS2CSC2HNHSCH2FeC2FeHC3H2NH2FeHC3SCFeC2HC2H3SHCHSCHC2SHSFeNCH2SC2HC2HC2HSCH2CH2CHSC3SCHC2H2C2HCSFeCHC2HSH2CHCHCSFeCHCHCSC2NHC2SCNCHC2SH2C2HCSFeHCHFeC3FeSH2SHCHCHCNCSCHSCSCH2Fe2HCHCH2CH2CH2C2SHCH2C4HCSHC2H7SCHCH2CH2CSC2HFe2CHCHCH2C2NCHSCNCH2S2H3SCH2FeC2NFeH4C3HCH3SCHCH3CH3CHCHSCNHC3H3CNHC5SH2CHSCHC2H2C2FeCSH2FeH2CHSC8SCHC2HS3NHSH2CH3CH2CSHCFeC2HCHCHCHCH3SHCFeHC2HCSHCSHC2FeSHFeHNC3H2C5S2NHFeHCHC2H2CHCHSHSH4CH2CH4SHC3S2HNCSHCSNSHFeHCS2C2HCH2C2Fe2CH2SCNC2HC2HCNHCFeC2SFe2SFeCS2HCH4CH2C2H2SC2H5SCH2CHCNHCH3C4H3SCHNC2SCS2HCFeHCSFeCHCH2NHCHC2SHSNC3SFeNSCH3SCH4CH2CS2CFeHC2HCHCHCSC3H2CSCSFe2HCFeH2C2FeC4HC2HCHFeH6CFeSFeHCSFeH2C3H2CHFeHFeCNC3FeH2C3SCHC2HCHCH2SCHCH2CH3NH2CH4SCSHSH3SH3CHCHC2S2CNSCH3SCH4C2H2C3SHCHCH2CSC2SCSFeC2SH4CH3CHSFeS2CFeC4HCH2SHCHFe2CH2SCHC6FeSHSHNH3CHCH3NHCHFeSH6FeCHCSCHSHCHNC3NH2C3FeCSHCH2CSCHCSCHC2HS2C2SCNH2C2HCSCH2C2FeHC2H2CHSNHS2CH2C3HFeH2CHCSFeCHNFeCHSC2FeSCSHSC2HFeCFeSC3HC3SHFeHCFeH2FeHCSC2HFeHFeCNHSCH2SCH2SFeHCHSCHSHCH2C2H4C2H2SH2C2HCSNC2NHC4H2FeHC2H2CHSHSHCSNC2HCHC2SC3HCSC3HCH3CHCSCHNC3H2C2FeCSC3HCSH2SH3SNC2FeHSH4CHNSH2FeCHC3HCHCSH4CHCH3C2H2SCHCHSHS2CH2CHCSCHC3HC5FeCSH3FeHSC3NFeHSC2FeCH2CFeHCHFeH2C2H2FeH2CH2CHC2NSC3FeCSNHSHCH2NCFeCHCHC4HC2HCFeCFeH2C5H4C2SHFeSCSHCFeNCH2SC2S3H5C3NCH2SCH2CH2SCNC2H5CHCSCHCHCSCSCHCH3C2H2CFeC2HCH2C4HCHFeHC2H3SH3CH3CH2SCS2CHC2FeS2CHCFeHSHSC2HCHSCH3CH2C3H3CSHC3H3C3HC3H2CS2FeSCHCSCHC6HCHCH2NCH3Fe2SHS2CFeHCH2SH2CSH2C2HNHFeHC2H3C3NC2NHCHC2NC3HCFeCHCHCHCHCHCHNFeH5CH2CH2C2FeC3S2C2S2H3CHSH2CSHCSH5C3HS2HC2H2C3FeCHC2HCH2NH4C2H2CHSC2HCHCSHCH2CHCSHSH3CHSHC2FeH3C2H2CH3CFeH4CHCHFeHC3S2CHCHSNC2HC2S2NCHCNCH2FeCH2CFeHS2FeHFe2SHSHFeCH4FeSCH2C2SCHCH2SHSC2H2C2FeC2HCH3CHNCSCSCFeH2CH3S2HCSC2SHSCS2CHC2H2CHCSNSH2CH2FeC2FeSC4HCHC3HC5HCH2CSFeC5H2C5SC3HSFeC2H2NC2HC4H5SCHNSHNH3C2HCS2HC3HCH2CSCHFeCFeSH3C3H2CH3CFeH2NCFeCH2SCHS3CHCH3CHCHCHSFe2CHCHCHC4HSHCFeSH2CSFeNSHCH2SHC2HNC2SHC4H4C2SFeHCH2SCH2CHCH2C2H4CHCHCHCH2C3HCSCSCFeCH3CHCSHCSHC2Fe2H2S2HSCNHCNC2HC3HC2HFeHC2H2C2HS2H3S2NCHCNCHC2HC2H3SCH4NCSHCSH2CHCSC3HC3HS3CSHCSC2SCHCSC2FeHCH2FeH2FeH2CFeH4S3HCSFeCNCH2N2C2SH3SHCH3C2FeSHC2SH3CHC3FeSCFeCHCH2CH3NCHC2HCS2HCFeHCSH3SFeHSH2CHCSC5NH2C3FeCH2CHSH2FeHC2H2SCHCHCS2CH2NHCFeSC2HC6H2CH2C4H2CH2C3HC2H2FeH2C2HCH3C2SH2SHCHCFeH3CSHCSFeC5HSFeSHC2HC5Fe2HCHNSNCNCHFeCHSHSC4HCHFeSH2C4HNCH4CS2HCH2CH2SC3SHSCH3SH8CH6CH3CSHCHCH2SH2CSHCHCSH3C2FeCHCHC4H3C3SFeHCHSCHC2HFeC2HNCNC2FeNS2FeC5NCFeC2HSHC3SH4SH2CSH2SH2CFeC5HSCH2C5SCSHFeCHSFeH3CS2NH2CSC3NCHFeCH2CHC2H3SH2C4NCH4CHC3FeCH3NSCH4SCSC4SCNC7SHSHCHCHCFeHC4H2CHSC3HC2H2Fe2C5FeHC2HSCH2SHFeHC2H2CHFeNHCH4CHS2CS3C2HC3H3CH3CSHC5NSCHCSH2CH4CHCH2CH3FeH2FeHFeHC2HNC3H2CFeCH2C2H3C3H2CFeHCH3CH2CHCH2C2HSFeC2HCHCSC2HCFeHC2HCSCHCSH4S2HSCNHCSC3SHFeHNH6CSFeCHCSHFeCHC2H2C2H2FeCH2NHC3SCH2NSFeC7H2C5HFeCHCHS2H4CHCH2CHCHC2S2FeCSCSC2HCFeCNHNC2HCHCHCSFeS2H2CSHC2HSHSCHC3SCSH3C2SCFeCH3CSHFeCHCNCH2SCHC3SHSCHSHCHFeHC2HC2HS2HCH2FeC2S2H2CHCHC2SH3C2HSCHSFeH2FeC2H2CHCSH2CH2NCFeH2SHFeH2CSHCHSC6HC2SFeC3FeHS2H2SHCHSCH4CH4CSC2HCN2H2FeCNCHNSCSNHSCH2FeHCHCHSH2CH3C2SHCHSC3HCH4CHSFeCHC2FeNH2FeC3H2CFeH2CHC2NFe2HC2H2FeCSHSC4S2CHC5H2SHSCHCSH5C2HC4HC2SH2S2C2HCHCH2CHC3H2CH3FeHCFeHSFeH2NSH2CH2C2HS2HC2H2CFeSC3HFeH2CHSFeC3NHCHSC2H2CFeC2HC3S2C2FeSCHC5HFeCHC3HCFeH2C3H2CFeH2NSH2C3H5SH2CH3C2H2SHNCSFeC2SC2HCH2NFeHCHSHCFeC4HCHC3H3SH3C2HFeCSC2HSC4HCS2C5SHCHC2H3CSCFeCFeH6S3H3CHCHS2HCH4S2CH2C3SC2SHCHC2SFeNHFeCH2C2NH2CH2C3H3CHCHCH2FeC2HCHSCH3C2FeCHC2HCH2CH2CFeSH3FeHFeH2FeH2CNH2CH2CHSCFeC3H2CSHNC3SCFeSNCHNSC2HC3SHFeH2CH2CNHSHCHC2HCSHC2SCSH2FeHFeCSH2SFeHCSH2SFe2C2HC2HSC4SC3NHSHSFeSH2C3H3SFe2CHCFeCFeSNC2HC5NFeSC3H2C4HSH4C3HC2HCH2CFeHS2CH3CSC2H2CS3HCHCH2CHCH2C2H3CHSNH3SHCHCHSH2SFeCHC4H5SCFeHC2SCHC2H3CH2C2HCSFeNH2CHC
_chemical_formula_sum              "S528 C1584 H1584 Fe264 N132"
_cell_length_a       64.8164
_cell_length_b       62.2587
_cell_length_c       23.2237
_cell_angle_alpha    73.9193
_cell_angle_beta     69.4196
_cell_angle_gamma    113.862

_space_group_name_H-M_alt    "P 1"
_space_group_IT_number       1

loop_
  _space_group_symop_operation_xyz
  'x, y, z'

loop_
  _atom_site_type_symbol
  _atom_site_label
  _atom_site_symmetry_multiplicity
  _atom_site_fract_x
  _atom_site_fract_y
  _atom_site_fract_z
  _atom_site_occupancy
  S   S1        1.0  0.00470  0.13386  0.07977  1.0000
  C   C1        1.0  0.42377  0.17359  0.05319  1.0000
  C   C2        1.0  0.16116  0.03087  0.21808  1.0000
  H   H1        1.0  0.43052  0.13255  0.82121  1.0000
  H   H2        1.0  0.40396  0.14083  0.03684  1.0000
  Fe  Fe1       1.0  0.12667  0.01688  0.03487  1.0000
  H   H3        1.0  0.43964  0.17076  0.04818  1.0000
  S   S2        1.0  0.06717  0.16313  0.09891  1.0000
  C   C3        1.0  0.14584  0.15302  0.93428  1.0000
  C   C4        1.0  0.38991  0.11423  0.84857  1.0000
  S   S3        1.0  0.42385  0.05155  0.16330  1.0000
  C   C5        1.0  0.20376  0.18468  0.09283  1.0000
  H   H4        1.0  0.43649  0.95851  0.85140  1.0000
  C   C6        1.0  0.34575  0.14890  0.85553  1.0000
  C   C7        1.0  0.96597  0.16764  0.09170  1.0000
  Fe  Fe2       1.0  0.25681  0.04872  0.24896  1.0000
  C   C8        1.0  0.33732  0.08791  0.27640  1.0000
  H   H5        1.0  0.33671  0.08353  0.01339  1.0000
  C   C9        1.0  0.35500  0.03238  0.96078  1.0000
  C   C10       1.0  0.41015  0.12203  0.86324  1.0000
  H   H6        1.0  0.34629  0.04334  0.97322  1.0000
  H   H7        1.0  0.31958  0.94109  0.12487  1.0000
  C   C11       1.0  0.00836  0.07778  0.01548  1.0000
  H   H8        1.0  0.34669  0.95479  0.85608  1.0000
  C   C12       1.0  0.28903  0.98431  0.17681  1.0000
  C   C13       1.0  0.42425  0.14382  0.20328  1.0000
  Fe  Fe3       1.0  0.02983  0.15941  0.11048  1.0000
  H   H9        1.0  0.21675  0.05793  0.96773  1.0000
  C   C14       1.0  0.38191  0.17894  0.07083  1.0000
  C   C15       1.0  0.98700  0.06230  0.95540  1.0000
  S   S4        1.0  0.40364  0.00584  0.09205  1.0000
  H   H10       1.0  0.32183  0.96830  0.28071  1.0000
  H   H11       1.0  0.38538  0.94909  0.89320  1.0000
  H   H12       1.0  0.97143  0.08025  0.11076  1.0000
  H   H13       1.0  0.22486  0.04186  0.06250  1.0000
  S   S5        1.0  0.10316  0.03446  0.02411  1.0000
  H   H14       1.0  0.03413  0.07995  0.13870  1.0000
  C   C16       1.0  0.26706  0.99904  0.03392  1.0000
  H   H15       1.0  0.94778  0.97574  0.92299  1.0000
  H   H16       1.0  0.19308  0.12170  0.00674  1.0000
  H   H17       1.0  0.43978  0.17448  0.23006  1.0000
  C   C17       1.0  0.09136  0.99735  0.89842  1.0000
  C   C18       1.0  0.16383  0.98669  0.13133  1.0000
  H   H18       1.0  0.40309  0.02418  0.96041  1.0000
  Fe  Fe4       1.0  0.22927  0.02371  0.17867  1.0000
  H   H19       1.0  0.31014  0.18851  0.11143  1.0000
  H   H20       1.0  0.16510  0.07951  0.94785  1.0000
  C   C19       1.0  0.02824  0.06923  0.27584  1.0000
  H   H21       1.0  0.43895  0.09688  0.21108  1.0000
  H   H22       1.0  0.27183  0.98892  0.26640  1.0000
  C   C20       1.0  0.05310  0.03173  0.24719  1.0000
  H   H23       1.0  0.12206  0.11147  0.10447  1.0000
  H   H24       1.0  0.14588  0.15255  0.25484  1.0000
  H   H25       1.0  0.12202  0.03863  0.85669  1.0000
  C   C21       1.0  0.01367  0.95849  0.87310  1.0000
  C   C22       1.0  0.32553  0.14273  0.84127  1.0000
  S   S6        1.0  0.14425  0.11531  0.20219  1.0000
  N   N1        1.0  0.17032  0.05651  0.16157  1.0000
  C   C23       1.0  0.02737  0.99831  0.88656  1.0000
  H   H26       1.0  0.96284  0.14807  0.11259  1.0000
  H   H27       1.0  0.14958  0.01392  0.21133  1.0000
  H   H28       1.0  0.28751  0.03550  0.26388  1.0000
  H   H29       1.0  0.10124  0.17361  0.92153  1.0000
  C   C24       1.0  0.37752  0.10293  0.98579  1.0000
  C   C25       1.0  0.40346  0.15665  0.04707  1.0000
  N   N2        1.0  0.99973  0.03654  0.01467  1.0000
  H   H30       1.0  0.36657  0.05122  0.03990  1.0000
  S   S7        1.0  0.22398  0.11629  0.31313  1.0000
  C   C26       1.0  0.08426  0.97080  0.92599  1.0000
  C   C27       1.0  0.37844  0.00586  0.92380  1.0000
  C   C28       1.0  0.15924  0.99574  0.07788  1.0000
  C   C29       1.0  0.96210  0.08213  0.15597  1.0000
  H   H31       1.0  0.98037  0.02495  0.96056  1.0000
  C   C30       1.0  0.12224  0.11982  0.05675  1.0000
  H   H32       1.0  0.34103  0.14244  0.90957  1.0000
  H   H33       1.0  0.30505  0.13131  0.88435  1.0000
  C   C31       1.0  0.23166  0.96312  0.15474  1.0000
  S   S8        1.0  0.42849  0.12229  0.95351  1.0000
  H   H34       1.0  0.97869  0.06516  0.92300  1.0000
  C   C32       1.0  0.18732  0.00343  0.12641  1.0000
  C   C33       1.0  0.97360  0.10697  0.15385  1.0000
  C   C34       1.0  0.27179  0.97487  0.24792  1.0000
  H   H35       1.0  0.14273  0.10360  0.94257  1.0000
  C   C35       1.0  0.18675  0.10341  0.05004  1.0000
  C   C36       1.0  0.98837  0.03977  0.97596  1.0000
  S   S9        1.0  0.05516  0.09987  0.84608  1.0000
  N   N3        1.0  0.12715  0.98570  0.91140  1.0000
  H   H36       1.0  0.24230  0.97476  0.17495  1.0000
  S   S10       1.0  0.33799  0.08629  0.88595  1.0000
  C   C37       1.0  0.37945  0.95205  0.02735  1.0000
  S   S11       1.0  0.01243  0.15007  0.22278  1.0000
  H   H37       1.0  0.17793  0.03020  0.21874  1.0000
  S   S12       1.0  0.28540  0.12216  0.02818  1.0000
  S   S13       1.0  0.26742  0.04732  0.07492  1.0000
  H   H38       1.0  0.23081  0.16355  0.21487  1.0000
  H   H39       1.0  0.29712  0.03204  0.92791  1.0000
  Fe  Fe5       1.0  0.06921  0.99122  0.07922  1.0000
  H   H40       1.0  0.35102  0.99061  0.89120  1.0000
  S   S14       1.0  0.08714  0.05160  0.18588  1.0000
  C   C38       1.0  0.12253  0.14039  0.93322  1.0000
  C   C39       1.0  0.09277  0.09780  0.28999  1.0000
  C   C40       1.0  0.36336  0.09991  0.90281  1.0000
  H   H41       1.0  0.36544  0.18096  0.07932  1.0000
  C   C41       1.0  0.25763  0.01633  0.94674  1.0000
  C   C42       1.0  0.00920  0.05492  0.03551  1.0000
  C   C43       1.0  0.00156  0.01317  0.03525  1.0000
  C   C44       1.0  0.16047  0.08659  0.10641  1.0000
  H   H42       1.0  0.34024  0.07840  0.24422  1.0000
  H   H43       1.0  0.28890  0.17357  0.96072  1.0000
  C   C45       1.0  0.42409  0.12206  0.19733  1.0000
  H   H44       1.0  0.08111  0.08954  0.10277  1.0000
  C   C46       1.0  0.39478  0.97198  0.03854  1.0000
  Fe  Fe6       1.0  0.40682  0.02483  0.27675  1.0000
  C   C47       1.0  0.11650  0.01800  0.87713  1.0000
  C   C48       1.0  0.27604  0.01710  0.96550  1.0000
  Fe  Fe7       1.0  0.05706  0.06827  0.82205  1.0000
  H   H45       1.0  0.13665  0.15445  0.12982  1.0000
  Fe  Fe8       1.0  0.27533  0.08182  0.09637  1.0000
  H   H46       1.0  0.22216  0.18305  0.24944  1.0000
  C   C49       1.0  0.07183  0.10123  0.31204  1.0000
  S   S15       1.0  0.16948  0.03427  0.96128  1.0000
  N   N4        1.0  0.37417  0.03365  0.97463  1.0000
  H   H47       1.0  0.37168  0.14594  0.99074  1.0000
  C   C50       1.0  0.17813  0.02154  0.01931  1.0000
  N   N5        1.0  0.24046  0.98111  0.08274  1.0000
  C   C51       1.0  0.27230  0.12844  0.09640  1.0000
  C   C52       1.0  0.29017  0.96594  0.15433  1.0000
  H   H48       1.0  0.15453  0.16688  0.30689  1.0000
  C   C53       1.0  0.43966  0.15760  0.22622  1.0000
  Fe  Fe9       1.0  0.00732  0.18850  0.87944  1.0000
  S   S16       1.0  0.09351  0.97396  0.08273  1.0000
  H   H49       1.0  0.19727  0.15448  0.18192  1.0000
  H   H50       1.0  0.01696  0.09290  0.02966  1.0000
  H   H51       1.0  0.12258  0.14853  0.88571  1.0000
  S   S17       1.0  0.19145  0.99216  0.19684  1.0000
  S   S18       1.0  0.30768  0.01865  0.11452  1.0000
  H   H52       1.0  0.31076  0.09483  0.25208  1.0000
  Fe  Fe10      1.0  0.08341  0.97274  0.18697  1.0000
  Fe  Fe11      1.0  0.07927  0.09746  0.89346  1.0000
  C   C54       1.0  0.09719  0.14253  0.20178  1.0000
  S   S19       1.0  0.07784  0.06281  0.87893  1.0000
  S   S20       1.0  0.16516  0.07184  0.29703  1.0000
  S   S21       1.0  0.29672  0.07439  0.14890  1.0000
  H   H53       1.0  0.29857  0.12616  0.13063  1.0000
  H   H54       1.0  0.00777  0.18788  0.02194  1.0000
  N   N6        1.0  0.01734  0.07638  0.23967  1.0000
  H   H55       1.0  0.41595  0.98127  0.01206  1.0000
  H   H56       1.0  0.08101  0.99008  0.29193  1.0000
  H   H57       1.0  0.98326  0.94547  0.09509  1.0000
  H   H58       1.0  0.24209  0.12905  0.07851  1.0000
  H   H59       1.0  0.32605  0.17413  0.02513  1.0000
  C   C55       1.0  0.99146  0.19039  0.04013  1.0000
  H   H60       1.0  0.27384  0.12340  0.24416  1.0000
  C   C56       1.0  0.96059  0.10946  0.21164  1.0000
  C   C57       1.0  0.38284  0.97999  0.08342  1.0000
  H   H61       1.0  0.21601  0.99687  0.98255  1.0000
  C   C58       1.0  0.35723  0.09491  0.97112  1.0000
  C   C59       1.0  0.06373  0.17357  0.85449  1.0000
  H   H62       1.0  0.40085  0.06871  0.96989  1.0000
  Fe  Fe12      1.0  0.09185  0.02773  0.13348  1.0000
  C   C60       1.0  0.03516  0.02678  0.22437  1.0000
  C   C61       1.0  0.38670  0.02169  0.95363  1.0000
  S   S22       1.0  0.03836  0.97735  0.05110  1.0000
  C   C62       1.0  0.23465  0.12555  0.17976  1.0000
  H   H63       1.0  0.05427  0.16184  0.91100  1.0000
  C   C63       1.0  0.00778  0.00907  0.27377  1.0000
  Fe  Fe13      1.0  0.97150  0.14203  0.86781  1.0000
  H   H64       1.0  0.21621  0.12419  0.19475  1.0000
  Fe  Fe14      1.0  0.94850  0.16719  0.94069  1.0000
  S   S23       1.0  0.05619  0.98600  0.18783  1.0000
  H   H65       1.0  0.07862  0.14992  0.83146  1.0000
  C   C64       1.0  0.11848  0.13946  0.18050  1.0000
  S   S24       1.0  0.40540  0.10609  0.16558  1.0000
  H   H66       1.0  0.31017  0.13798  0.27588  1.0000
  C   C65       1.0  0.40394  0.11590  0.93216  1.0000
  H   H67       1.0  0.34694  0.14655  0.05459  1.0000
  H   H68       1.0  0.21010  0.95320  0.19190  1.0000
  H   H69       1.0  0.03084  0.96618  0.93534  1.0000
  S   S25       1.0  0.07033  0.09925  0.99365  1.0000
  H   H70       1.0  0.15392  0.02808  0.86613  1.0000
  C   C66       1.0  0.10247  0.96525  0.93248  1.0000
  H   H71       1.0  0.96856  0.12890  0.20900  1.0000
  C   C67       1.0  0.01831  0.00744  0.84535  1.0000
  N   N7        1.0  0.38303  0.15968  0.05509  1.0000
  H   H72       1.0  0.99561  0.00127  0.00951  1.0000
  S   S26       1.0  0.04724  0.12701  0.29792  1.0000
  H   H73       1.0  0.96643  0.96289  0.99318  1.0000
  C   C68       1.0  0.09900  0.10743  0.05586  1.0000
  H   H74       1.0  0.14869  0.96706  0.17770  1.0000
  Fe  Fe15      1.0  0.28445  0.03698  0.13877  1.0000
  H   H75       1.0  0.95531  0.06432  0.82591  1.0000
  C   C69       1.0  0.15958  0.10908  0.89470  1.0000
  H   H76       1.0  0.20268  0.09126  0.83745  1.0000
  C   C70       1.0  0.25494  0.94719  0.29586  1.0000
  H   H77       1.0  0.44132  0.98936  0.12592  1.0000
  Fe  Fe16      1.0  0.38950  0.01703  0.17497  1.0000
  H   H78       1.0  0.14064  0.98302  0.08324  1.0000
  H   H79       1.0  0.02228  0.01974  0.02002  1.0000
  H   H80       1.0  0.16643  0.99629  0.88259  1.0000
  H   H81       1.0  0.34645  0.97560  0.14740  1.0000
  C   C71       1.0  0.22227  0.97981  0.06437  1.0000
  H   H82       1.0  0.21052  0.06827  0.10686  1.0000
  S   S27       1.0  0.37353  0.98983  0.28773  1.0000
  H   H83       1.0  0.14632  0.09182  0.10748  1.0000
  S   S28       1.0  0.07566  0.94217  0.28392  1.0000
  C   C72       1.0  0.24333  0.12332  0.22722  1.0000
  S   S29       1.0  0.36349  0.03248  0.20252  1.0000
  H   H84       1.0  0.41220  0.14985  0.19101  1.0000
  C   C73       1.0  0.95487  0.94872  0.98097  1.0000
  H   H85       1.0  0.06458  0.95463  0.94359  1.0000
  Fe  Fe17      1.0  0.05076  0.15690  0.20905  1.0000
  S   S30       1.0  0.94841  0.15918  0.85233  1.0000
  C   C74       1.0  0.20483  0.09673  0.05017  1.0000
  H   H86       1.0  0.35296  0.12083  0.08291  1.0000
  C   C75       1.0  0.14578  0.14233  0.99584  1.0000
  H   H87       1.0  0.05448  0.10794  0.14542  1.0000
  H   H88       1.0  0.30884  0.01225  0.28742  1.0000
  H   H89       1.0  0.20115  0.96563  0.10302  1.0000
  S   S31       1.0  0.24551  0.01118  0.24091  1.0000
  H   H90       1.0  0.98834  0.99968  0.09326  1.0000
  H   H91       1.0  0.16402  0.17048  0.88704  1.0000
  Fe  Fe18      1.0  0.39651  0.06440  0.20128  1.0000
  H   H92       1.0  0.13199  0.05027  0.20593  1.0000
  C   C76       1.0  0.11638  0.11717  0.22501  1.0000
  C   C77       1.0  0.34044  0.94933  0.10200  1.0000
  S   S32       1.0  0.17507  0.15555  0.99697  1.0000
  C   C78       1.0  0.32083  0.09734  0.28083  1.0000
  C   C79       1.0  0.23056  0.99743  0.99622  1.0000
  H   H93       1.0  0.28145  0.99998  0.04837  1.0000
  C   C80       1.0  0.35776  0.00303  0.91360  1.0000
  S   S33       1.0  0.11824  0.01422  0.13917  1.0000
  C   C81       1.0  0.28126  0.12691  0.14316  1.0000
  H   H94       1.0  0.09898  0.15985  0.16749  1.0000
  H   H95       1.0  0.37251  0.09750  0.03955  1.0000
  S   S34       1.0  0.96982  0.14789  0.95926  1.0000
  C   C82       1.0  0.35564  0.96880  0.11482  1.0000
  C   C83       1.0  0.03373  0.09299  0.16278  1.0000
  H   H96       1.0  0.30354  0.97307  0.09948  1.0000
  H   H97       1.0  0.18748  0.17037  0.09161  1.0000
  C   C84       1.0  0.14261  0.16404  0.28173  1.0000
  C   C85       1.0  0.34623  0.01674  0.93092  1.0000
  C   C86       1.0  0.13433  0.01183  0.88343  1.0000
  H   H98       1.0  0.14996  0.18417  0.24122  1.0000
  C   C87       1.0  0.26714  0.12506  0.20769  1.0000
  C   C88       1.0  0.19626  0.07314  0.10692  1.0000
  C   C89       1.0  0.20673  0.02884  0.06647  1.0000
  H   H99       1.0  0.22539  0.10976  0.00686  1.0000
  C   C90       1.0  0.00516  0.96785  0.83036  1.0000
  H   H100      1.0  0.15887  0.13991  0.82714  1.0000
  H   H101      1.0  0.33085  0.01552  0.92066  1.0000
  C   C91       1.0  0.09925  0.11722  0.99375  1.0000
  S   S35       1.0  0.02133  0.03807  0.82763  1.0000
  C   C92       1.0  0.16874  0.12957  0.82952  1.0000
  H   H102      1.0  0.07722  0.00192  0.89493  1.0000
  H   H103      1.0  0.23577  0.94739  0.15565  1.0000
  H   H104      1.0  0.09675  0.94451  0.95467  1.0000
  C   C93       1.0  0.36256  0.14232  0.04580  1.0000
  C   C94       1.0  0.23502  0.18396  0.20104  1.0000
  C   C95       1.0  0.38222  0.04874  0.00960  1.0000
  C   C96       1.0  0.38268  0.94409  0.85298  1.0000
  H   H105      1.0  0.03595  0.00995  0.90840  1.0000
  C   C97       1.0  0.07397  0.12354  0.26805  1.0000
  C   C98       1.0  0.44059  0.99605  0.83593  1.0000
  C   C99       1.0  0.43902  0.11373  0.21569  1.0000
  C   C100      1.0  0.14537  0.97945  0.92286  1.0000
  H   H106      1.0  0.38869  0.94531  0.99478  1.0000
  C   C101      1.0  0.99084  0.06633  0.27413  1.0000
  H   H107      1.0  0.38562  0.03787  0.04810  1.0000
  S   S36       1.0  0.94757  0.01013  0.27910  1.0000
  H   H108      1.0  0.04914  0.07658  0.24810  1.0000
  H   H109      1.0  0.99394  0.00512  0.25618  1.0000
  H   H110      1.0  0.01804  0.05222  0.06654  1.0000
  C   C102      1.0  0.15255  0.06317  0.16233  1.0000
  C   C103      1.0  0.20221  0.03787  0.01263  1.0000
  H   H111      1.0  0.98214  0.07164  0.24524  1.0000
  C   C104      1.0  0.97748  0.18707  0.26428  1.0000
  H   H112      1.0  0.14198  0.97620  0.97569  1.0000
  C   C105      1.0  0.99712  0.08144  0.97531  1.0000
  C   C106      1.0  0.02466  0.97366  0.90132  1.0000
  H   H113      1.0  0.02607  0.10435  0.14237  1.0000
  C   C107      1.0  0.20943  0.17579  0.14389  1.0000
  H   H114      1.0  0.14255  0.96116  0.91904  1.0000
  Fe  Fe19      1.0  0.14299  0.09166  0.29680  1.0000
  C   C108      1.0  0.24941  0.12857  0.11371  1.0000
  H   H115      1.0  0.14835  0.02770  0.27020  1.0000
  S   S37       1.0  0.23591  0.05846  0.19791  1.0000
  S   S38       1.0  0.95939  0.10159  0.87700  1.0000
  H   H116      1.0  0.99683  0.09938  0.95835  1.0000
  H   H117      1.0  0.26434  0.03053  0.89419  1.0000
  H   H118      1.0  0.38822  0.99606  0.90854  1.0000
  H   H119      1.0  0.43265  0.96948  0.08496  1.0000
  H   H120      1.0  0.04247  0.03648  0.16856  1.0000
  C   C109      1.0  0.17209  0.09549  0.89762  1.0000
  C   C110      1.0  0.19331  0.10225  0.83557  1.0000
  C   C111      1.0  0.01161  0.94587  0.12355  1.0000
  H   H121      1.0  0.11075  0.18208  0.29672  1.0000
  S   S39       1.0  0.43247  0.01659  0.31022  1.0000
  C   C112      1.0  0.44457  0.97558  0.85926  1.0000
  C   C113      1.0  0.37365  0.18947  0.30497  1.0000
  Fe  Fe20      1.0  0.21038  0.19032  0.89380  1.0000
  H   H122      1.0  0.34232  0.94202  0.27140  1.0000
  H   H123      1.0  0.36252  0.08306  0.31166  1.0000
  C   C114      1.0  0.00723  0.99228  0.81706  1.0000
  H   H124      1.0  0.27550  0.00972  0.72325  1.0000
  C   C115      1.0  0.97083  0.15817  0.54771  1.0000
  H   H125      1.0  0.39548  0.95236  0.64757  1.0000
  S   S40       1.0  0.29744  0.16622  0.40320  1.0000
  C   C116      1.0  0.37765  0.17107  0.73094  1.0000
  H   H126      1.0  0.38233  0.09414  0.45857  1.0000
  N   N8        1.0  0.41884  0.12115  0.44696  1.0000
  H   H127      1.0  0.39247  0.99184  0.48389  1.0000
  S   S41       1.0  0.96468  0.97268  0.40838  1.0000
  H   H128      1.0  0.20857  0.95735  0.44638  1.0000
  C   C117      1.0  0.29320  0.99182  0.59777  1.0000
  H   H129      1.0  0.19760  0.14457  0.47709  1.0000
  C   C118      1.0  0.17221  0.98773  0.39490  1.0000
  C   C119      1.0  0.41242  0.95233  0.46093  1.0000
  S   S42       1.0  0.43114  0.94677  0.68619  1.0000
  C   C120      1.0  0.06499  0.17968  0.60045  1.0000
  C   C121      1.0  0.02271  0.99661  0.54685  1.0000
  C   C122      1.0  0.29783  0.01539  0.32766  1.0000
  C   C123      1.0  0.04276  0.09870  0.67533  1.0000
  H   H130      1.0  0.18669  0.94171  0.38371  1.0000
  H   H131      1.0  0.95320  0.03960  0.37370  1.0000
  Fe  Fe21      1.0  0.98945  0.07568  0.58524  1.0000
  Fe  Fe22      1.0  0.35577  0.08445  0.78725  1.0000
  C   C124      1.0  0.33188  0.15110  0.77146  1.0000
  C   C125      1.0  0.98386  0.13171  0.73349  1.0000
  H   H132      1.0  0.39486  0.11890  0.79534  1.0000
  S   S43       1.0  0.15115  0.01786  0.60559  1.0000
  H   H133      1.0  0.97986  0.15790  0.33260  1.0000
  H   H134      1.0  0.16249  0.99666  0.37894  1.0000
  C   C126      1.0  0.30872  0.07560  0.62560  1.0000
  S   S44       1.0  0.09455  0.09816  0.71657  1.0000
  S   S45       1.0  0.03352  0.03039  0.51606  1.0000
  C   C127      1.0  0.22892  0.07197  0.48273  1.0000
  S   S46       1.0  0.10712  0.05891  0.40361  1.0000
  C   C128      1.0  0.43466  0.01020  0.64871  1.0000
  C   C129      1.0  0.27385  0.99799  0.69626  1.0000
  H   H135      1.0  0.03262  0.95308  0.35674  1.0000
  N   N9        1.0  0.22238  0.10628  0.53118  1.0000
  H   H136      1.0  0.44006  0.08312  0.38854  1.0000
  S   S47       1.0  0.15096  0.09192  0.74344  1.0000
  C   C130      1.0  0.00211  0.97737  0.61659  1.0000
  H   H137      1.0  0.14416  0.16337  0.58398  1.0000
  H   H138      1.0  0.39373  0.13563  0.45725  1.0000
  Fe  Fe23      1.0  0.99977  0.03336  0.57227  1.0000
  C   C131      1.0  0.96133  0.10536  0.50208  1.0000
  C   C132      1.0  0.35205  0.00838  0.58942  1.0000
  Fe  Fe24      1.0  0.95236  0.03048  0.57114  1.0000
  H   H139      1.0  0.95147  0.95079  0.56765  1.0000
  C   C133      1.0  0.19801  0.96552  0.43230  1.0000
  C   C134      1.0  0.15253  0.04027  0.63850  1.0000
  C   C135      1.0  0.21908  0.12445  0.55655  1.0000
  H   H140      1.0  0.42384  0.15800  0.67814  1.0000
  H   H141      1.0  0.42196  0.05850  0.63288  1.0000
  N   N10       1.0  0.35774  0.16541  0.71727  1.0000
  H   H142      1.0  0.20143  0.07221  0.45116  1.0000
  H   H143      1.0  0.03554  0.95580  0.49112  1.0000
  Fe  Fe25      1.0  0.09408  0.12969  0.74491  1.0000
  H   H144      1.0  0.37542  0.96050  0.56322  1.0000
  C   C136      1.0  0.01254  0.05187  0.34872  1.0000
  C   C137      1.0  0.13422  0.12026  0.51794  1.0000
  C   C138      1.0  0.96722  0.16161  0.31708  1.0000
  S   S48       1.0  0.20484  0.00433  0.61437  1.0000
  C   C139      1.0  0.06160  0.12138  0.44236  1.0000
  Fe  Fe26      1.0  0.11551  0.09482  0.77426  1.0000
  C   C140      1.0  0.99852  0.99586  0.34560  1.0000
  C   C141      1.0  0.29473  0.06549  0.59487  1.0000
  H   H145      1.0  0.12676  0.07715  0.66500  1.0000
  C   C142      1.0  0.07271  0.04169  0.68677  1.0000
  C   C143      1.0  0.14858  0.15275  0.55705  1.0000
  H   H146      1.0  0.96571  0.11269  0.53614  1.0000
  H   H147      1.0  0.11032  0.13283  0.56886  1.0000
  H   H148      1.0  0.00183  0.11956  0.43107  1.0000
  S   S49       1.0  0.95634  0.00009  0.63608  1.0000
  H   H149      1.0  0.03719  0.07806  0.69418  1.0000
  C   C144      1.0  0.34982  0.09047  0.31452  1.0000
  H   H150      1.0  0.42843  0.99181  0.64568  1.0000
  S   S50       1.0  0.35887  0.00859  0.75627  1.0000
  C   C145      1.0  0.24979  0.97393  0.72502  1.0000
  H   H151      1.0  0.31005  0.99917  0.54710  1.0000
  C   C146      1.0  0.43116  0.04781  0.64168  1.0000
  C   C147      1.0  0.34677  0.17614  0.35575  1.0000
  S   S51       1.0  0.18127  0.95034  0.75807  1.0000
  H   H152      1.0  0.01965  0.09239  0.77861  1.0000
  S   S52       1.0  0.01074  0.18104  0.78904  1.0000
  Fe  Fe27      1.0  0.13063  0.04079  0.40735  1.0000
  N   N11       1.0  0.18977  0.13640  0.76902  1.0000
  C   C148      1.0  0.03298  0.10679  0.72274  1.0000
  H   H153      1.0  0.16307  0.11248  0.46687  1.0000
  H   H154      1.0  0.36296  0.03688  0.62561  1.0000
  S   S53       1.0  0.33521  0.97060  0.54912  1.0000
  C   C149      1.0  0.17325  0.15603  0.53153  1.0000
  C   C150      1.0  0.15910  0.12401  0.49087  1.0000
  H   H155      1.0  0.30544  0.07064  0.54023  1.0000
  C   C151      1.0  0.99057  0.11334  0.65447  1.0000
  C   C152      1.0  0.24261  0.08182  0.51393  1.0000
  H   H156      1.0  0.99063  0.10056  0.35745  1.0000
  C   C153      1.0  0.39361  0.97479  0.51005  1.0000
  C   C154      1.0  0.12932  0.13533  0.54880  1.0000
  H   H157      1.0  0.19623  0.10297  0.49320  1.0000
  S   S54       1.0  0.11819  0.12896  0.79323  1.0000
  C   C155      1.0  0.43662  0.05414  0.35310  1.0000
  H   H158      1.0  0.06563  0.08831  0.47969  1.0000
  H   H159      1.0  0.97287  0.02640  0.43977  1.0000
  C   C156      1.0  0.19815  0.15743  0.70158  1.0000
  H   H160      1.0  0.07104  0.00463  0.54124  1.0000
  H   H161      1.0  0.99296  0.98340  0.65178  1.0000
  C   C157      1.0  0.07101  0.99984  0.71024  1.0000
  H   H162      1.0  0.33875  0.16185  0.40941  1.0000
  S   S55       1.0  0.38689  0.07537  0.76755  1.0000
  C   C158      1.0  0.09565  0.99339  0.36147  1.0000
  C   C159      1.0  0.13805  0.05179  0.63601  1.0000
  C   C160      1.0  0.94890  0.08456  0.41920  1.0000
  S   S56       1.0  0.00407  0.11746  0.56913  1.0000
  C   C161      1.0  0.32942  0.11190  0.35898  1.0000
  H   H163      1.0  0.31417  0.02634  0.60811  1.0000
  C   C162      1.0  0.07061  0.00293  0.58941  1.0000
  C   C163      1.0  0.98540  0.04097  0.38395  1.0000
  H   H164      1.0  0.40698  0.01619  0.62779  1.0000
  H   H165      1.0  0.27654  0.94646  0.38153  1.0000
  C   C164      1.0  0.01650  0.00033  0.36812  1.0000
  C   C165      1.0  0.99382  0.95039  0.64143  1.0000
  H   H166      1.0  0.23436  0.14564  0.51415  1.0000
  C   C166      1.0  0.09338  0.94641  0.37303  1.0000
  S   S57       1.0  0.10046  0.16872  0.68141  1.0000
  Fe  Fe28      1.0  0.35938  0.09067  0.64895  1.0000
  C   C167      1.0  0.20194  0.12289  0.77122  1.0000
  H   H167      1.0  0.18798  0.01741  0.48747  1.0000
  C   C168      1.0  0.35223  0.99855  0.69794  1.0000
  C   C169      1.0  0.06002  0.11737  0.60364  1.0000
  H   H168      1.0  0.10032  0.95160  0.57372  1.0000
  S   S58       1.0  0.33365  0.05538  0.75842  1.0000
  H   H169      1.0  0.09627  0.01142  0.35735  1.0000
  H   H170      1.0  0.05687  0.04466  0.68742  1.0000
  C   C170      1.0  0.37199  0.16306  0.80015  1.0000
  H   H171      1.0  0.31599  0.14617  0.76096  1.0000
  C   C171      1.0  0.29975  0.11889  0.32530  1.0000
  H   H172      1.0  0.07158  0.99866  0.75705  1.0000
  C   C172      1.0  0.29560  0.00728  0.63169  1.0000
  S   S59       1.0  0.38228  0.04058  0.31454  1.0000
  Fe  Fe29      1.0  0.40904  0.11001  0.65930  1.0000
  C   C173      1.0  0.38030  0.95589  0.44005  1.0000
  H   H173      1.0  0.27793  0.00164  0.49678  1.0000
  C   C174      1.0  0.23931  0.09930  0.53730  1.0000
  H   H174      1.0  0.06926  0.96636  0.61701  1.0000
  C   C175      1.0  0.16762  0.06266  0.69968  1.0000
  S   S60       1.0  0.14569  0.94956  0.68513  1.0000
  C   C176      1.0  0.96606  0.08416  0.78124  1.0000
  C   C177      1.0  0.42556  0.15813  0.46939  1.0000
  N   N12       1.0  0.00077  0.18786  0.42263  1.0000
  H   H175      1.0  0.00040  0.99948  0.78461  1.0000
  C   C178      1.0  0.99435  0.13537  0.66486  1.0000
  C   C179      1.0  0.44176  0.03448  0.35227  1.0000
  S   S61       1.0  0.15474  0.98485  0.76531  1.0000
  C   C180      1.0  0.95046  0.15940  0.54267  1.0000
  N   N13       1.0  0.07120  0.02053  0.66897  1.0000
  C   C181      1.0  0.97441  0.04833  0.34671  1.0000
  H   H176      1.0  0.05399  0.08659  0.36352  1.0000
  C   C182      1.0  0.34218  0.98166  0.60531  1.0000
  C   C183      1.0  0.08744  0.18006  0.73705  1.0000
  S   S62       1.0  0.94559  0.04626  0.64595  1.0000
  H   H177      1.0  0.21811  0.12774  0.72312  1.0000
  H   H178      1.0  0.33976  0.95792  0.75943  1.0000
  C   C184      1.0  0.07439  0.14782  0.39054  1.0000
  C   C185      1.0  0.33758  0.96353  0.66692  1.0000
  H   H179      1.0  0.20099  0.17585  0.70462  1.0000
  C   C186      1.0  0.02615  0.96175  0.52617  1.0000
  S   S63       1.0  0.99581  0.06274  0.50350  1.0000
  Fe  Fe30      1.0  0.19560  0.99350  0.72486  1.0000
  H   H180      1.0  0.01177  0.17151  0.49116  1.0000
  C   C187      1.0  0.44340  0.06747  0.38961  1.0000
  H   H181      1.0  0.04097  0.11034  0.48337  1.0000
  Fe  Fe31      1.0  0.36712  0.04981  0.72832  1.0000
  C   C188      1.0  0.20934  0.09718  0.49926  1.0000
  C   C189      1.0  0.21224  0.07974  0.47517  1.0000
  C   C190      1.0  0.08705  0.98132  0.32434  1.0000
  Fe  Fe32      1.0  0.35029  0.00798  0.31511  1.0000
  S   S64       1.0  0.21890  0.01601  0.76415  1.0000
  H   H182      1.0  0.21704  0.16335  0.65738  1.0000
  H   H183      1.0  0.09219  0.06083  0.64708  1.0000
  S   S65       1.0  0.37883  0.12043  0.68023  1.0000
  H   H184      1.0  0.02123  0.04611  0.37725  1.0000
  C   C191      1.0  0.07001  0.97982  0.69280  1.0000
  H   H185      1.0  0.30542  0.07722  0.71957  1.0000
  C   C192      1.0  0.24819  0.95884  0.69002  1.0000
  H   H186      1.0  0.18036  0.03886  0.66703  1.0000
  C   C193      1.0  0.16793  0.04640  0.66854  1.0000
  N   N14       1.0  0.39583  0.96103  0.46845  1.0000
  C   C194      1.0  0.97525  0.09854  0.40178  1.0000
  S   S66       1.0  0.24959  0.18470  0.37409  1.0000
  C   C195      1.0  0.34302  0.97202  0.71257  1.0000
  H   H187      1.0  0.06836  0.11139  0.56687  1.0000
  S   S67       1.0  0.99694  0.04877  0.64899  1.0000
  C   C196      1.0  0.26690  0.04761  0.63590  1.0000
  S   S68       1.0  0.25423  0.04736  0.34899  1.0000
  C   C197      1.0  0.08594  0.95779  0.33004  1.0000
  H   H188      1.0  0.25622  0.03893  0.61302  1.0000
  H   H189      1.0  0.16341  0.96158  0.35007  1.0000
  Fe  Fe33      1.0  0.95292  0.01849  0.70722  1.0000
  Fe  Fe34      1.0  0.16289  0.99283  0.65731  1.0000
  H   H190      1.0  0.28759  0.95632  0.55576  1.0000
  C   C198      1.0  0.13772  0.06806  0.66734  1.0000
  H   H191      1.0  0.20682  0.99202  0.47520  1.0000
  C   C199      1.0  0.36397  0.17355  0.64450  1.0000
  H   H192      1.0  0.96726  0.14641  0.59857  1.0000
  H   H193      1.0  0.22084  0.12139  0.60355  1.0000
  C   C200      1.0  0.18374  0.01721  0.44520  1.0000
  H   H194      1.0  0.23124  0.05843  0.46423  1.0000
  H   H195      1.0  0.35584  0.02255  0.54136  1.0000
  C   C201      1.0  0.29480  0.06887  0.69620  1.0000
  H   H196      1.0  0.25039  0.10729  0.56028  1.0000
  H   H197      1.0  0.35046  0.17881  0.63580  1.0000
  C   C202      1.0  0.34601  0.10267  0.35584  1.0000
  C   C203      1.0  0.26786  0.02240  0.43237  1.0000
  S   S69       1.0  0.34358  0.09546  0.57720  1.0000
  H   H198      1.0  0.36733  0.96302  0.44543  1.0000
  C   C204      1.0  0.04060  0.13358  0.69756  1.0000
  H   H199      1.0  0.18266  0.15000  0.68833  1.0000
  H   H200      1.0  0.36189  0.15687  0.63302  1.0000
  C   C205      1.0  0.17869  0.14215  0.49687  1.0000
  C   C206      1.0  0.07095  0.02223  0.60926  1.0000
  C   C207      1.0  0.06715  0.14398  0.58010  1.0000
  C   C208      1.0  0.42257  0.02381  0.63885  1.0000
  H   H201      1.0  0.40135  0.08063  0.46718  1.0000
  C   C209      1.0  0.40293  0.09924  0.43769  1.0000
  S   S70       1.0  0.19677  0.17696  0.54488  1.0000
  H   H202      1.0  0.25616  0.02489  0.47318  1.0000
  C   C210      1.0  0.97038  0.10622  0.79151  1.0000
  C   C211      1.0  0.19689  0.98517  0.44865  1.0000
  H   H203      1.0  0.06951  0.96327  0.72622  1.0000
  H   H204      1.0  0.42788  0.05942  0.32460  1.0000
  H   H205      1.0  0.08094  0.15854  0.52435  1.0000
  H   H206      1.0  0.12692  0.04793  0.61053  1.0000
  H   H207      1.0  0.19905  0.12061  0.57324  1.0000
  H   H208      1.0  0.07116  0.03867  0.57636  1.0000
  H   H209      1.0  0.25644  0.04600  0.79167  1.0000
  S   S71       1.0  0.20447  0.94552  0.58191  1.0000
  C   C212      1.0  0.15201  0.07297  0.70050  1.0000
  H   H210      1.0  0.02741  0.18949  0.33374  1.0000
  C   C213      1.0  0.10356  0.98220  0.40335  1.0000
  H   H211      1.0  0.28099  0.10369  0.33263  1.0000
  H   H212      1.0  0.25567  0.07595  0.52004  1.0000
  C   C214      1.0  0.06985  0.98149  0.63183  1.0000
  H   H213      1.0  0.00039  0.95610  0.32776  1.0000
  H   H214      1.0  0.03327  0.13984  0.73489  1.0000
  C   C215      1.0  0.35641  0.01663  0.63667  1.0000
  S   S72       1.0  0.39204  0.08377  0.61768  1.0000
  C   C216      1.0  0.26708  0.05137  0.73679  1.0000
  C   C217      1.0  0.25313  0.04028  0.70721  1.0000
  H   H215      1.0  0.25859  0.95477  0.56289  1.0000
  Fe  Fe35      1.0  0.18699  0.96013  0.65088  1.0000
  Fe  Fe36      1.0  0.18130  0.09478  0.34635  1.0000
  C   C218      1.0  0.18573  0.95677  0.39720  1.0000
  H   H216      1.0  0.97241  0.07055  0.70588  1.0000
  C   C219      1.0  0.00571  0.94255  0.59614  1.0000
  H   H217      1.0  0.07075  0.03703  0.73883  1.0000
  C   C220      1.0  0.03495  0.98888  0.50192  1.0000
  H   H218      1.0  0.17920  0.06694  0.72394  1.0000
  H   H219      1.0  0.32656  0.12136  0.39119  1.0000
  C   C221      1.0  0.29498  0.00544  0.39351  1.0000
  C   C222      1.0  0.97590  0.08770  0.71298  1.0000
  N   N15       1.0  0.26997  0.96753  0.62828  1.0000
  C   C223      1.0  0.26786  0.95119  0.59331  1.0000
  H   H220      1.0  0.16391  0.01412  0.46377  1.0000
  S   S73       1.0  0.10896  0.09587  0.51606  1.0000
  C   C224      1.0  0.28007  0.00908  0.44589  1.0000
  N   N16       1.0  0.05719  0.15167  0.62686  1.0000
  C   C225      1.0  0.27020  0.03170  0.36684  1.0000
  H   H221      1.0  0.98647  0.14867  0.74130  1.0000
  H   H222      1.0  0.29416  0.12307  0.36994  1.0000
  S   S74       1.0  0.14847  0.06256  0.45703  1.0000
  S   S75       1.0  0.30977  0.98815  0.40941  1.0000
  H   H223      1.0  0.00558  0.15529  0.62005  1.0000
  H   H224      1.0  0.41099  0.98326  0.51584  1.0000
  H   H225      1.0  0.10898  0.95026  0.44013  1.0000
  S   S76       1.0  0.11546  0.99686  0.44892  1.0000
  C   C226      1.0  0.41118  0.13792  0.45743  1.0000
  H   H226      1.0  0.11247  0.11369  0.38501  1.0000
  H   H227      1.0  0.41233  0.10514  0.38090  1.0000
  Fe  Fe37      1.0  0.12790  0.08337  0.44367  1.0000
  C   C227      1.0  0.07541  0.10906  0.44051  1.0000
  C   C228      1.0  0.98150  0.10913  0.44334  1.0000
  N   N17       1.0  0.18395  0.99588  0.43033  1.0000
  Fe  Fe38      1.0  0.14102  0.94262  0.79027  1.0000
  H   H228      1.0  0.05123  0.00385  0.44839  1.0000
  H   H229      1.0  0.19901  0.03714  0.39675  1.0000
  H   H230      1.0  0.38776  0.16766  0.81113  1.0000
  H   H231      1.0  0.41896  0.17086  0.47973  1.0000
  C   C229      1.0  0.10247  0.95875  0.40886  1.0000
  C   C230      1.0  0.99596  0.17237  0.48666  1.0000
  C   C231      1.0  0.10201  0.12352  0.38675  1.0000
  H   H232      1.0  0.42462  0.95625  0.48370  1.0000
  C   C232      1.0  0.17271  0.96790  0.37836  1.0000
  H   H233      1.0  0.00933  0.98998  0.42365  1.0000
  H   H234      1.0  0.17309  0.18768  0.39477  1.0000
  H   H235      1.0  0.35582  0.10496  0.38521  1.0000
  S   S77       1.0  0.16222  0.11715  0.33682  1.0000
  C   C233      1.0  0.33054  0.18200  0.33780  1.0000
  H   H236      1.0  0.09062  0.08016  0.32353  1.0000
  C   C234      1.0  0.28540  0.02833  0.31455  1.0000
  H   H237      1.0  0.05451  0.18296  0.64308  1.0000
  H   H238      1.0  0.06023  0.18539  0.55947  1.0000
  H   H239      1.0  0.05776  0.02214  0.33612  1.0000
  C   C235      1.0  0.95548  0.17493  0.47704  1.0000
  H   H240      1.0  0.38593  0.18480  0.31919  1.0000
  H   H241      1.0  0.06367  0.15741  0.39111  1.0000
  H   H242      1.0  0.32999  0.94298  0.67911  1.0000
  C   C236      1.0  0.04380  0.01859  0.31890  1.0000
  H   H243      1.0  0.99669  0.95615  0.80842  1.0000
  C   C237      1.0  0.07685  0.16628  0.80965  1.0000
  H   H244      1.0  0.39805  0.18188  0.68820  1.0000
  S   S78       1.0  0.22685  0.18881  0.79403  1.0000
  C   C238      1.0  0.31096  0.94737  0.32017  1.0000
  N   N18       1.0  0.31687  0.10891  0.32231  1.0000
  H   H245      1.0  0.23248  0.96714  0.77380  1.0000
  C   C239      1.0  0.44148  0.12483  0.44451  1.0000
  C   C240      1.0  0.38124  0.94177  0.40270  1.0000
  C   C241      1.0  0.98091  0.18918  0.41727  1.0000
  H   H246      1.0  0.44406  0.08290  0.69213  1.0000
  H   H247      1.0  0.39054  0.96281  0.80590  1.0000
  H   H248      1.0  0.42942  0.99461  0.81036  1.0000
  C   C242      1.0  0.10095  0.16156  0.33696  1.0000
  N   N19       1.0  0.11446  0.14939  0.33593  1.0000
  H   H249      1.0  0.38821  0.26076  0.99869  1.0000
  C   C243      1.0  0.34098  0.20054  0.26853  1.0000
  C   C244      1.0  0.36321  0.44034  0.91292  1.0000
  C   C245      1.0  0.34798  0.22600  0.05947  1.0000
  C   C246      1.0  0.12185  0.40949  0.26009  1.0000
  C   C247      1.0  0.21414  0.30236  0.03691  1.0000
  S   S79       1.0  0.39055  0.31003  0.96460  1.0000
  H   H250      1.0  0.09850  0.41158  0.06213  1.0000
  H   H251      1.0  0.42357  0.42976  0.01535  1.0000
  C   C248      1.0  0.18155  0.38156  0.82044  1.0000
  H   H252      1.0  0.41512  0.30718  0.11089  1.0000
  S   S80       1.0  0.12855  0.42978  0.29948  1.0000
  C   C249      1.0  0.29755  0.30866  0.88888  1.0000
  H   H253      1.0  0.26092  0.23480  0.10014  1.0000
  C   C250      1.0  0.10156  0.20985  0.89325  1.0000
  C   C251      1.0  0.40202  0.19642  0.07635  1.0000
  H   H254      1.0  0.21737  0.31495  0.82090  1.0000
  H   H255      1.0  0.11877  0.34885  0.01973  1.0000
  C   C252      1.0  0.37452  0.24207  0.00399  1.0000
  C   C253      1.0  0.33065  0.20114  0.06813  1.0000
  Fe  Fe39      1.0  0.14621  0.28789  0.21968  1.0000
  C   C254      1.0  0.06253  0.19571  0.82647  1.0000
  S   S81       1.0  0.29189  0.37709  0.84416  1.0000
  H   H256      1.0  0.29904  0.36347  0.97102  1.0000
  H   H257      1.0  0.40432  0.24551  0.91539  1.0000
  Fe  Fe40      1.0  0.00689  0.28744  0.28904  1.0000
  H   H258      1.0  0.40966  0.38465  0.02648  1.0000
  H   H259      1.0  0.20610  0.26023  0.96819  1.0000
  C   C255      1.0  0.33961  0.19292  0.01967  1.0000
  H   H260      1.0  0.37583  0.22809  0.16397  1.0000
  S   S82       1.0  0.36383  0.30711  0.11635  1.0000
  C   C256      1.0  0.94896  0.19561  0.08462  1.0000
  C   C257      1.0  0.10450  0.31114  0.10448  1.0000
  C   C258      1.0  0.37395  0.37763  0.25288  1.0000
  C   C259      1.0  0.97970  0.28588  0.02537  1.0000
  C   C260      1.0  0.07432  0.30259  0.81689  1.0000
  C   C261      1.0  0.43018  0.39919  0.00669  1.0000
  C   C262      1.0  0.21090  0.27988  0.02983  1.0000
  C   C263      1.0  0.07877  0.27174  0.09938  1.0000
  S   S83       1.0  0.38091  0.35716  0.97173  1.0000
  C   C264      1.0  0.29276  0.35590  0.02608  1.0000
  H   H261      1.0  0.25609  0.19734  0.18450  1.0000
  C   C265      1.0  0.43803  0.42466  0.00083  1.0000
  C   C266      1.0  0.09730  0.39752  0.26550  1.0000
  H   H262      1.0  0.08029  0.19902  0.92866  1.0000
  S   S84       1.0  0.01962  0.30632  0.04909  1.0000
  S   S85       1.0  0.43988  0.36086  0.99456  1.0000
  S   S86       1.0  0.00592  0.37104  0.23462  1.0000
  N   N20       1.0  0.22998  0.19362  0.14562  1.0000
  H   H263      1.0  0.06785  0.25010  0.12133  1.0000
  S   S87       1.0  0.41849  0.22693  0.17297  1.0000
  H   H264      1.0  0.97508  0.25688  0.18059  1.0000
  H   H265      1.0  0.32572  0.35239  0.01251  1.0000
  C   C267      1.0  0.41813  0.43084  0.83284  1.0000
  H   H266      1.0  0.02342  0.40230  0.82724  1.0000
  H   H267      1.0  0.19400  0.24983  0.20412  1.0000
  H   H268      1.0  0.96915  0.21133  0.20258  1.0000
  C   C268      1.0  0.11336  0.19540  0.88967  1.0000
  H   H269      1.0  0.94809  0.27085  0.00554  1.0000
  H   H270      1.0  0.21657  0.33926  0.99487  1.0000
  C   C269      1.0  0.14553  0.28995  0.97392  1.0000
  S   S88       1.0  0.33574  0.23643  0.11834  1.0000
  H   H271      1.0  0.31694  0.32636  0.29380  1.0000
  C   C270      1.0  0.29994  0.34021  0.12064  1.0000
  Fe  Fe41      1.0  0.35273  0.28074  0.06913  1.0000
  C   C271      1.0  0.32210  0.31943  0.88409  1.0000
  C   C272      1.0  0.97220  0.38765  0.15688  1.0000
  H   H272      1.0  0.07884  0.42822  0.18165  1.0000
  C   C273      1.0  0.21324  0.31973  0.93180  1.0000
  H   H273      1.0  0.28294  0.31149  0.91997  1.0000
  C   C274      1.0  0.13626  0.26277  0.00801  1.0000
  H   H274      1.0  0.15065  0.39401  0.99083  1.0000
  C   C275      1.0  0.09527  0.42800  0.05890  1.0000
  H   H275      1.0  0.21559  0.30431  0.08061  1.0000
  C   C276      1.0  0.26950  0.35214  0.07404  1.0000
  H   H276      1.0  0.20989  0.26418  0.06801  1.0000
  H   H277      1.0  0.14609  0.29840  0.92549  1.0000
  H   H278      1.0  0.20261  0.37344  0.02483  1.0000
  S   S89       1.0  0.31891  0.33323  0.15091  1.0000
  H   H279      1.0  0.41395  0.40300  0.22775  1.0000
  C   C277      1.0  0.29191  0.29425  0.85364  1.0000
  Fe  Fe42      1.0  0.34414  0.32483  0.07805  1.0000
  H   H280      1.0  0.32830  0.20470  0.25420  1.0000
  C   C278      1.0  0.22336  0.40283  0.22873  1.0000
  C   C279      1.0  0.34130  0.31651  0.84225  1.0000
  H   H281      1.0  0.96752  0.40096  0.12929  1.0000
  C   C280      1.0  0.23370  0.23427  0.24387  1.0000
  S   S90       1.0  0.21194  0.22753  0.84408  1.0000
  H   H282      1.0  0.08530  0.24112  0.90819  1.0000
  C   C281      1.0  0.41417  0.28977  0.10490  1.0000
  S   S91       1.0  0.03126  0.32675  0.28158  1.0000
  H   H283      1.0  0.35384  0.33144  0.20239  1.0000
  C   C282      1.0  0.15107  0.29461  0.06863  1.0000
  C   C283      1.0  0.42300  0.19360  0.06798  1.0000
  Fe  Fe43      1.0  0.39981  0.33795  0.00867  1.0000
  S   S92       1.0  0.17670  0.28479  0.23874  1.0000
  H   H284      1.0  0.21345  0.33510  0.89501  1.0000
  Fe  Fe44      1.0  0.06298  0.33725  0.17834  1.0000
  H   H285      1.0  0.32979  0.19489  0.84544  1.0000
  N   N21       1.0  0.30006  0.42094  0.10506  1.0000
  C   C284      1.0  0.29804  0.40264  0.16542  1.0000
  C   C285      1.0  0.41098  0.37685  0.18221  1.0000
  C   C286      1.0  0.27677  0.33663  0.16845  1.0000
  H   H286      1.0  0.95875  0.37826  0.21463  1.0000
  H   H287      1.0  0.11696  0.27217  0.84816  1.0000
  C   C287      1.0  0.30479  0.19448  0.93667  1.0000
  C   C288      1.0  0.19812  0.38832  0.00925  1.0000
  C   C289      1.0  0.05771  0.30988  0.84971  1.0000
  C   C290      1.0  0.13563  0.25184  0.07032  1.0000
  C   C291      1.0  0.09252  0.38327  0.22923  1.0000
  S   S93       1.0  0.37233  0.33042  0.83407  1.0000
  S   S94       1.0  0.14574  0.43554  0.90254  1.0000
  N   N22       1.0  0.20957  0.43369  0.97139  1.0000
  H   H288      1.0  0.04919  0.25579  0.04666  1.0000
  Fe  Fe45      1.0  0.25257  0.24950  0.82657  1.0000
  H   H289      1.0  0.08234  0.40023  0.29524  1.0000
  C   C292      1.0  0.20410  0.35495  0.27333  1.0000
  H   H290      1.0  0.39925  0.41300  0.85161  1.0000
  C   C293      1.0  0.36600  0.20915  0.96368  1.0000
  C   C294      1.0  0.06880  0.27499  0.00620  1.0000
  H   H291      1.0  0.36625  0.38601  0.28287  1.0000
  H   H292      1.0  0.02465  0.31293  0.86225  1.0000
  C   C295      1.0  0.32778  0.20642  0.87192  1.0000
  H   H293      1.0  0.39990  0.28207  0.08804  1.0000
  C   C296      1.0  0.98673  0.34531  0.08368  1.0000
  H   H294      1.0  0.15035  0.19855  0.84117  1.0000
  S   S95       1.0  0.04910  0.35482  0.11516  1.0000
  H   H295      1.0  0.34054  0.26718  0.96298  1.0000
  S   S96       1.0  0.24966  0.21200  0.88394  1.0000
  H   H296      1.0  0.09889  0.32760  0.96142  1.0000
  H   H297      1.0  0.08856  0.27079  0.17960  1.0000
  H   H298      1.0  0.03721  0.40965  0.91100  1.0000
  H   H299      1.0  0.21801  0.28556  0.84667  1.0000
  C   C297      1.0  0.18055  0.21782  0.30274  1.0000
  H   H300      1.0  0.31099  0.26096  0.96199  1.0000
  H   H301      1.0  0.00913  0.37863  0.09496  1.0000
  C   C298      1.0  0.20242  0.35716  0.21386  1.0000
  H   H302      1.0  0.40118  0.21196  0.08742  1.0000
  H   H303      1.0  0.15938  0.32679  0.97912  1.0000
  H   H304      1.0  0.23395  0.42102  0.98822  1.0000
  H   H305      1.0  0.40602  0.27315  0.15723  1.0000
  S   S97       1.0  0.95424  0.30777  0.83322  1.0000
  H   H306      1.0  0.07433  0.37587  0.22949  1.0000
  C   C299      1.0  0.32932  0.34802  0.27787  1.0000
  C   C300      1.0  0.30278  0.20951  0.97081  1.0000
  C   C301      1.0  0.96912  0.25992  0.14261  1.0000
  S   S98       1.0  0.00520  0.34685  0.83749  1.0000
  S   S99       1.0  0.98606  0.20880  0.86892  1.0000
  H   H307      1.0  0.24115  0.26423  0.15142  1.0000
  N   N23       1.0  0.11661  0.23730  0.85318  1.0000
  C   C302      1.0  0.14078  0.20930  0.84492  1.0000
  S   S100      1.0  0.10575  0.36106  0.14643  1.0000
  H   H308      1.0  0.06974  0.35501  0.93762  1.0000
  C   C303      1.0  0.96106  0.19183  0.24456  1.0000
  S   S101      1.0  0.30698  0.42768  0.87732  1.0000
  N   N24       1.0  0.44066  0.29807  0.05303  1.0000
  S   S102      1.0  0.30979  0.23840  0.29494  1.0000
  H   H309      1.0  0.16119  0.36008  0.02427  1.0000
  Fe  Fe46      1.0  0.16214  0.42399  0.82363  1.0000
  H   H310      1.0  0.23150  0.42043  0.23449  1.0000
  C   C304      1.0  0.32069  0.25124  0.97717  1.0000
  S   S103      1.0  0.98858  0.30177  0.23547  1.0000
  S   S104      1.0  0.06944  0.20066  0.17661  1.0000
  C   C305      1.0  0.21561  0.41516  0.98914  1.0000
  C   C306      1.0  0.23992  0.23011  0.04598  1.0000
  H   H311      1.0  0.30745  0.39228  0.14835  1.0000
  C   C307      1.0  0.39395  0.35661  0.17529  1.0000
  H   H312      1.0  0.26704  0.42077  0.02040  1.0000
  H   H313      1.0  0.36159  0.26863  0.85292  1.0000
  C   C308      1.0  0.36707  0.34727  0.20755  1.0000
  C   C309      1.0  0.28262  0.42844  0.03148  1.0000
  Fe  Fe47      1.0  0.96386  0.33672  0.87456  1.0000
  Fe  Fe48      1.0  0.44367  0.22804  0.21966  1.0000
  C   C310      1.0  0.26133  0.34220  0.14539  1.0000
  H   H314      1.0  0.32663  0.35967  0.23866  1.0000
  H   H315      1.0  0.35015  0.27356  0.30062  1.0000
  S   S105      1.0  0.03989  0.29621  0.19023  1.0000
  C   C311      1.0  0.07885  0.43701  0.83081  1.0000
  N   N25       1.0  0.08119  0.28755  0.03991  1.0000
  C   C312      1.0  0.40096  0.38745  0.22140  1.0000
  C   C313      1.0  0.97476  0.21805  0.03312  1.0000
  H   H316      1.0  0.11358  0.32033  0.12986  1.0000
  C   C314      1.0  0.38442  0.20866  0.23609  1.0000
  C   C315      1.0  0.40481  0.32084  0.28598  1.0000
  H   H317      1.0  0.97059  0.38463  0.30242  1.0000
  C   C316      1.0  0.34828  0.23322  0.84171  1.0000
  N   N26       1.0  0.35738  0.35758  0.24633  1.0000
  H   H318      1.0  0.10909  0.36366  0.84999  1.0000
  C   C317      1.0  0.95395  0.26752  0.04377  1.0000
  Fe  Fe49      1.0  0.02309  0.31296  0.13618  1.0000
  C   C318      1.0  0.09029  0.28326  0.13275  1.0000
  C   C319      1.0  0.21513  0.32230  0.98797  1.0000
  S   S106      1.0  0.12356  0.24178  0.97611  1.0000
  Fe  Fe50      1.0  0.27222  0.22842  0.29580  1.0000
  Fe  Fe51      1.0  0.08333  0.20660  0.06683  1.0000
  S   S107      1.0  0.13302  0.29941  0.30215  1.0000
  Fe  Fe52      1.0  0.03250  0.19441  0.18018  1.0000
  C   C320      1.0  0.21133  0.38212  0.16177  1.0000
  S   S108      1.0  0.04421  0.20338  0.88327  1.0000
  S   S109      1.0  0.32986  0.29578  0.03981  1.0000
  H   H319      1.0  0.21004  0.38358  0.11600  1.0000
  C   C321      1.0  0.38939  0.30105  0.27479  1.0000
  H   H320      1.0  0.15089  0.38810  0.15734  1.0000
  H   H321      1.0  0.95934  0.31259  0.07875  1.0000
  H   H322      1.0  0.27056  0.32918  0.22339  1.0000
  H   H323      1.0  0.32641  0.33053  0.91148  1.0000
  C   C322      1.0  0.36786  0.21368  0.21745  1.0000
  H   H324      1.0  0.14289  0.25944  0.14825  1.0000
  H   H325      1.0  0.34899  0.42811  0.96918  1.0000
  C   C323      1.0  0.98727  0.28229  0.07482  1.0000
  C   C324      1.0  0.21504  0.37790  0.28023  1.0000
  H   H326      1.0  0.21504  0.21906  0.00328  1.0000
  H   H327      1.0  0.12910  0.23097  0.09561  1.0000
  S   S110      1.0  0.26656  0.24330  0.20678  1.0000
  C   C325      1.0  0.11165  0.37957  0.19059  1.0000
  C   C326      1.0  0.14108  0.40589  0.22133  1.0000
  H   H328      1.0  0.02471  0.24181  0.90408  1.0000
  H   H329      1.0  0.19441  0.33965  0.20751  1.0000
  H   H330      1.0  0.43865  0.31680  0.96502  1.0000
  H   H331      1.0  0.10061  0.43983  0.00428  1.0000
  H   H332      1.0  0.15918  0.34293  0.82883  1.0000
  S   S111      1.0  0.04751  0.20355  0.06823  1.0000
  C   C327      1.0  0.28058  0.41163  0.09033  1.0000
  H   H333      1.0  0.27692  0.38731  0.20845  1.0000
  H   H334      1.0  0.39869  0.29528  0.23913  1.0000
  C   C328      1.0  0.19971  0.23949  0.23429  1.0000
  H   H335      1.0  0.08208  0.27120  0.97123  1.0000
  C   C329      1.0  0.02227  0.23875  0.95605  1.0000
  N   N27       1.0  0.96884  0.36674  0.13646  1.0000
  H   H336      1.0  0.99277  0.40043  0.14436  1.0000
  C   C330      1.0  0.16889  0.39981  0.99044  1.0000
  H   H337      1.0  0.06513  0.28821  0.97397  1.0000
  H   H338      1.0  0.09847  0.25424  0.81515  1.0000
  H   H339      1.0  0.25197  0.25145  0.00800  1.0000
  C   C331      1.0  0.21916  0.21201  0.04350  1.0000
  C   C332      1.0  0.03688  0.30645  0.83898  1.0000
  C   C333      1.0  0.14322  0.26784  0.10038  1.0000
  C   C334      1.0  0.98983  0.36490  0.10459  1.0000
  H   H340      1.0  0.00343  0.34406  0.05762  1.0000
  H   H341      1.0  0.24320  0.33905  0.18267  1.0000
  H   H342      1.0  0.30915  0.23829  0.03549  1.0000
  S   S112      1.0  0.37680  0.19821  0.90458  1.0000
  C   C335      1.0  0.18657  0.42633  0.97182  1.0000
  H   H343      1.0  0.18657  0.28243  0.88455  1.0000
  N   N28       1.0  0.99563  0.21525  0.01225  1.0000
  C   C336      1.0  0.34556  0.24774  0.87689  1.0000
  C   C337      1.0  0.22629  0.24752  0.20445  1.0000
  S   S113      1.0  0.01117  0.21230  0.22108  1.0000
  C   C338      1.0  0.17475  0.38073  0.00933  1.0000
  S   S114      1.0  0.26120  0.28089  0.86014  1.0000
  S   S115      1.0  0.15757  0.31361  0.11050  1.0000
  H   H344      1.0  0.99351  0.30332  0.97331  1.0000
  C   C339      1.0  0.10750  0.32715  0.04268  1.0000
  Fe  Fe53      1.0  0.36837  0.32638  0.93690  1.0000
  H   H345      1.0  0.43845  0.20672  0.07377  1.0000
  C   C340      1.0  0.09595  0.31497  0.01031  1.0000
  S   S116      1.0  0.25058  0.36030  0.04610  1.0000
  Fe  Fe54      1.0  0.27269  0.38533  0.92885  1.0000
  C   C341      1.0  0.30783  0.34962  0.04955  1.0000
  H   H346      1.0  0.97795  0.23764  0.00929  1.0000
  C   C342      1.0  0.96198  0.32750  0.09601  1.0000
  H   H347      1.0  0.26329  0.39106  0.12398  1.0000
  H   H348      1.0  0.43181  0.38404  0.15775  1.0000
  N   N29       1.0  0.21052  0.29785  0.92449  1.0000
  H   H349      1.0  0.04631  0.35703  0.91649  1.0000
  C   C343      1.0  0.20881  0.27781  0.97334  1.0000
  H   H350      1.0  0.03790  0.23601  0.95845  1.0000
  C   C344      1.0  0.10377  0.25200  0.85605  1.0000
  C   C345      1.0  0.38359  0.23351  0.95656  1.0000
  S   S117      1.0  0.43926  0.33716  0.23839  1.0000
  H   H351      1.0  0.02552  0.25710  0.95986  1.0000
  S   S118      1.0  0.08920  0.43896  0.89058  1.0000
  N   N30       1.0  0.32319  0.23568  0.94118  1.0000
  C   C346      1.0  0.22138  0.40493  0.16955  1.0000
  C   C347      1.0  0.13596  0.39090  0.18690  1.0000
  C   C348      1.0  0.15289  0.30592  0.00442  1.0000
  S   S119      1.0  0.11407  0.24373  0.29201  1.0000
  Fe  Fe55      1.0  0.01616  0.34217  0.21921  1.0000
  N   N31       1.0  0.08387  0.37335  0.82748  1.0000
  S   S120      1.0  0.15345  0.38233  0.85937  1.0000
  C   C349      1.0  0.24498  0.22053  0.09798  1.0000
  H   H352      1.0  0.15988  0.41446  0.21829  1.0000
  H   H353      1.0  0.40152  0.34808  0.14547  1.0000
  H   H354      1.0  0.28508  0.19992  0.02184  1.0000
  S   S121      1.0  0.25200  0.39737  0.88145  1.0000
  C   C350      1.0  0.35919  0.43057  0.86762  1.0000
  H   H355      1.0  0.34190  0.41080  0.88913  1.0000
  H   H356      1.0  0.06125  0.31867  0.88207  1.0000
  H   H357      1.0  0.07401  0.38705  0.90021  1.0000
  H   H358      1.0  0.30810  0.41389  0.18736  1.0000
  C   C351      1.0  0.06769  0.36783  0.89898  1.0000
  H   H359      1.0  0.40475  0.43170  0.93078  1.0000
  H   H360      1.0  0.07369  0.41868  0.09428  1.0000
  C   C352      1.0  0.05192  0.42016  0.85529  1.0000
  S   S122      1.0  0.10327  0.31127  0.81844  1.0000
  S   S123      1.0  0.23182  0.43575  0.10365  1.0000
  C   C353      1.0  0.20791  0.29501  0.86636  1.0000
  Fe  Fe56      1.0  0.28781  0.43924  0.82360  1.0000
  H   H361      1.0  0.03992  0.27723  0.31195  1.0000
  C   C354      1.0  0.36190  0.28878  0.30949  1.0000
  C   C355      1.0  0.21450  0.21300  0.31282  1.0000
  H   H362      1.0  0.95792  0.23897  0.31093  1.0000
  C   C356      1.0  0.11619  0.38683  0.68968  1.0000
  H   H363      1.0  0.11909  0.37908  0.55541  1.0000
  C   C357      1.0  0.13447  0.37311  0.38451  1.0000
  H   H364      1.0  0.28804  0.34165  0.65178  1.0000
  C   C358      1.0  0.04789  0.23341  0.61791  1.0000
  S   S124      1.0  0.36854  0.43677  0.73809  1.0000
  C   C359      1.0  0.12611  0.32288  0.41955  1.0000
  C   C360      1.0  0.10248  0.37554  0.54894  1.0000
  C   C361      1.0  0.36063  0.27448  0.67172  1.0000
  H   H365      1.0  0.44009  0.20071  0.68310  1.0000
  H   H366      1.0  0.07672  0.33388  0.63212  1.0000
  C   C362      1.0  0.14824  0.34318  0.41294  1.0000
  S   S125      1.0  0.42014  0.27515  0.77317  1.0000
  C   C363      1.0  0.04716  0.28525  0.77051  1.0000
  S   S126      1.0  0.25822  0.24010  0.37688  1.0000
  Fe  Fe57      1.0  0.23187  0.22816  0.74250  1.0000
  Fe  Fe58      1.0  0.16183  0.29374  0.32550  1.0000
  H   H367      1.0  0.97943  0.31829  0.35183  1.0000
  C   C364      1.0  0.09081  0.27055  0.58216  1.0000
  Fe  Fe59      1.0  0.01632  0.37982  0.73877  1.0000
  H   H368      1.0  0.09863  0.35613  0.38279  1.0000
  H   H369      1.0  0.04290  0.20773  0.37128  1.0000
  C   C365      1.0  0.38992  0.25586  0.43035  1.0000
  C   C366      1.0  0.34813  0.22377  0.68829  1.0000
  Fe  Fe60      1.0  0.28555  0.19538  0.38150  1.0000
  C   C367      1.0  0.20664  0.40256  0.79910  1.0000
  C   C368      1.0  0.12139  0.37755  0.74136  1.0000
  C   C369      1.0  0.08684  0.20263  0.70888  1.0000
  C   C370      1.0  0.18107  0.22671  0.49998  1.0000
  H   H370      1.0  0.98182  0.25937  0.72886  1.0000
  C   C371      1.0  0.96278  0.25377  0.73157  1.0000
  C   C372      1.0  0.00568  0.24815  0.41656  1.0000
  H   H371      1.0  0.42554  0.24105  0.55620  1.0000
  C   C373      1.0  0.33568  0.40489  0.64826  1.0000
  H   H372      1.0  0.20085  0.30165  0.57150  1.0000
  Fe  Fe61      1.0  0.43139  0.27885  0.66655  1.0000
  H   H373      1.0  0.97708  0.26423  0.51348  1.0000
  H   H374      1.0  0.38458  0.19166  0.60573  1.0000
  H   H375      1.0  0.39556  0.33778  0.69641  1.0000
  H   H376      1.0  0.27909  0.31183  0.53274  1.0000
  H   H377      1.0  0.35028  0.29951  0.77534  1.0000
  H   H378      1.0  0.41727  0.41064  0.36942  1.0000
  C   C374      1.0  0.38071  0.26978  0.65095  1.0000
  Fe  Fe62      1.0  0.99643  0.32072  0.78837  1.0000
  S   S127      1.0  0.27301  0.25349  0.71975  1.0000
  Fe  Fe63      1.0  0.29393  0.24706  0.38228  1.0000
  H   H379      1.0  0.32204  0.35008  0.32569  1.0000
  C   C375      1.0  0.18340  0.42907  0.57576  1.0000
  S   S128      1.0  0.14796  0.30021  0.67602  1.0000
  Fe  Fe64      1.0  0.34071  0.41445  0.37332  1.0000
  H   H380      1.0  0.12904  0.39239  0.63589  1.0000
  H   H381      1.0  0.97581  0.21896  0.52594  1.0000
  C   C376      1.0  0.22108  0.26602  0.64777  1.0000
  C   C377      1.0  0.23298  0.28260  0.67195  1.0000
  C   C378      1.0  0.33419  0.25358  0.70231  1.0000
  H   H382      1.0  0.29698  0.40597  0.54812  1.0000
  H   H383      1.0  0.17887  0.40978  0.60781  1.0000
  C   C379      1.0  0.07873  0.34993  0.59185  1.0000
  H   H384      1.0  0.30645  0.27954  0.78625  1.0000
  Fe  Fe65      1.0  0.14359  0.24193  0.31815  1.0000
  H   H385      1.0  0.36542  0.29408  0.66539  1.0000
  Fe  Fe66      1.0  0.96910  0.34337  0.73411  1.0000
  C   C380      1.0  0.97765  0.35312  0.31915  1.0000
  N   N32       1.0  0.96814  0.26876  0.66132  1.0000
  C   C381      1.0  0.31408  0.35730  0.68770  1.0000
  C   C382      1.0  0.37705  0.39274  0.39351  1.0000
  C   C383      1.0  0.34689  0.24927  0.47351  1.0000
  Fe  Fe67      1.0  0.13357  0.32444  0.70885  1.0000
  H   H386      1.0  0.14624  0.42220  0.42473  1.0000
  H   H387      1.0  0.14547  0.25445  0.59420  1.0000
  C   C384      1.0  0.05733  0.34517  0.58336  1.0000
  C   C385      1.0  0.22217  0.31317  0.62244  1.0000
  C   C386      1.0  0.37687  0.27580  0.49938  1.0000
  S   S129      1.0  0.14478  0.43593  0.76328  1.0000
  C   C387      1.0  0.96824  0.32689  0.36586  1.0000
  H   H388      1.0  0.44018  0.43787  0.42162  1.0000
  C   C388      1.0  0.39567  0.27139  0.46267  1.0000
  C   C389      1.0  0.99655  0.23016  0.48516  1.0000
  H   H389      1.0  0.12843  0.43789  0.42211  1.0000
  C   C390      1.0  0.20966  0.29626  0.59994  1.0000
  H   H390      1.0  0.40562  0.33934  0.61273  1.0000
  C   C391      1.0  0.01414  0.22611  0.50067  1.0000
  H   H391      1.0  0.16973  0.38441  0.38964  1.0000
  H   H392      1.0  0.04263  0.27496  0.74173  1.0000
  S   S130      1.0  0.31552  0.28168  0.39761  1.0000
  C   C392      1.0  0.97895  0.29765  0.52744  1.0000
  H   H393      1.0  0.03560  0.21327  0.62744  1.0000
  C   C393      1.0  0.96320  0.36424  0.33788  1.0000
  H   H394      1.0  0.16654  0.27309  0.46521  1.0000
  H   H395      1.0  0.04403  0.28503  0.62921  1.0000
  C   C394      1.0  0.07841  0.38204  0.77743  1.0000
  H   H396      1.0  0.24367  0.39521  0.59702  1.0000
  H   H397      1.0  0.29612  0.37801  0.53814  1.0000
  H   H398      1.0  0.20902  0.41982  0.80536  1.0000
  N   N33       1.0  0.30566  0.38375  0.61364  1.0000
  H   H399      1.0  0.27143  0.28190  0.52577  1.0000
  H   H400      1.0  0.08742  0.30849  0.36827  1.0000
  C   C395      1.0  0.07448  0.21052  0.75345  1.0000
  H   H401      1.0  0.08089  0.28313  0.75524  1.0000
  H   H402      1.0  0.00700  0.21193  0.55362  1.0000
  H   H403      1.0  0.19954  0.27919  0.35750  1.0000
  H   H404      1.0  0.08667  0.19326  0.57732  1.0000
  S   S131      1.0  0.29537  0.20190  0.74644  1.0000
  C   C396      1.0  0.36523  0.31614  0.36651  1.0000
  S   S132      1.0  0.98317  0.25098  0.39526  1.0000
  H   H405      1.0  0.34891  0.42273  0.64749  1.0000
  S   S133      1.0  0.01080  0.35444  0.68676  1.0000
  H   H406      1.0  0.12336  0.30343  0.43209  1.0000
  H   H407      1.0  0.41466  0.28014  0.45907  1.0000
  H   H408      1.0  0.43666  0.43637  0.72800  1.0000
  S   S134      1.0  0.05492  0.41996  0.67854  1.0000
  H   H409      1.0  0.17733  0.24824  0.77175  1.0000
  H   H410      1.0  0.14688  0.21739  0.66383  1.0000
  H   H411      1.0  0.23859  0.43397  0.42222  1.0000
  C   C397      1.0  0.35059  0.37098  0.44127  1.0000
  H   H412      1.0  0.42568  0.34792  0.73734  1.0000
  C   C398      1.0  0.97042  0.25845  0.61616  1.0000
  H   H413      1.0  0.34332  0.20428  0.69413  1.0000
  C   C399      1.0  0.30145  0.35950  0.65047  1.0000
  C   C400      1.0  0.39000  0.37370  0.46870  1.0000
  S   S135      1.0  0.12549  0.33513  0.62258  1.0000
  S   S136      1.0  0.32617  0.37105  0.42556  1.0000
  C   C401      1.0  0.28106  0.30398  0.49500  1.0000
  N   N34       1.0  0.43633  0.35213  0.63494  1.0000
  S   S137      1.0  0.27221  0.20488  0.46848  1.0000
  C   C402      1.0  0.20049  0.35730  0.78605  1.0000
  H   H414      1.0  0.32334  0.33362  0.53965  1.0000
  H   H415      1.0  0.20142  0.26073  0.59047  1.0000
  H   H416      1.0  0.40450  0.25255  0.40120  1.0000
  S   S138      1.0  0.00721  0.29140  0.77986  1.0000
  C   C403      1.0  0.41220  0.34982  0.64074  1.0000
  H   H417      1.0  0.34212  0.28681  0.55078  1.0000
  H   H418      1.0  0.07355  0.22764  0.73143  1.0000
  H   H419      1.0  0.25421  0.43442  0.61570  1.0000
  H   H420      1.0  0.30253  0.31360  0.45799  1.0000
  C   C404      1.0  0.31081  0.29071  0.81336  1.0000
  C   C405      1.0  0.03263  0.26290  0.36441  1.0000
  H   H421      1.0  0.32205  0.27148  0.51914  1.0000
  H   H422      1.0  0.16983  0.19961  0.60341  1.0000
  C   C406      1.0  0.16946  0.21603  0.57298  1.0000
  C   C407      1.0  0.06870  0.28975  0.77852  1.0000
  C   C408      1.0  0.25271  0.30137  0.38007  1.0000
  S   S139      1.0  0.44109  0.34018  0.40147  1.0000
  H   H423      1.0  0.31028  0.33793  0.71796  1.0000
  C   C409      1.0  0.06329  0.42880  0.73621  1.0000
  H   H424      1.0  0.20835  0.25508  0.36210  1.0000
  C   C410      1.0  0.33134  0.38020  0.68640  1.0000
  H   H425      1.0  0.32790  0.24070  0.47705  1.0000
  H   H426      1.0  0.13794  0.39289  0.36891  1.0000
  C   C411      1.0  0.97733  0.30833  0.57312  1.0000
  S   S140      1.0  0.43029  0.22416  0.45089  1.0000
  C   C412      1.0  0.09453  0.38909  0.70770  1.0000
  C   C413      1.0  0.23383  0.30639  0.65841  1.0000
  S   S141      1.0  0.17501  0.40995  0.48729  1.0000
  C   C414      1.0  0.12952  0.42284  0.45789  1.0000
  S   S142      1.0  0.95117  0.33753  0.66816  1.0000
  Fe  Fe68      1.0  0.23790  0.19718  0.45511  1.0000
  C   C415      1.0  0.26413  0.32938  0.45078  1.0000
  C   C416      1.0  0.97204  0.29360  0.64012  1.0000
  S   S143      1.0  0.22477  0.34360  0.60235  1.0000
  H   H427      1.0  0.09557  0.21383  0.65271  1.0000
  H   H428      1.0  0.04332  0.36256  0.52548  1.0000
  H   H429      1.0  0.23660  0.39503  0.49844  1.0000
  H   H430      1.0  0.98267  0.30869  0.47569  1.0000
  C   C417      1.0  0.04068  0.23960  0.44724  1.0000
  H   H431      1.0  0.09030  0.39661  0.66820  1.0000
  H   H432      1.0  0.41590  0.37011  0.61752  1.0000
  H   H433      1.0  0.98484  0.20186  0.36680  1.0000
  C   C418      1.0  0.24107  0.41217  0.50720  1.0000
  H   H434      1.0  0.03866  0.32549  0.61746  1.0000
  S   S144      1.0  0.31307  0.42766  0.37890  1.0000
  Fe  Fe69      1.0  0.26663  0.21380  0.77914  1.0000
  S   S145      1.0  0.19111  0.32310  0.33998  1.0000
  S   S146      1.0  0.21970  0.23620  0.66452  1.0000
  C   C419      1.0  0.19182  0.25751  0.38574  1.0000
  Fe  Fe70      1.0  0.32516  0.42064  0.78881  1.0000
  C   C420      1.0  0.02701  0.20222  0.35889  1.0000
  C   C421      1.0  0.18329  0.43458  0.51336  1.0000
  C   C422      1.0  0.97566  0.27263  0.54879  1.0000
  C   C423      1.0  0.15579  0.24685  0.56783  1.0000
  H   H435      1.0  0.97952  0.32764  0.55757  1.0000
  C   C424      1.0  0.32799  0.22827  0.71024  1.0000
  H   H436      1.0  0.38172  0.28816  0.52361  1.0000
  H   H437      1.0  0.40459  0.34341  0.34155  1.0000
  S   S147      1.0  0.13104  0.25048  0.40692  1.0000
  H   H438      1.0  0.31865  0.25704  0.71982  1.0000
  C   C425      1.0  0.29156  0.38516  0.57676  1.0000
  H   H439      1.0  0.24177  0.27726  0.70037  1.0000
  Fe  Fe71      1.0  0.10341  0.25496  0.37623  1.0000
  Fe  Fe72      1.0  0.98754  0.19914  0.78179  1.0000
  C   C426      1.0  0.08390  0.39140  0.49050  1.0000
  H   H440      1.0  0.31834  0.25069  0.59874  1.0000
  H   H441      1.0  0.21641  0.37630  0.32617  1.0000
  S   S148      1.0  0.17416  0.36227  0.64726  1.0000
  C   C427      1.0  0.36354  0.35194  0.51678  1.0000
  H   H442      1.0  0.08568  0.40752  0.45119  1.0000
  C   C428      1.0  0.16782  0.25729  0.49481  1.0000
  C   C429      1.0  0.05008  0.25838  0.37943  1.0000
  C   C430      1.0  0.37447  0.24446  0.65904  1.0000
  C   C431      1.0  0.24702  0.32090  0.37677  1.0000
  C   C432      1.0  0.44138  0.25838  0.50498  1.0000
  C   C433      1.0  0.05274  0.27400  0.61793  1.0000
  Fe  Fe73      1.0  0.14254  0.31338  0.58551  1.0000
  S   S149      1.0  0.18408  0.35036  0.51361  1.0000
  H   H443      1.0  0.13420  0.43015  0.49308  1.0000
  S   S150      1.0  0.00201  0.23115  0.67623  1.0000
  H   H444      1.0  0.15564  0.27286  0.77971  1.0000
  N   N35       1.0  0.35288  0.26485  0.50420  1.0000
  H   H445      1.0  0.26769  0.28052  0.42327  1.0000
  H   H446      1.0  0.09200  0.30529  0.58469  1.0000
  H   H447      1.0  0.26872  0.34062  0.47784  1.0000
  C   C434      1.0  0.44043  0.35101  0.68932  1.0000
  H   H448      1.0  0.34107  0.37877  0.71568  1.0000
  C   C435      1.0  0.39271  0.32809  0.33281  1.0000
  H   H449      1.0  0.24839  0.35021  0.41048  1.0000
  H   H450      1.0  0.16208  0.33919  0.42107  1.0000
  H   H451      1.0  0.95174  0.25818  0.77019  1.0000
  N   N36       1.0  0.26886  0.30962  0.45545  1.0000
  H   H452      1.0  0.19799  0.33971  0.78146  1.0000
  C   C436      1.0  0.25090  0.43450  0.57298  1.0000
  H   H453      1.0  0.24774  0.41660  0.75824  1.0000
  Fe  Fe74      1.0  0.27404  0.39301  0.79170  1.0000
  S   S151      1.0  0.06109  0.23100  0.46505  1.0000
  H   H454      1.0  0.96814  0.23911  0.63213  1.0000
  H   H455      1.0  0.35832  0.33636  0.56487  1.0000
  H   H456      1.0  0.06157  0.38366  0.79133  1.0000
  H   H457      1.0  0.26981  0.37230  0.61547  1.0000
  H   H458      1.0  0.24311  0.31931  0.67676  1.0000
  H   H459      1.0  0.13802  0.37549  0.72874  1.0000
  Fe  Fe75      1.0  0.18809  0.33898  0.60739  1.0000
  C   C437      1.0  0.05995  0.36594  0.53200  1.0000
  H   H460      1.0  0.07064  0.26894  0.33813  1.0000
  C   C438      1.0  0.33564  0.30214  0.80690  1.0000
  S   S152      1.0  0.25164  0.37336  0.74695  1.0000
  C   C439      1.0  0.22849  0.40058  0.77314  1.0000
  H   H461      1.0  0.17626  0.24601  0.37658  1.0000
  S   S153      1.0  0.12422  0.28307  0.55474  1.0000
  H   H462      1.0  0.08374  0.23417  0.57917  1.0000
  C   C440      1.0  0.34383  0.35032  0.50241  1.0000
  H   H463      1.0  0.36628  0.24258  0.79172  1.0000
  N   N37       1.0  0.10470  0.39597  0.49985  1.0000
  C   C441      1.0  0.24513  0.41228  0.56233  1.0000
  C   C442      1.0  0.32245  0.40630  0.61238  1.0000
  C   C443      1.0  0.34982  0.29649  0.35470  1.0000
  N   N38       1.0  0.18047  0.24734  0.46174  1.0000
  H   H464      1.0  0.97058  0.30193  0.67561  1.0000
  H   H465      1.0  0.39001  0.24098  0.64161  1.0000
  C   C444      1.0  0.03185  0.29448  0.79847  1.0000
  C   C445      1.0  0.04414  0.41597  0.80799  1.0000
  C   C446      1.0  0.07506  0.24511  0.59125  1.0000
  Fe  Fe76      1.0  0.16722  0.37114  0.55809  1.0000
  C   C447      1.0  0.22532  0.37769  0.76810  1.0000
  S   S154      1.0  0.41479  0.37617  0.48576  1.0000
  H   H466      1.0  0.03170  0.22134  0.32020  1.0000
  C   C448      1.0  0.07978  0.28530  0.59393  1.0000
  H   H467      1.0  0.19021  0.21809  0.47439  1.0000
  H   H468      1.0  0.38226  0.40885  0.34666  1.0000
  C   C449      1.0  0.20979  0.27306  0.61097  1.0000
  S   S155      1.0  0.30874  0.43601  0.72987  1.0000
  C   C450      1.0  0.25276  0.33503  0.41236  1.0000
  H   H469      1.0  0.35597  0.32221  0.40145  1.0000
  C   C451      1.0  0.33289  0.26866  0.54533  1.0000
  S   S156      1.0  0.97547  0.37160  0.77873  1.0000
  C   C452      1.0  0.03662  0.24767  0.63220  1.0000
  H   H470      1.0  0.08039  0.28544  0.45077  1.0000
  C   C453      1.0  0.15658  0.22605  0.60699  1.0000
  C   C454      1.0  0.39683  0.39382  0.40650  1.0000
  H   H471      1.0  0.06652  0.30497  0.45126  1.0000
  S   S157      1.0  0.42173  0.23686  0.69995  1.0000
  S   S158      1.0  0.41338  0.29537  0.61658  1.0000
  C   C455      1.0  0.36538  0.24472  0.43560  1.0000
  C   C456      1.0  0.26344  0.29579  0.42047  1.0000
  S   S159      1.0  0.14724  0.20701  0.34197  1.0000
  C   C457      1.0  0.15242  0.36844  0.39552  1.0000
  N   N39       1.0  0.10804  0.32728  0.41146  1.0000
  H   H472      1.0  0.36076  0.23283  0.41004  1.0000
  H   H473      1.0  0.32544  0.42545  0.58421  1.0000
  C   C458      1.0  0.08448  0.30555  0.42062  1.0000
  C   C459      1.0  0.11228  0.35222  0.39248  1.0000
  H   H474      1.0  0.22001  0.20268  0.34348  1.0000
  C   C460      1.0  0.24240  0.43402  0.46422  1.0000
  S   S160      1.0  0.42940  0.19511  0.32309  1.0000
  C   C461      1.0  0.14355  0.25107  0.80974  1.0000
  H   H475      1.0  0.24910  0.29074  0.35108  1.0000
  H   H476      1.0  0.23830  0.32520  0.34650  1.0000
  C   C462      1.0  0.18791  0.20444  0.34172  1.0000
  C   C463      1.0  0.15601  0.23729  0.80523  1.0000
  Fe  Fe77      1.0  0.41312  0.23432  0.80455  1.0000
  H   H477      1.0  0.95077  0.23168  0.75197  1.0000
  C   C464      1.0  0.17854  0.35908  0.81309  1.0000
  C   C465      1.0  0.10497  0.37095  0.81028  1.0000
  H   H478      1.0  0.44367  0.47474  0.16802  1.0000
  H   H479      1.0  0.41356  0.55336  0.25327  1.0000
  C   C466      1.0  0.29755  0.57509  0.96674  1.0000
  H   H480      1.0  0.36862  0.66705  0.93429  1.0000
  S   S161      1.0  0.26834  0.66316  0.94085  1.0000
  N   N40       1.0  0.40692  0.57998  0.28471  1.0000
  H   H481      1.0  0.27884  0.60901  0.11564  1.0000
  S   S162      1.0  0.19604  0.47248  0.12852  1.0000
  S   S163      1.0  0.34342  0.67164  0.12080  1.0000
  C   C467      1.0  0.32493  0.46401  0.00152  1.0000
  H   H482      1.0  0.33794  0.58621  0.92087  1.0000
  H   H483      1.0  0.17569  0.49243  0.01338  1.0000
  C   C468      1.0  0.32528  0.66522  0.20682  1.0000
  C   C469      1.0  0.28491  0.51083  0.96238  1.0000
  C   C470      1.0  0.42354  0.64798  0.89174  1.0000
  H   H484      1.0  0.14741  0.46518  0.97963  1.0000
  Fe  Fe78      1.0  0.40359  0.63787  0.09558  1.0000
  H   H485      1.0  0.30684  0.46788  0.94045  1.0000
  H   H486      1.0  0.43720  0.64542  0.29512  1.0000
  C   C471      1.0  0.29772  0.66632  0.88830  1.0000
  H   H487      1.0  0.32301  0.62694  0.02166  1.0000
  C   C472      1.0  0.38881  0.63702  0.86309  1.0000
  S   S164      1.0  0.36569  0.48962  0.29240  1.0000
  Fe  Fe79      1.0  0.34480  0.45885  0.26592  1.0000
  C   C473      1.0  0.14290  0.47603  0.11733  1.0000
  H   H488      1.0  0.41680  0.62693  0.91465  1.0000
  N   N41       1.0  0.30607  0.64976  0.03217  1.0000
  Fe  Fe80      1.0  0.13121  0.45048  0.83725  1.0000
  C   C474      1.0  0.27466  0.56621  0.02810  1.0000
  H   H489      1.0  0.15520  0.48765  0.13311  1.0000
  S   S165      1.0  0.32678  0.59873  0.18980  1.0000
  C   C475      1.0  0.33746  0.52503  0.00738  1.0000
  C   C476      1.0  0.11555  0.45810  0.16434  1.0000
  Fe  Fe81      1.0  0.17287  0.45685  0.24507  1.0000
  S   S166      1.0  0.24884  0.49822  0.13572  1.0000
  C   C477      1.0  0.31793  0.68248  0.21935  1.0000
  S   S167      1.0  0.34891  0.58139  0.03146  1.0000
  H   H490      1.0  0.33883  0.51867  0.05372  1.0000
  S   S168      1.0  0.24535  0.49009  0.30595  1.0000
  C   C478      1.0  0.32659  0.64682  0.00517  1.0000
  C   C479      1.0  0.38509  0.46622  0.88515  1.0000
  H   H491      1.0  0.37957  0.55473  0.93613  1.0000
  Fe  Fe82      1.0  0.22219  0.51068  0.12340  1.0000
  C   C480      1.0  0.10001  0.44269  0.14400  1.0000
  Fe  Fe83      1.0  0.42069  0.52335  0.87495  1.0000
  S   S169      1.0  0.19579  0.44072  0.26907  1.0000
  C   C481      1.0  0.31953  0.64346  0.26324  1.0000
  C   C482      1.0  0.43442  0.51689  0.30425  1.0000
  C   C483      1.0  0.39692  0.55534  0.27933  1.0000
  H   H492      1.0  0.38531  0.61672  0.88317  1.0000
  C   C484      1.0  0.29821  0.56921  0.09000  1.0000
  C   C485      1.0  0.41975  0.68294  0.83417  1.0000
  C   C486      1.0  0.35246  0.66941  0.95544  1.0000
  S   S170      1.0  0.37973  0.64233  0.18205  1.0000
  H   H493      1.0  0.28062  0.62359  0.93557  1.0000
  Fe  Fe84      1.0  0.22033  0.45853  0.15234  1.0000
  H   H494      1.0  0.23522  0.62304  0.89270  1.0000
  C   C487      1.0  0.31021  0.48709  0.25684  1.0000
  Fe  Fe85      1.0  0.38940  0.47187  0.29565  1.0000
  H   H495      1.0  0.25087  0.46129  0.23077  1.0000
  H   H496      1.0  0.29408  0.67712  0.02845  1.0000
  Fe  Fe86      1.0  0.35648  0.64334  0.13049  1.0000
  H   H497      1.0  0.37569  0.56938  0.83133  1.0000
  C   C488      1.0  0.26951  0.48329  0.27383  1.0000
  S   S171      1.0  0.28213  0.47256  0.81917  1.0000
  C   C489      1.0  0.36031  0.54523  0.94153  1.0000
  C   C490      1.0  0.28709  0.46393  0.20926  1.0000
  H   H498      1.0  0.33807  0.45387  0.07154  1.0000
  Fe  Fe87      1.0  0.22288  0.48166  0.25133  1.0000
  H   H499      1.0  0.28629  0.51021  0.91379  1.0000
  Fe  Fe88      1.0  0.35542  0.59860  0.10085  1.0000
  C   C491      1.0  0.32075  0.57691  0.02959  1.0000
  N   N42       1.0  0.31089  0.52212  0.95548  1.0000
  H   H500      1.0  0.29707  0.57648  0.91980  1.0000
  S   S172      1.0  0.24407  0.55219  0.03398  1.0000
  C   C492      1.0  0.29844  0.64349  0.89715  1.0000
  H   H501      1.0  0.24341  0.58034  0.85386  1.0000
  H   H502      1.0  0.29513  0.49791  0.06480  1.0000
  S   S173      1.0  0.38325  0.64347  0.03836  1.0000
  C   C493      1.0  0.30829  0.47284  0.21974  1.0000
  H   H503      1.0  0.95302  0.46271  0.15233  1.0000
  H   H504      1.0  0.27711  0.52322  0.97220  1.0000
  S   S174      1.0  0.20557  0.49722  0.87393  1.0000
  Fe  Fe89      1.0  0.18389  0.47632  0.82926  1.0000
  H   H505      1.0  0.25708  0.55576  0.13770  1.0000
  C   C494      1.0  0.25429  0.59318  0.87155  1.0000
  H   H506      1.0  0.34287  0.48413  0.96601  1.0000
  S   S175      1.0  0.19749  0.49644  0.23855  1.0000
  C   C495      1.0  0.29083  0.49233  0.28395  1.0000
  H   H507      1.0  0.44334  0.64768  0.18122  1.0000
  S   S176      1.0  0.38876  0.47936  0.94116  1.0000
  H   H508      1.0  0.32701  0.49465  0.26296  1.0000
  C   C496      1.0  0.15438  0.47861  0.05044  1.0000
  H   H509      1.0  0.42432  0.60562  0.17529  1.0000
  H   H510      1.0  0.24033  0.58665  0.92702  1.0000
  C   C497      1.0  0.42844  0.62706  0.29236  1.0000
  C   C498      1.0  0.33313  0.54223  0.89121  1.0000
  H   H511      1.0  0.27049  0.48989  0.00673  1.0000
  H   H512      1.0  0.33158  0.54978  0.84606  1.0000
  H   H513      1.0  0.33100  0.53927  0.30676  1.0000
  H   H514      1.0  0.26657  0.63006  0.11813  1.0000
  C   C499      1.0  0.31275  0.51356  0.01340  1.0000
  C   C500      1.0  0.25361  0.63385  0.84234  1.0000
  H   H515      1.0  0.25433  0.53143  0.86279  1.0000
  H   H516      1.0  0.23630  0.47488  0.89376  1.0000
  S   S177      1.0  0.42924  0.55361  0.91267  1.0000
  H   H517      1.0  0.18187  0.44105  0.95772  1.0000
  H   H518      1.0  0.21721  0.46835  0.98257  1.0000
  C   C501      1.0  0.22782  0.46177  0.95050  1.0000
  C   C502      1.0  0.32054  0.58024  0.96767  1.0000
  H   H519      1.0  0.32296  0.62886  0.86347  1.0000
  C   C503      1.0  0.31051  0.67485  0.00949  1.0000
  S   S178      1.0  0.43256  0.49956  0.25606  1.0000
  N   N43       1.0  0.41117  0.65638  0.86328  1.0000
  C   C504      1.0  0.32218  0.44668  0.06120  1.0000
  C   C505      1.0  0.30515  0.67807  0.28836  1.0000
  N   N44       1.0  0.26630  0.62161  0.82448  1.0000
  H   H520      1.0  0.29803  0.56584  0.13846  1.0000
  C   C506      1.0  0.26761  0.46891  0.23700  1.0000
  C   C507      1.0  0.30489  0.45484  0.98694  1.0000
  C   C508      1.0  0.32233  0.64644  0.85643  1.0000
  C   C509      1.0  0.25505  0.54185  0.81557  1.0000
  H   H521      1.0  0.24456  0.46455  0.95775  1.0000
  H   H522      1.0  0.38704  0.55561  0.24878  1.0000
  Fe  Fe90      1.0  0.35154  0.59752  0.23690  1.0000
  H   H523      1.0  0.26972  0.58962  0.87216  1.0000
  C   C510      1.0  0.42111  0.60443  0.22546  1.0000
  C   C511      1.0  0.27507  0.56358  0.08946  1.0000
  H   H524      1.0  0.32546  0.63032  0.25396  1.0000
  H   H525      1.0  0.26964  0.61913  0.05305  1.0000
  C   C512      1.0  0.13826  0.46302  0.03170  1.0000
  H   H526      1.0  0.37034  0.63509  0.89643  1.0000
  S   S179      1.0  0.37736  0.59292  0.15358  1.0000
  H   H527      1.0  0.10658  0.45553  0.21705  1.0000
  S   S180      1.0  0.33180  0.46523  0.18884  1.0000
  H   H528      1.0  0.28534  0.45262  0.18129  1.0000
  C   C513      1.0  0.27893  0.62579  0.08225  1.0000
  S   S181      1.0  0.37127  0.44377  0.25867  1.0000
  N   N45       1.0  0.11145  0.44530  0.07832  1.0000
  C   C514      1.0  0.43191  0.62831  0.22848  1.0000
  C   C515      1.0  0.35817  0.55370  0.88291  1.0000
  H   H529      1.0  0.37775  0.69023  0.19008  1.0000
  C   C516      1.0  0.42121  0.44130  0.87733  1.0000
  H   H530      1.0  0.29256  0.50369  0.31171  1.0000
  C   C517      1.0  0.40384  0.48154  0.81255  1.0000
  C   C518      1.0  0.28977  0.63550  0.76157  1.0000
  S   S182      1.0  0.34564  0.61266  0.73459  1.0000
  C   C519      1.0  0.42749  0.53140  0.58779  1.0000
  C   C520      1.0  0.19581  0.47968  0.49242  1.0000
  C   C521      1.0  0.37712  0.67476  0.40476  1.0000
  H   H531      1.0  0.21829  0.53358  0.73935  1.0000
  C   C522      1.0  0.32356  0.49699  0.45345  1.0000
  S   S183      1.0  0.40990  0.65818  0.62816  1.0000
  C   C523      1.0  0.34557  0.67217  0.80871  1.0000
  C   C524      1.0  0.43914  0.44401  0.76341  1.0000
  C   C525      1.0  0.39696  0.54376  0.59298  1.0000
  H   H532      1.0  0.24876  0.47259  0.44330  1.0000
  C   C526      1.0  0.26467  0.66085  0.79716  1.0000
  H   H533      1.0  0.39245  0.55931  0.39450  1.0000
  H   H534      1.0  0.26244  0.54527  0.34576  1.0000
  H   H535      1.0  0.39290  0.64353  0.80862  1.0000
  C   C527      1.0  0.30628  0.63872  0.33207  1.0000
  H   H536      1.0  0.38194  0.53709  0.33216  1.0000
  C   C528      1.0  0.31212  0.50313  0.78106  1.0000
  S   S184      1.0  0.36094  0.44102  0.41000  1.0000
  C   C529      1.0  0.18939  0.45990  0.47183  1.0000
  H   H537      1.0  0.41417  0.48377  0.71141  1.0000
  N   N46       1.0  0.35053  0.66428  0.44218  1.0000
  C   C530      1.0  0.41408  0.60209  0.35239  1.0000
  C   C531      1.0  0.30134  0.66249  0.71504  1.0000
  C   C532      1.0  0.27758  0.56761  0.76232  1.0000
  H   H538      1.0  0.28615  0.54415  0.36664  1.0000
  H   H539      1.0  0.31996  0.67346  0.66537  1.0000
  C   C533      1.0  0.25692  0.56902  0.69379  1.0000
  C   C534      1.0  0.27061  0.55283  0.47626  1.0000
  Fe  Fe91      1.0  0.38111  0.61592  0.65759  1.0000
  C   C535      1.0  0.40331  0.57860  0.34765  1.0000
  S   S185      1.0  0.36756  0.67128  0.61037  1.0000
  C   C536      1.0  0.33201  0.54759  0.39012  1.0000
  C   C537      1.0  0.38617  0.66130  0.37505  1.0000
  C   C538      1.0  0.25872  0.47925  0.54159  1.0000
  H   H540      1.0  0.37094  0.47981  0.61972  1.0000
  C   C539      1.0  0.43946  0.57601  0.57416  1.0000
  S   S186      1.0  0.20371  0.49840  0.58169  1.0000
  H   H541      1.0  0.29407  0.57691  0.76872  1.0000
  H   H542      1.0  0.10490  0.45650  0.65603  1.0000
  S   S187      1.0  0.27156  0.69055  0.52637  1.0000
  H   H543      1.0  0.24034  0.56430  0.39173  1.0000
  H   H544      1.0  0.27251  0.49831  0.49057  1.0000
  H   H545      1.0  0.42131  0.50109  0.79110  1.0000
  S   S188      1.0  0.42438  0.61000  0.79672  1.0000
  N   N47       1.0  0.25279  0.45613  0.52955  1.0000
  C   C540      1.0  0.39990  0.47165  0.76739  1.0000
  C   C541      1.0  0.33239  0.63997  0.45318  1.0000
  Fe  Fe92      1.0  0.33606  0.45714  0.40515  1.0000
  H   H546      1.0  0.37483  0.52944  0.74951  1.0000
  S   S189      1.0  0.16811  0.49227  0.76925  1.0000
  H   H547      1.0  0.41490  0.49149  0.60160  1.0000
  H   H548      1.0  0.43770  0.59195  0.54476  1.0000
  H   H549      1.0  0.43490  0.57455  0.62643  1.0000
  H   H550      1.0  0.33872  0.67217  0.52681  1.0000
  C   C542      1.0  0.43710  0.54546  0.37916  1.0000
  H   H551      1.0  0.27311  0.56448  0.55431  1.0000
  N   N48       1.0  0.26168  0.55300  0.43088  1.0000
  S   S190      1.0  0.37572  0.62843  0.56666  1.0000
  H   H552      1.0  0.24015  0.47788  0.57106  1.0000
  H   H553      1.0  0.40728  0.66986  0.34531  1.0000
  Fe  Fe93      1.0  0.18308  0.47655  0.69973  1.0000
  C   C543      1.0  0.28875  0.67525  0.73318  1.0000
  H   H554      1.0  0.41182  0.60085  0.40199  1.0000
  C   C544      1.0  0.40977  0.50614  0.59907  1.0000
  C   C545      1.0  0.26634  0.56500  0.51765  1.0000
  C   C546      1.0  0.32564  0.51255  0.48709  1.0000
  H   H555      1.0  0.39187  0.55843  0.59032  1.0000
  C   C547      1.0  0.37696  0.44666  0.79459  1.0000
  H   H556      1.0  0.31127  0.63118  0.48508  1.0000
  C   C548      1.0  0.31371  0.52707  0.75235  1.0000
  S   S191      1.0  0.30561  0.61404  0.63484  1.0000
  H   H557      1.0  0.33311  0.48552  0.80124  1.0000
  H   H558      1.0  0.26849  0.48009  0.57259  1.0000
  H   H559      1.0  0.37452  0.62630  0.36091  1.0000
  H   H560      1.0  0.35924  0.51349  0.61455  1.0000
  C   C549      1.0  0.24823  0.45593  0.47637  1.0000
  H   H561      1.0  0.39207  0.49512  0.37289  1.0000
  C   C550      1.0  0.23477  0.54297  0.74594  1.0000
  H   H562      1.0  0.25129  0.51714  0.42473  1.0000
  H   H563      1.0  0.33132  0.54980  0.48176  1.0000
  H   H564      1.0  0.33892  0.57033  0.69671  1.0000
  C   C551      1.0  0.19559  0.47394  0.55533  1.0000
  C   C552      1.0  0.37852  0.51847  0.60607  1.0000
  H   H565      1.0  0.24960  0.58720  0.54338  1.0000
  H   H566      1.0  0.43410  0.65971  0.71112  1.0000
  S   S192      1.0  0.43771  0.56465  0.42219  1.0000
  C   C553      1.0  0.18926  0.44856  0.59711  1.0000
  H   H567      1.0  0.23324  0.58703  0.46176  1.0000
  C   C554      1.0  0.33758  0.55189  0.72060  1.0000
  H   H568      1.0  0.32421  0.50514  0.53730  1.0000
  S   S193      1.0  0.33707  0.57913  0.35243  1.0000
  H   H569      1.0  0.18944  0.44411  0.64530  1.0000
  S   S194      1.0  0.38908  0.58380  0.68231  1.0000
  S   S195      1.0  0.31921  0.46580  0.49128  1.0000
  C   C555      1.0  0.09782  0.45057  0.75874  1.0000
  H   H570      1.0  0.20066  0.49928  0.45992  1.0000
  H   H571      1.0  0.11859  0.46397  0.73946  1.0000
  C   C556      1.0  0.24808  0.56478  0.42612  1.0000
  H   H572      1.0  0.39436  0.51969  0.43982  1.0000
  C   C557      1.0  0.32965  0.53194  0.35685  1.0000
  S   S196      1.0  0.42413  0.54997  0.77961  1.0000
  C   C558      1.0  0.09004  0.44658  0.71143  1.0000
  H   H573      1.0  0.32187  0.67356  0.48001  1.0000
  C   C559      1.0  0.32970  0.53779  0.45562  1.0000
  C   C560      1.0  0.29917  0.65605  0.34474  1.0000
  C   C561      1.0  0.41117  0.51062  0.35952  1.0000
  H   H574      1.0  0.18950  0.46438  0.42320  1.0000
  C   C562      1.0  0.33424  0.50397  0.77935  1.0000
  C   C563      1.0  0.25293  0.57748  0.51212  1.0000
  C   C564      1.0  0.34078  0.62606  0.42383  1.0000
  C   C565      1.0  0.35786  0.52881  0.74979  1.0000
  C   C566      1.0  0.35959  0.55277  0.71981  1.0000
  Fe  Fe94      1.0  0.28644  0.68734  0.42834  1.0000
  C   C567      1.0  0.36786  0.63691  0.38413  1.0000
  S   S197      1.0  0.20164  0.46361  0.75475  1.0000
  H   H575      1.0  0.29976  0.62576  0.74745  1.0000
  H   H576      1.0  0.32247  0.49402  0.36464  1.0000
  H   H577      1.0  0.29664  0.52645  0.75330  1.0000
  Fe  Fe95      1.0  0.34211  0.62796  0.64113  1.0000
  H   H578      1.0  0.32641  0.60697  0.43188  1.0000
  S   S198      1.0  0.28360  0.65007  0.43126  1.0000
  C   C568      1.0  0.27844  0.58131  0.70159  1.0000
  C   C569      1.0  0.32513  0.50651  0.38904  1.0000
  C   C570      1.0  0.38506  0.49959  0.60902  1.0000
  N   N49       1.0  0.42104  0.54992  0.58410  1.0000
  Fe  Fe96      1.0  0.37409  0.65611  0.69709  1.0000
  H   H579      1.0  0.30197  0.62188  0.37529  1.0000
  S   S199      1.0  0.37599  0.67647  0.76214  1.0000
  C   C571      1.0  0.24374  0.57741  0.46611  1.0000
  C   C572      1.0  0.26559  0.53924  0.39004  1.0000
  Fe  Fe97      1.0  0.40143  0.67046  0.54400  1.0000
  C   C573      1.0  0.41249  0.52465  0.39734  1.0000
  H   H580      1.0  0.28095  0.54310  0.48100  1.0000
  H   H581      1.0  0.25733  0.57966  0.64744  1.0000
  C   C574      1.0  0.34131  0.67844  0.47380  1.0000
  Fe  Fe98      1.0  0.43696  0.58151  0.81126  1.0000
  H   H582      1.0  0.41021  0.68974  0.81086  1.0000
  C   C575      1.0  0.23367  0.52943  0.80720  1.0000
  H   H583      1.0  0.25491  0.67064  0.81275  1.0000
  Fe  Fe99      1.0  0.28673  0.85094  0.30375  1.0000
  H   H584      1.0  0.25124  0.83962  0.89553  1.0000
  H   H585      1.0  0.43103  0.69388  0.03440  1.0000
  C   C576      1.0  0.25618  0.92884  0.27358  1.0000
  C   C577      1.0  0.30063  0.88751  0.94351  1.0000
  H   H586      1.0  0.41435  0.80169  0.27970  1.0000
  H   H587      1.0  0.34082  0.89220  0.23282  1.0000
  Fe  Fe100     1.0  0.43030  0.87601  0.85997  1.0000
  H   H588      1.0  0.94709  0.87820  0.02080  1.0000
  H   H589      1.0  0.38156  0.78014  0.05632  1.0000
  C   C578      1.0  0.24021  0.77832  0.92571  1.0000
  H   H590      1.0  0.37027  0.74642  0.16918  1.0000
  H   H591      1.0  0.25400  0.70306  0.27625  1.0000
  C   C579      1.0  0.25204  0.71927  0.25313  1.0000
  H   H592      1.0  0.32047  0.70961  0.83017  1.0000
  C   C580      1.0  0.01549  0.93192  0.17293  1.0000
  C   C581      1.0  0.99832  0.88108  0.09589  1.0000
  N   N50       1.0  0.98813  0.83912  0.06521  1.0000
  S   S200      1.0  0.41848  0.90462  0.87135  1.0000
  C   C582      1.0  0.40434  0.80374  0.13712  1.0000
  C   C583      1.0  0.96502  0.90964  0.19210  1.0000
  C   C584      1.0  0.98342  0.81699  0.04923  1.0000
  Fe  Fe101     1.0  0.99708  0.85863  0.82896  1.0000
  C   C585      1.0  0.31692  0.87862  0.94758  1.0000
  S   S201      1.0  0.33250  0.91405  0.05044  1.0000
  N   N51       1.0  0.35445  0.92450  0.88335  1.0000
  H   H593      1.0  0.31542  0.76641  0.12214  1.0000
  S   S202      1.0  0.97301  0.85907  0.92395  1.0000
  H   H594      1.0  0.03720  0.82386  0.93046  1.0000
  C   C586      1.0  0.38025  0.74634  0.12091  1.0000
  H   H595      1.0  0.95878  0.91775  0.03427  1.0000
  H   H596      1.0  0.20588  0.73457  0.28183  1.0000
  N   N52       1.0  0.21846  0.78902  0.86856  1.0000
  C   C587      1.0  0.38227  0.70979  0.18765  1.0000
  Fe  Fe102     1.0  0.24692  0.82743  0.26280  1.0000
  C   C588      1.0  0.31139  0.91507  0.91034  1.0000
  H   H597      1.0  0.41601  0.79712  0.14961  1.0000
  C   C589      1.0  0.04819  0.84562  0.90271  1.0000
  H   H598      1.0  0.94547  0.90128  0.20024  1.0000
  C   C590      1.0  0.35801  0.82895  0.94024  1.0000
  C   C591      1.0  0.24338  0.82025  0.89730  1.0000
  C   C592      1.0  0.27371  0.93821  0.20275  1.0000
  C   C593      1.0  0.40950  0.88615  0.11631  1.0000
  H   H599      1.0  0.00209  0.89749  0.10754  1.0000
  C   C594      1.0  0.35136  0.89008  0.25860  1.0000
  C   C595      1.0  0.39208  0.90768  0.25940  1.0000
  H   H600      1.0  0.43080  0.90085  0.08328  1.0000
  C   C596      1.0  0.34394  0.89752  0.91748  1.0000
  Fe  Fe103     1.0  0.29720  0.88339  0.15985  1.0000
  C   C597      1.0  0.44122  0.70187  0.83303  1.0000
  Fe  Fe104     1.0  0.27607  0.70447  0.90135  1.0000
  H   H601      1.0  0.32129  0.82589  0.96315  1.0000
  H   H602      1.0  0.33965  0.71770  0.94121  1.0000
  C   C598      1.0  0.27075  0.76296  0.16312  1.0000
  C   C599      1.0  0.37787  0.91073  0.22794  1.0000
  C   C600      1.0  0.39203  0.76931  0.82022  1.0000
  C   C601      1.0  0.25018  0.80301  0.92450  1.0000
  C   C602      1.0  0.31721  0.78857  0.97580  1.0000
  H   H603      1.0  0.02756  0.90704  0.98460  1.0000
  H   H604      1.0  0.30868  0.85726  0.97392  1.0000
  H   H605      1.0  0.41127  0.86243  0.19926  1.0000
  H   H606      1.0  0.27967  0.87305  0.96658  1.0000
  C   C603      1.0  0.08126  0.88897  0.88016  1.0000
  C   C604      1.0  0.35639  0.78820  0.95489  1.0000
  S   S203      1.0  0.42512  0.93402  0.22003  1.0000
  H   H607      1.0  0.36150  0.77643  0.83019  1.0000
  Fe  Fe105     1.0  0.25344  0.87364  0.29138  1.0000
  S   S204      1.0  0.21684  0.78659  0.28753  1.0000
  C   C605      1.0  0.32980  0.77491  0.97421  1.0000
  S   S205      1.0  0.24781  0.71632  0.94246  1.0000
  H   H608      1.0  0.38739  0.92896  0.17955  1.0000
  C   C606      1.0  0.95048  0.92315  0.00405  1.0000
  Fe  Fe106     1.0  0.26452  0.74225  0.82784  1.0000
  N   N53       1.0  0.38690  0.72805  0.12195  1.0000
  C   C607      1.0  0.22470  0.73662  0.25636  1.0000
  H   H609      1.0  0.99661  0.81050  0.05414  1.0000
  H   H610      1.0  0.24518  0.76471  0.94752  1.0000
  S   S206      1.0  0.32735  0.77974  0.22515  1.0000
  C   C608      1.0  0.33848  0.93339  0.88096  1.0000
  C   C609      1.0  0.22753  0.71608  0.28653  1.0000
  S   S207      1.0  0.29009  0.84302  0.21394  1.0000
  S   S208      1.0  0.30898  0.73724  0.89773  1.0000
  S   S209      1.0  0.28440  0.77192  0.99491  1.0000
  H   H611      1.0  0.21667  0.75235  0.89836  1.0000
  H   H612      1.0  0.39467  0.93602  0.83522  1.0000
  H   H613      1.0  0.18134  0.77403  0.87592  1.0000
  H   H614      1.0  0.33386  0.83316  0.23352  1.0000
  H   H615      1.0  0.31887  0.75388  0.98912  1.0000
  C   C610      1.0  0.05805  0.88672  0.81765  1.0000
  C   C611      1.0  0.38640  0.76527  0.05756  1.0000
  C   C612      1.0  0.29839  0.74492  0.15676  1.0000
  N   N54       1.0  0.27329  0.74257  0.19246  1.0000
  C   C613      1.0  0.36174  0.79767  0.16866  1.0000
  H   H616      1.0  0.36196  0.82609  0.08994  1.0000
  H   H617      1.0  0.03503  0.94022  0.16522  1.0000
  S   S210      1.0  0.29679  0.77827  0.81745  1.0000
  C   C614      1.0  0.24644  0.76029  0.19455  1.0000
  H   H618      1.0  0.29887  0.92224  0.90763  1.0000
  H   H619      1.0  0.29746  0.73491  0.12411  1.0000
  C   C615      1.0  0.35515  0.84809  0.20090  1.0000
  H   H620      1.0  0.25943  0.78457  0.29302  1.0000
  H   H621      1.0  0.32256  0.69947  0.17576  1.0000
  S   S211      1.0  0.40449  0.83083  0.90899  1.0000
  C   C616      1.0  0.01264  0.88647  0.02695  1.0000
  N   N55       1.0  0.37144  0.84600  0.22361  1.0000
  C   C617      1.0  0.36562  0.86975  0.13607  1.0000
  C   C618      1.0  0.97907  0.85448  0.14963  1.0000
  H   H622      1.0  0.36799  0.77309  0.23698  1.0000
  H   H623      1.0  0.96772  0.85007  0.20348  1.0000
  H   H624      1.0  0.35645  0.89050  0.92151  1.0000
  H   H625      1.0  0.95910  0.81296  0.17519  1.0000
  H   H626      1.0  0.98726  0.82321  0.99485  1.0000
  C   C619      1.0  0.22419  0.77154  0.89759  1.0000
  H   H627      1.0  0.28752  0.78140  0.11501  1.0000
  C   C620      1.0  0.40572  0.74636  0.99688  1.0000
  S   S212      1.0  0.01094  0.92794  0.89429  1.0000
  C   C621      1.0  0.97430  0.83360  0.13328  1.0000
  H   H628      1.0  0.30254  0.73563  0.19578  1.0000
  C   C622      1.0  0.35725  0.69506  0.93265  1.0000
  H   H629      1.0  0.24451  0.77660  0.17192  1.0000
  C   C623      1.0  0.37714  0.79001  0.18632  1.0000
  S   S213      1.0  0.25416  0.86726  0.20031  1.0000
  C   C624      1.0  0.37378  0.82004  0.10373  1.0000
  S   S214      1.0  0.29677  0.89229  0.24702  1.0000
  C   C625      1.0  0.04368  0.85857  0.85348  1.0000
  H   H630      1.0  0.36028  0.80653  0.28526  1.0000
  C   C626      1.0  0.39934  0.76532  0.99523  1.0000
  H   H631      1.0  0.35257  0.87175  0.11913  1.0000
  H   H632      1.0  0.40020  0.71904  0.19091  1.0000
  H   H633      1.0  0.36502  0.70524  0.23462  1.0000
  C   C627      1.0  0.00736  0.86514  0.01251  1.0000
  C   C628      1.0  0.39947  0.72789  0.06101  1.0000
  H   H634      1.0  0.96238  0.79952  0.08537  1.0000
  H   H635      1.0  0.99734  0.89608  0.26942  1.0000
  C   C629      1.0  0.96893  0.89572  0.24135  1.0000
  Fe  Fe107     1.0  0.99253  0.90264  0.85226  1.0000
  C   C630      1.0  0.33618  0.69787  0.95980  1.0000
  C   C631      1.0  0.20221  0.78203  0.83762  1.0000
  H   H636      1.0  0.29985  0.69162  0.29796  1.0000
  C   C632      1.0  0.39834  0.86440  0.18178  1.0000
  H   H637      1.0  0.01852  0.86959  0.95869  1.0000
  H   H638      1.0  0.40453  0.71326  0.06193  1.0000
  C   C633      1.0  0.40108  0.83434  0.05574  1.0000
  C   C634      1.0  0.39298  0.88892  0.09373  1.0000
  C   C635      1.0  0.41616  0.82559  0.07123  1.0000
  C   C636      1.0  0.99416  0.90691  0.23186  1.0000
  H   H639      1.0  0.41027  0.85145  0.00520  1.0000
  C   C637      1.0  0.33110  0.81540  0.96080  1.0000
  H   H640      1.0  0.36593  0.77747  0.95304  1.0000
  Fe  Fe108     1.0  0.28244  0.75150  0.92883  1.0000
  H   H641      1.0  0.40141  0.90591  0.04346  1.0000
  C   C638      1.0  0.37077  0.81537  0.93655  1.0000
  C   C639      1.0  0.22714  0.81275  0.87010  1.0000
  H   H642      1.0  0.26340  0.80886  0.94392  1.0000
  H   H643      1.0  0.40449  0.78014  0.94576  1.0000
  H   H644      1.0  0.36887  0.84982  0.92712  1.0000
  S   S215      1.0  0.10522  0.90820  0.89494  1.0000
  H   H645      1.0  0.07000  0.85076  0.95537  1.0000
  H   H646      1.0  0.41556  0.74602  0.94887  1.0000
  H   H647      1.0  0.27439  0.92403  0.18518  1.0000
  C   C640      1.0  0.06662  0.86081  0.91704  1.0000
  H   H648      1.0  0.20271  0.76677  0.82219  1.0000
  H   H649      1.0  0.37717  0.71267  0.89310  1.0000
  H   H650      1.0  0.38708  0.76426  0.87369  1.0000
  C   C641      1.0  0.98637  0.93467  0.13292  1.0000
  H   H651      1.0  0.22214  0.82636  0.84833  1.0000
  H   H652      1.0  0.34648  0.85888  0.83952  1.0000
  S   S216      1.0  0.01930  0.83952  0.83927  1.0000
  C   C642      1.0  0.32086  0.69195  0.83827  1.0000
  S   S217      1.0  0.43648  0.73263  0.23994  1.0000
  S   S218      1.0  0.96057  0.89517  0.82743  1.0000
  C   C643      1.0  0.07703  0.90191  0.83028  1.0000
  H   H653      1.0  0.96353  0.93026  0.30714  1.0000
  C   C644      1.0  0.36014  0.82340  0.29208  1.0000
  C   C645      1.0  0.35218  0.94051  0.05964  1.0000
  Fe  Fe109     1.0  0.30487  0.87764  0.58519  1.0000
  S   S219      1.0  0.31729  0.86085  0.51729  1.0000
  S   S220      1.0  0.01823  0.90270  0.75824  1.0000
  C   C646      1.0  0.41343  0.76987  0.77490  1.0000
  H   H654      1.0  0.42579  0.71677  0.55112  1.0000
  C   C647      1.0  0.95375  0.91622  0.36408  1.0000
  Fe  Fe110     1.0  0.25869  0.71407  0.47391  1.0000
  H   H655      1.0  0.33838  0.83381  0.77086  1.0000
  S   S221      1.0  0.29045  0.72826  0.78773  1.0000
  H   H656      1.0  0.43881  0.80079  0.50075  1.0000
  S   S222      1.0  0.24309  0.83269  0.35684  1.0000
  C   C648      1.0  0.34484  0.69490  0.79958  1.0000
  C   C649      1.0  0.38400  0.89736  0.77176  1.0000
  H   H657      1.0  0.03331  0.83420  0.70619  1.0000
  C   C650      1.0  0.24170  0.75077  0.39330  1.0000
  H   H658      1.0  0.23030  0.77848  0.69531  1.0000
  S   S223      1.0  0.21349  0.85392  0.74460  1.0000
  C   C651      1.0  0.33872  0.86672  0.32201  1.0000
  H   H659      1.0  0.17963  0.87160  0.79499  1.0000
  H   H660      1.0  0.41047  0.78883  0.62724  1.0000
  H   H661      1.0  0.36893  0.78966  0.51953  1.0000
  C   C652      1.0  0.96805  0.88881  0.41410  1.0000
  H   H662      1.0  0.34316  0.84583  0.40297  1.0000
  H   H663      1.0  0.17454  0.73983  0.42478  1.0000
  C   C653      1.0  0.38403  0.83938  0.74816  1.0000
  C   C654      1.0  0.34701  0.85215  0.66530  1.0000
  C   C655      1.0  0.30794  0.90573  0.36700  1.0000
  H   H664      1.0  0.26089  0.82381  0.58965  1.0000
  H   H665      1.0  0.39948  0.92254  0.36447  1.0000
  H   H666      1.0  0.29720  0.77914  0.69225  1.0000
  C   C656      1.0  0.26173  0.77616  0.70179  1.0000
  S   S224      1.0  0.23648  0.89444  0.33530  1.0000
  H   H667      1.0  0.95013  0.87070  0.42922  1.0000
  C   C657      1.0  0.37832  0.77716  0.38200  1.0000
  C   C658      1.0  0.30654  0.81393  0.60842  1.0000
  C   C659      1.0  0.40616  0.76335  0.52551  1.0000
  H   H668      1.0  0.22947  0.94011  0.71239  1.0000
  H   H669      1.0  0.25098  0.79695  0.51328  1.0000
  H   H670      1.0  0.23846  0.70975  0.68054  1.0000
  C   C660      1.0  0.35326  0.84374  0.71538  1.0000
  C   C661      1.0  0.22010  0.88864  0.62639  1.0000
  C   C662      1.0  0.27102  0.90774  0.42547  1.0000
  H   H671      1.0  0.26041  0.75375  0.38369  1.0000
  C   C663      1.0  0.42024  0.77712  0.70506  1.0000
  C   C664      1.0  0.35805  0.91379  0.71541  1.0000
  C   C665      1.0  0.34412  0.88746  0.76967  1.0000
  H   H672      1.0  0.25873  0.78467  0.45229  1.0000
  H   H673      1.0  0.21091  0.69795  0.33578  1.0000
  C   C666      1.0  0.20251  0.91645  0.62829  1.0000
  S   S225      1.0  0.27054  0.70783  0.38047  1.0000
  S   S226      1.0  0.29709  0.75362  0.42188  1.0000
  Fe  Fe111     1.0  0.31179  0.92564  0.60391  1.0000
  S   S227      1.0  0.99525  0.90883  0.62712  1.0000
  C   C667      1.0  0.37967  0.88401  0.32171  1.0000
  H   H674      1.0  0.41498  0.82937  0.42963  1.0000
  C   C668      1.0  0.24176  0.74145  0.60203  1.0000
  S   S228      1.0  0.21932  0.70892  0.52289  1.0000
  C   C669      1.0  0.98622  0.88646  0.43003  1.0000
  H   H675      1.0  0.02979  0.88924  0.60310  1.0000
  C   C670      1.0  0.40461  0.81509  0.41585  1.0000
  C   C671      1.0  0.26884  0.81370  0.61053  1.0000
  C   C672      1.0  0.21819  0.72980  0.45720  1.0000
  C   C673      1.0  0.24114  0.76835  0.34201  1.0000
  C   C674      1.0  0.36610  0.86531  0.59371  1.0000
  C   C675      1.0  0.40534  0.78343  0.68097  1.0000
  H   H676      1.0  0.06254  0.93753  0.55423  1.0000
  C   C676      1.0  0.27886  0.74433  0.60970  1.0000
  H   H677      1.0  0.35557  0.70063  0.44022  1.0000
  C   C677      1.0  0.21762  0.90878  0.59053  1.0000
  H   H678      1.0  0.39163  0.69368  0.39735  1.0000
  H   H679      1.0  0.41616  0.86470  0.60819  1.0000
  N   N56       1.0  0.04842  0.87608  0.65021  1.0000
  C   C678      1.0  0.19018  0.88187  0.73795  1.0000
  H   H680      1.0  0.36136  0.87174  0.55442  1.0000
  H   H681      1.0  0.39363  0.75825  0.57929  1.0000
  H   H682      1.0  0.42779  0.93224  0.41566  1.0000
  Fe  Fe112     1.0  0.30984  0.74607  0.33133  1.0000
  Fe  Fe113     1.0  0.31119  0.72976  0.46564  1.0000
  S   S229      1.0  0.31068  0.86451  0.80134  1.0000
  H   H683      1.0  0.17569  0.70960  0.51775  1.0000
  S   S230      1.0  0.27446  0.84852  0.69984  1.0000
  S   S231      1.0  0.24018  0.74615  0.78239  1.0000
  C   C679      1.0  0.99607  0.93648  0.35761  1.0000
  Fe  Fe114     1.0  0.32149  0.76211  0.78683  1.0000
  H   H684      1.0  0.94509  0.92405  0.39599  1.0000
  C   C680      1.0  0.08776  0.91081  0.63495  1.0000
  H   H685      1.0  0.40615  0.87996  0.51772  1.0000
  H   H686      1.0  0.20987  0.80010  0.78889  1.0000
  S   S232      1.0  0.36400  0.78845  0.69749  1.0000
  H   H687      1.0  0.95080  0.92280  0.61936  1.0000
  H   H688      1.0  0.00883  0.84185  0.71885  1.0000
  C   C681      1.0  0.28923  0.78878  0.66978  1.0000
  S   S233      1.0  0.43176  0.76184  0.80583  1.0000
  H   H689      1.0  0.22866  0.91949  0.53344  1.0000
  H   H690      1.0  0.31698  0.89447  0.36334  1.0000
  C   C682      1.0  0.35290  0.86373  0.35356  1.0000
  C   C683      1.0  0.08571  0.93039  0.59534  1.0000
  H   H691      1.0  0.32742  0.84836  0.68215  1.0000
  N   N57       1.0  0.97313  0.91366  0.37848  1.0000
  H   H692      1.0  0.36283  0.71486  0.76252  1.0000
  Fe  Fe115     1.0  0.44317  0.92793  0.75308  1.0000
  H   H693      1.0  0.27912  0.85645  0.46655  1.0000
  C   C684      1.0  0.19396  0.72587  0.46853  1.0000
  C   C685      1.0  0.38489  0.93196  0.68928  1.0000
  H   H694      1.0  0.39404  0.89082  0.79316  1.0000
  H   H695      1.0  0.39791  0.83320  0.73040  1.0000
  H   H696      1.0  0.02393  0.90831  0.42117  1.0000
  C   C686      1.0  0.25154  0.78824  0.67091  1.0000
  C   C687      1.0  0.44483  0.73338  0.50472  1.0000
  C   C688      1.0  0.02853  0.84753  0.67902  1.0000
  N   N58       1.0  0.28240  0.89350  0.42041  1.0000
  C   C689      1.0  0.06465  0.92254  0.58413  1.0000
  C   C690      1.0  0.25173  0.72983  0.63524  1.0000
  N   N59       1.0  0.43808  0.77653  0.38746  1.0000
  H   H697      1.0  0.22070  0.72984  0.62158  1.0000
  C   C691      1.0  0.37722  0.77571  0.79603  1.0000
  H   H698      1.0  0.28696  0.73567  0.63478  1.0000
  C   C692      1.0  0.41329  0.75316  0.43005  1.0000
  C   C693      1.0  0.04616  0.89515  0.61182  1.0000
  N   N60       1.0  0.37772  0.84795  0.69484  1.0000
  C   C694      1.0  0.20696  0.87570  0.70006  1.0000
  C   C695      1.0  0.19329  0.74291  0.41598  1.0000
  C   C696      1.0  0.41769  0.81806  0.34890  1.0000
  H   H699      1.0  0.36590  0.82162  0.79848  1.0000
  C   C697      1.0  0.29634  0.82666  0.57972  1.0000
  Fe  Fe116     1.0  0.25743  0.87324  0.68981  1.0000
  C   C698      1.0  0.24802  0.77872  0.50906  1.0000
  H   H700      1.0  0.07009  0.86845  0.69488  1.0000
  C   C699      1.0  0.38348  0.78218  0.72688  1.0000
  H   H701      1.0  0.25062  0.89797  0.46697  1.0000
  C   C700      1.0  0.00947  0.90969  0.40994  1.0000
  H   H702      1.0  0.32776  0.82387  0.58480  1.0000
  C   C701      1.0  0.26659  0.86469  0.47092  1.0000
  H   H703      1.0  0.22658  0.76431  0.53105  1.0000
  C   C702      1.0  0.35710  0.87929  0.79803  1.0000
  H   H704      1.0  0.08815  0.92367  0.80210  1.0000
  C   C703      1.0  0.39113  0.86988  0.57314  1.0000
  H   H705      1.0  0.02720  0.84355  0.63629  1.0000
  N   N61       1.0  0.25838  0.76683  0.54498  1.0000
  Fe  Fe117     1.0  0.30092  0.87777  0.72005  1.0000
  H   H706      1.0  0.25119  0.85353  0.46065  1.0000
  H   H707      1.0  0.05489  0.89685  0.77933  1.0000
  H   H708      1.0  0.23268  0.88356  0.59704  1.0000
  H   H709      1.0  0.29776  0.69630  0.69788  1.0000
  H   H710      1.0  0.24154  0.94006  0.35072  1.0000
  C   C704      1.0  0.29560  0.77027  0.55199  1.0000
  H   H711      1.0  0.37717  0.72793  0.53297  1.0000
  H   H712      1.0  0.39327  0.85603  0.75855  1.0000
  C   C705      1.0  0.28490  0.78141  0.52070  1.0000
  H   H713      1.0  0.31670  0.78178  0.53218  1.0000
  H   H714      1.0  0.98243  0.86680  0.45711  1.0000
  C   C706      1.0  0.39695  0.74623  0.49962  1.0000
  C   C707      1.0  0.06875  0.88356  0.66247  1.0000
  Fe  Fe118     1.0  0.98475  0.89110  0.73926  1.0000
  C   C708      1.0  0.36562  0.77336  0.45011  1.0000
  C   C709      1.0  0.40436  0.79935  0.33163  1.0000
  C   C710      1.0  0.39668  0.86113  0.62470  1.0000
  S   S234      1.0  0.33284  0.90474  0.60589  1.0000
  S   S235      1.0  0.33418  0.74391  0.51520  1.0000
  C   C711      1.0  0.21695  0.76443  0.35313  1.0000
  C   C712      1.0  0.18801  0.90228  0.70205  1.0000
  S   S236      1.0  0.28626  0.90062  0.57328  1.0000
  S   S237      1.0  0.28129  0.90022  0.71991  1.0000
  H   H715      1.0  0.29795  0.80173  0.47664  1.0000
  H   H716      1.0  0.25684  0.86113  0.52572  1.0000
  H   H717      1.0  0.10369  0.91661  0.64544  1.0000
  C   C713      1.0  0.37865  0.79254  0.46680  1.0000
  H   H718      1.0  0.17542  0.90729  0.73151  1.0000
  S   S238      1.0  0.30537  0.84088  0.36237  1.0000
  H   H719      1.0  0.34805  0.92023  0.69418  1.0000
  H   H720      1.0  0.33931  0.81603  0.32908  1.0000
  C   C714      1.0  0.39787  0.92373  0.71747  1.0000
  S   S239      1.0  0.96530  0.84669  0.80321  1.0000
  H   H721      1.0  0.40615  0.73976  0.41020  1.0000
  C   C715      1.0  0.32243  0.93269  0.31525  1.0000
  S   S240      1.0  0.43355  0.70499  0.43655  1.0000
  H   H722      1.0  0.96505  0.93554  0.52552  1.0000
  H   H723      1.0  0.25605  0.92953  0.63248  1.0000
  H   H724      1.0  0.97788  0.93557  0.69522  1.0000
  H   H725      1.0  0.36857  0.76238  0.36902  1.0000
  H   H726      1.0  0.09275  0.92838  0.37720  1.0000
  C   C716      1.0  0.28535  0.93501  0.37645  1.0000
  C   C717      1.0  0.01443  0.93487  0.37360  1.0000
  C   C718      1.0  0.94875  0.93125  0.57437  1.0000
  H   H727      1.0  0.39040  0.88160  0.34652  1.0000
  S   S241      1.0  0.43370  0.88866  0.35832  1.0000
  S   S242      1.0  0.32701  0.72501  0.37061  1.0000
  H   H728      1.0  0.43674  0.77750  0.66986  1.0000
  C   C719      1.0  0.43138  0.78726  0.48147  1.0000
  C   C720      1.0  0.39836  0.93318  0.39401  1.0000
  H   H729      1.0  0.37158  0.82954  0.31724  1.0000
  H   H730      1.0  0.36901  0.93778  0.37996  1.0000
  C   C721      1.0  0.41416  0.93854  0.42297  1.0000
  C   C722      1.0  0.85911  0.11549  0.07167  1.0000
  C   C723      1.0  0.81789  0.03287  0.27451  1.0000
  Fe  Fe119     1.0  0.57362  0.13952  0.12392  1.0000
  C   C724      1.0  0.45106  0.01837  0.84545  1.0000
  H   H731      1.0  0.51477  0.16077  0.28163  1.0000
  C   C725      1.0  0.53888  0.09536  0.02351  1.0000
  C   C726      1.0  0.87032  0.13937  0.93417  1.0000
  H   H732      1.0  0.54798  0.17020  0.25946  1.0000
  C   C727      1.0  0.93709  0.08676  0.27296  1.0000
  H   H733      1.0  0.58923  0.95388  0.84397  1.0000
  H   H734      1.0  0.57272  0.13036  0.87736  1.0000
  N   N62       1.0  0.90878  0.06726  0.13635  1.0000
  H   H735      1.0  0.70729  0.01330  0.11887  1.0000
  H   H736      1.0  0.47534  0.17117  0.93158  1.0000
  H   H737      1.0  0.57358  0.07129  0.98399  1.0000
  H   H738      1.0  0.50181  0.95665  0.03174  1.0000
  C   C728      1.0  0.73756  0.03682  0.87348  1.0000
  C   C729      1.0  0.52325  0.10650  0.11417  1.0000
  H   H739      1.0  0.93265  0.05028  0.01421  1.0000
  H   H740      1.0  0.81900  0.05563  0.04816  1.0000
  C   C730      1.0  0.80665  0.07152  0.28087  1.0000
  H   H741      1.0  0.68471  0.03735  0.87868  1.0000
  S   S243      1.0  0.71420  0.04230  0.24064  1.0000
  C   C731      1.0  0.50823  0.02034  0.16416  1.0000
  C   C732      1.0  0.87983  0.02137  0.86718  1.0000
  H   H742      1.0  0.70680  0.14663  0.13130  1.0000
  C   C733      1.0  0.88727  0.98487  0.94367  1.0000
  H   H743      1.0  0.87520  0.14800  0.88049  1.0000
  C   C734      1.0  0.52081  0.02018  0.00051  1.0000
  S   S244      1.0  0.66346  0.06298  0.24540  1.0000
  H   H744      1.0  0.78072  0.01166  0.28099  1.0000
  C   C735      1.0  0.71199  0.03149  0.90156  1.0000
  H   H745      1.0  0.48452  0.03047  0.22703  1.0000
  H   H746      1.0  0.46613  0.12118  0.25277  1.0000
  C   C736      1.0  0.85322  0.16269  0.10213  1.0000
  H   H747      1.0  0.55345  0.09303  0.99089  1.0000
  C   C737      1.0  0.76799  0.18287  0.88683  1.0000
  S   S245      1.0  0.51780  0.08572  0.94544  1.0000
  H   H748      1.0  0.50251  0.06441  0.25809  1.0000
  S   S246      1.0  0.83376  0.00517  0.98046  1.0000
  H   H749      1.0  0.63038  0.05305  0.00265  1.0000
  H   H750      1.0  0.68722  0.13679  0.97782  1.0000
  H   H751      1.0  0.87901  0.03960  0.24538  1.0000
  C   C738      1.0  0.65464  0.11295  0.08648  1.0000
  H   H752      1.0  0.74845  0.98521  0.25837  1.0000
  S   S247      1.0  0.60251  0.94675  0.94938  1.0000
  H   H753      1.0  0.53816  0.16902  0.05955  1.0000
  C   C739      1.0  0.78906  0.04888  0.28159  1.0000
  C   C740      1.0  0.89063  0.04214  0.19419  1.0000
  Fe  Fe120     1.0  0.61808  0.98905  0.87611  1.0000
  H   H754      1.0  0.76108  0.08070  0.05879  1.0000
  H   H755      1.0  0.93323  0.94438  0.19920  1.0000
  H   H756      1.0  0.85293  0.97481  0.03527  1.0000
  C   C741      1.0  0.71172  0.01182  0.26143  1.0000
  C   C742      1.0  0.44823  0.98879  0.07560  1.0000
  H   H757      1.0  0.68968  0.94355  0.18419  1.0000
  H   H758      1.0  0.93305  0.10784  0.11094  1.0000
  C   C743      1.0  0.45448  0.12755  0.23891  1.0000
  H   H759      1.0  0.81206  0.13834  0.13592  1.0000
  H   H760      1.0  0.87724  0.03572  0.83727  1.0000
  H   H761      1.0  0.69979  0.98682  0.87143  1.0000
  C   C744      1.0  0.92725  0.06145  0.27732  1.0000
  Fe  Fe121     1.0  0.46484  0.07763  0.83370  1.0000
  H   H762      1.0  0.45002  0.00540  0.03574  1.0000
  H   H763      1.0  0.64732  0.08436  0.84655  1.0000
  H   H764      1.0  0.74480  0.08058  0.89511  1.0000
  H   H765      1.0  0.67144  0.12123  0.86716  1.0000
  C   C745      1.0  0.90105  0.01944  0.83274  1.0000
  H   H766      1.0  0.58982  0.00034  0.22487  1.0000
  C   C746      1.0  0.52297  0.99856  0.00327  1.0000
  H   H767      1.0  0.72079  0.15865  0.00663  1.0000
  Fe  Fe122     1.0  0.61816  0.15307  0.15289  1.0000
  H   H768      1.0  0.77116  0.04638  0.28455  1.0000
  C   C747      1.0  0.92075  0.04779  0.06507  1.0000
  C   C748      1.0  0.69990  0.07880  0.95256  1.0000
  C   C749      1.0  0.66551  0.11805  0.17140  1.0000
  S   S248      1.0  0.82313  0.05104  0.85154  1.0000
  S   S249      1.0  0.74705  0.02568  0.93112  1.0000
  C   C750      1.0  0.50358  0.03285  0.20415  1.0000
  H   H769      1.0  0.53518  0.07833  0.24329  1.0000
  C   C751      1.0  0.74869  0.08039  0.03696  1.0000
  H   H770      1.0  0.89966  0.05436  0.97127  1.0000
  S   S250      1.0  0.93644  0.99312  0.13947  1.0000
  N   N63       1.0  0.47383  0.99177  0.05104  1.0000
  C   C752      1.0  0.90430  0.00047  0.87014  1.0000
  C   C753      1.0  0.76454  0.99937  0.07667  1.0000
  H   H771      1.0  0.47383  0.03748  0.88576  1.0000
  C   C754      1.0  0.74576  0.00575  0.08315  1.0000
  C   C755      1.0  0.72893  0.95229  0.14930  1.0000
  S   S251      1.0  0.59308  0.16949  0.15422  1.0000
  S   S252      1.0  0.63616  0.14761  0.21728  1.0000
  N   N64       1.0  0.70121  0.95398  0.86361  1.0000
  C   C756      1.0  0.79452  0.02935  0.27921  1.0000
  H   H772      1.0  0.85480  0.10602  0.12479  1.0000
  C   C757      1.0  0.71071  0.08032  0.04291  1.0000
  N   N65       1.0  0.87912  0.06958  0.93968  1.0000
  C   C758      1.0  0.93437  0.17099  0.27733  1.0000
  H   H773      1.0  0.65539  0.95752  0.98094  1.0000
  H   H774      1.0  0.87218  0.99939  0.23454  1.0000
  Fe  Fe123     1.0  0.79497  0.98652  0.83445  1.0000
  C   C759      1.0  0.54187  0.10310  0.07240  1.0000
  H   H775      1.0  0.85475  0.08230  0.92253  1.0000
  H   H776      1.0  0.65932  0.11311  0.22576  1.0000
  C   C760      1.0  0.73407  0.01088  0.24737  1.0000
  Fe  Fe124     1.0  0.87682  0.18321  0.23124  1.0000
  H   H777      1.0  0.57110  0.04078  0.12348  1.0000
  S   S253      1.0  0.59420  0.00036  0.84072  1.0000
  S   S254      1.0  0.44563  0.04351  0.81496  1.0000
  Fe  Fe125     1.0  0.61579  0.03821  0.84353  1.0000
  H   H778      1.0  0.81967  0.08732  0.09817  1.0000
  Fe  Fe126     1.0  0.79309  0.96943  0.29825  1.0000
  Fe  Fe127     1.0  0.78187  0.02344  0.87769  1.0000
  S   S255      1.0  0.77877  0.98611  0.93711  1.0000
  H   H779      1.0  0.92052  0.94249  0.89828  1.0000
  S   S256      1.0  0.92826  0.99467  0.82657  1.0000
  H   H780      1.0  0.69577  0.99167  0.08340  1.0000
  Fe  Fe128     1.0  0.82890  0.12553  0.29957  1.0000
  C   C761      1.0  0.48108  0.15525  0.01491  1.0000
  H   H781      1.0  0.77148  0.17090  0.92052  1.0000
  H   H782      1.0  0.69331  0.08029  0.07056  1.0000
  H   H783      1.0  0.69822  0.02010  0.95811  1.0000
  H   H784      1.0  0.75258  0.02668  0.05559  1.0000
  Fe  Fe129     1.0  0.92559  0.98065  0.25143  1.0000
  S   S257      1.0  0.79920  0.09515  0.28810  1.0000
  C   C762      1.0  0.46559  0.02022  0.87844  1.0000
  H   H785      1.0  0.45885  0.17233  0.83117  1.0000
  H   H786      1.0  0.48589  0.10246  0.14397  1.0000
  C   C763      1.0  0.82983  0.07477  0.27671  1.0000
  C   C764      1.0  0.48973  0.17251  0.94637  1.0000
  S   S258      1.0  0.65280  0.01092  0.22490  1.0000
  C   C765      1.0  0.49586  0.01624  0.02585  1.0000
  H   H787      1.0  0.68095  0.97855  0.17761  1.0000
  C   C766      1.0  0.75510  0.08000  0.97348  1.0000
  H   H788      1.0  0.78559  0.01511  0.04463  1.0000
  H   H789      1.0  0.93776  0.09007  0.02604  1.0000
  S   S259      1.0  0.87295  0.14511  0.23786  1.0000
  H   H790      1.0  0.86403  0.02749  0.09858  1.0000
  S   S260      1.0  0.83293  0.16443  0.28336  1.0000
  C   C767      1.0  0.61256  0.02902  0.11412  1.0000
  C   C768      1.0  0.63643  0.08934  0.88160  1.0000
  H   H791      1.0  0.55436  0.94468  0.97740  1.0000
  H   H792      1.0  0.63979  0.96204  0.12875  1.0000
  C   C769      1.0  0.63178  0.94851  0.18317  1.0000
  C   C770      1.0  0.70425  0.04110  0.85663  1.0000
  Fe  Fe130     1.0  0.62633  0.15147  0.01762  1.0000
  C   C771      1.0  0.63606  0.11761  0.93535  1.0000
  C   C772      1.0  0.68615  0.18308  0.18211  1.0000
  H   H793      1.0  0.64010  0.10362  0.07328  1.0000
  C   C773      1.0  0.57108  0.99222  0.10878  1.0000
  H   H794      1.0  0.51736  0.00027  0.84887  1.0000
  H   H795      1.0  0.82386  0.02850  0.13725  1.0000
  H   H796      1.0  0.53653  0.01326  0.10475  1.0000
  C   C774      1.0  0.49873  0.09469  0.05721  1.0000
  H   H797      1.0  0.85348  0.05836  0.27014  1.0000
  N   N66       1.0  0.71726  0.08015  0.98033  1.0000
  C   C775      1.0  0.60842  0.10318  0.96960  1.0000
  S   S261      1.0  0.63882  0.05333  0.11385  1.0000
  C   C776      1.0  0.93920  0.05933  0.21797  1.0000
  S   S262      1.0  0.53017  0.12040  0.16597  1.0000
  C   C777      1.0  0.68690  0.98802  0.29390  1.0000
  Fe  Fe131     1.0  0.82593  0.13527  0.87918  1.0000
  H   H798      1.0  0.90079  0.09759  0.12271  1.0000
  H   H799      1.0  0.90427  0.08698  0.19768  1.0000
  C   C778      1.0  0.58572  0.12787  0.83750  1.0000
  H   H800      1.0  0.84316  0.09175  0.27780  1.0000
  H   H801      1.0  0.55545  0.03291  0.84916  1.0000
  H   H802      1.0  0.54214  0.00113  0.98557  1.0000
  S   S263      1.0  0.59186  0.05309  0.89054  1.0000
  S   S264      1.0  0.64889  0.18266  0.03955  1.0000
  H   H803      1.0  0.93086  0.04001  0.21993  1.0000
  C   C779      1.0  0.83098  0.17991  0.06075  1.0000
  S   S265      1.0  0.48172  0.95297  0.25947  1.0000
  C   C780      1.0  0.69228  0.13712  0.11829  1.0000
  C   C781      1.0  0.83663  0.05522  0.03192  1.0000
  S   S266      1.0  0.77639  0.94711  0.83633  1.0000
  H   H804      1.0  0.75341  0.02932  0.22089  1.0000
  S   S267      1.0  0.63717  0.02536  0.88732  1.0000
  C   C782      1.0  0.51696  0.05939  0.26008  1.0000
  S   S268      1.0  0.82089  0.10249  0.96638  1.0000
  S   S269      1.0  0.46334  0.95115  0.92344  1.0000
  C   C783      1.0  0.83938  0.04006  0.08182  1.0000
  H   H805      1.0  0.68765  0.16597  0.19660  1.0000
  C   C784      1.0  0.86209  0.00488  0.93988  1.0000
  C   C785      1.0  0.69987  0.99274  0.12554  1.0000
  H   H806      1.0  0.55877  0.10670  0.07730  1.0000
  H   H807      1.0  0.77240  0.07980  0.94579  1.0000
  C   C786      1.0  0.47578  0.97054  0.05274  1.0000
  H   H808      1.0  0.68216  0.05785  0.98113  1.0000
  C   C787      1.0  0.84495  0.11665  0.98733  1.0000
  S   S270      1.0  0.80215  0.15125  0.91881  1.0000
  N   N67       1.0  0.52274  0.04778  0.21464  1.0000
  S   S271      1.0  0.49834  0.13514  0.86958  1.0000
  H   H809      1.0  0.48220  0.09168  0.05079  1.0000
  H   H810      1.0  0.56161  0.06184  0.19607  1.0000
  C   C788      1.0  0.54667  0.05056  0.18639  1.0000
  H   H811      1.0  0.45828  0.95117  0.07226  1.0000
  H   H812      1.0  0.92468  0.15267  0.15334  1.0000
  Fe  Fe132     1.0  0.79268  0.15141  0.83526  1.0000
  C   C789      1.0  0.70016  0.14390  0.04831  1.0000
  C   C790      1.0  0.61936  0.08543  0.21225  1.0000
  Fe  Fe133     1.0  0.67364  0.03263  0.26893  1.0000
  S   S272      1.0  0.75403  0.14405  0.84939  1.0000
  C   C791      1.0  0.86216  0.03973  0.06002  1.0000
  C   C792      1.0  0.91178  0.09105  0.14227  1.0000
  C   C793      1.0  0.56978  0.98664  0.17304  1.0000
  C   C794      1.0  0.50035  0.97357  0.02934  1.0000
  H   H813      1.0  0.60842  0.07185  0.19612  1.0000
  C   C795      1.0  0.59837  0.94285  0.84008  1.0000
  H   H814      1.0  0.80412  0.95592  0.98617  1.0000
  C   C796      1.0  0.54561  0.17426  0.00335  1.0000
  C   C797      1.0  0.75602  0.97246  0.11000  1.0000
  C   C798      1.0  0.90045  0.08581  0.86510  1.0000
  H   H815      1.0  0.77321  0.17704  0.30736  1.0000
  C   C799      1.0  0.88444  0.13837  0.01817  1.0000
  C   C800      1.0  0.53266  0.02317  0.13494  1.0000
  C   C801      1.0  0.61809  0.95234  0.23713  1.0000
  C   C802      1.0  0.86645  0.98741  0.97867  1.0000
  C   C803      1.0  0.90226  0.02213  0.12380  1.0000
  H   H816      1.0  0.66957  0.98849  0.30515  1.0000
  C   C804      1.0  0.68433  0.96337  0.31230  1.0000
  H   H817      1.0  0.91072  0.97842  0.06431  1.0000
  H   H818      1.0  0.88978  0.97038  0.97345  1.0000
  C   C805      1.0  0.73923  0.08014  0.94542  1.0000
  S   S273      1.0  0.45168  0.07181  0.94289  1.0000
  Fe  Fe134     1.0  0.82100  0.01345  0.90332  1.0000
  C   C806      1.0  0.59301  0.01607  0.04768  1.0000
  C   C807      1.0  0.83930  0.10480  0.05645  1.0000
  C   C808      1.0  0.68129  0.13174  0.03214  1.0000
  C   C809      1.0  0.88205  0.05482  0.98828  1.0000
  C   C810      1.0  0.66456  0.94870  0.95642  1.0000
  H   H819      1.0  0.69319  0.09228  0.95908  1.0000
  H   H820      1.0  0.92198  0.17445  0.26033  1.0000
  C   C811      1.0  0.88696  0.01924  0.18868  1.0000
  C   C812      1.0  0.91075  0.96163  0.09384  1.0000
  C   C813      1.0  0.92306  0.96403  0.13274  1.0000
  C   C814      1.0  0.55208  0.03851  0.14572  1.0000
  C   C815      1.0  0.72643  0.08069  0.07179  1.0000
  S   S274      1.0  0.78021  0.96413  0.22255  1.0000
  C   C816      1.0  0.83567  0.05577  0.27232  1.0000
  C   C817      1.0  0.59072  0.00487  0.17549  1.0000
  C   C818      1.0  0.73131  0.98599  0.26819  1.0000
  H   H821      1.0  0.55281  0.96822  0.22057  1.0000
  S   S275      1.0  0.90973  0.15163  0.03561  1.0000
  Fe  Fe135     1.0  0.63870  0.03806  0.21300  1.0000
  C   C819      1.0  0.61359  0.03453  0.05031  1.0000
  C   C820      1.0  0.70637  0.96222  0.30097  1.0000
  H   H822      1.0  0.48123  0.00151  0.92584  1.0000
  H   H823      1.0  0.49402  0.03278  0.02548  1.0000
  N   N68       1.0  0.64718  0.10579  0.15529  1.0000
  C   C821      1.0  0.53545  0.17099  0.23741  1.0000
  C   C822      1.0  0.59487  0.08226  0.95840  1.0000
  H   H824      1.0  0.60924  0.09531  0.22839  1.0000
  C   C823      1.0  0.51792  0.09212  0.01397  1.0000
  C   C824      1.0  0.65003  0.11013  0.89331  1.0000
  C   C825      1.0  0.88980  0.15053  0.94978  1.0000
  C   C826      1.0  0.50097  0.10107  0.10915  1.0000
  H   H825      1.0  0.55203  0.00774  0.28792  1.0000
  H   H826      1.0  0.59396  0.02045  0.99819  1.0000
  H   H827      1.0  0.85285  0.14617  0.13509  1.0000
  H   H828      1.0  0.61786  0.07250  0.25949  1.0000
  H   H829      1.0  0.77048  0.96731  0.10440  1.0000
  S   S276      1.0  0.82543  0.00884  0.27462  1.0000
  C   C827      1.0  0.92358  0.07025  0.07217  1.0000
  H   H830      1.0  0.72139  0.08115  0.12097  1.0000
  N   N69       1.0  0.71922  0.98584  0.12195  1.0000
  S   S277      1.0  0.54599  0.97040  0.10107  1.0000
  H   H831      1.0  0.89972  0.00450  0.11913  1.0000
  N   N70       1.0  0.52636  0.17463  0.98452  1.0000
  H   H832      1.0  0.57833  0.10616  0.86073  1.0000
  H   H833      1.0  0.59763  0.10878  0.00258  1.0000
  H   H834      1.0  0.49272  0.00809  0.15741  1.0000
  C   C828      1.0  0.94463  0.17029  0.11428  1.0000
  C   C829      1.0  0.71071  0.95937  0.15414  1.0000
  H   H835      1.0  0.61508  0.96846  0.22424  1.0000
  C   C830      1.0  0.45480  0.14955  0.24409  1.0000
  S   S278      1.0  0.59650  0.12076  0.13163  1.0000
  S   S279      1.0  0.65344  0.14651  0.93941  1.0000
  H   H836      1.0  0.53828  0.03986  0.97922  1.0000
  C   C831      1.0  0.85693  0.07022  0.96075  1.0000
  C   C832      1.0  0.66267  0.17961  0.18808  1.0000
  C   C833      1.0  0.75708  0.17320  0.85003  1.0000
  H   H837      1.0  0.46005  0.14041  0.05304  1.0000
  C   C834      1.0  0.68963  0.96513  0.89441  1.0000
  H   H838      1.0  0.81341  0.17709  0.06026  1.0000
  H   H839      1.0  0.49280  0.14363  0.08719  1.0000
  C   C835      1.0  0.45878  0.97716  0.89316  1.0000
  S   S280      1.0  0.60146  0.16706  0.00711  1.0000
  C   C836      1.0  0.83027  0.15836  0.10282  1.0000
  H   H840      1.0  0.90900  0.16870  0.90873  1.0000
  Fe  Fe136     1.0  0.45609  0.11158  0.89903  1.0000
  C   C837      1.0  0.60893  0.07598  0.91266  1.0000
  Fe  Fe137     1.0  0.49511  0.09604  0.90271  1.0000
  S   S281      1.0  0.47321  0.16671  0.27493  1.0000
  H   H841      1.0  0.53439  0.15903  0.20961  1.0000
  H   H842      1.0  0.71044  0.08557  0.89516  1.0000
  H   H843      1.0  0.54909  0.15897  0.99534  1.0000
  C   C838      1.0  0.46951  0.99967  0.90200  1.0000
  C   C839      1.0  0.49975  0.15685  0.03349  1.0000
  C   C840      1.0  0.92325  0.94239  0.17035  1.0000
  H   H844      1.0  0.91507  0.10596  0.85446  1.0000
  H   H845      1.0  0.91100  0.07601  0.85098  1.0000
  C   C841      1.0  0.94434  0.95587  0.94183  1.0000
  H   H846      1.0  0.60896  0.17317  0.84344  1.0000
  H   H847      1.0  0.89249  0.08831  0.83024  1.0000
  H   H848      1.0  0.57785  0.17606  0.82285  1.0000
  C   C842      1.0  0.87679  0.18838  0.05791  1.0000
  Fe  Fe138     1.0  0.50651  0.94094  0.20111  1.0000
  H   H849      1.0  0.74256  0.97181  0.81569  1.0000
  H   H850      1.0  0.57557  0.94189  0.16500  1.0000
  N   N71       1.0  0.61351  0.14460  0.81619  1.0000
  C   C843      1.0  0.62242  0.16768  0.82092  1.0000
  Fe  Fe139     1.0  0.70605  0.17813  0.57801  1.0000
  C   C844      1.0  0.50075  0.99882  0.42467  1.0000
  H   H851      1.0  0.79349  0.03297  0.42975  1.0000
  H   H852      1.0  0.68748  0.19026  0.75230  1.0000
  S   S282      1.0  0.60196  0.01171  0.32065  1.0000
  C   C845      1.0  0.44842  0.16174  0.46801  1.0000
  H   H853      1.0  0.56331  0.13468  0.54174  1.0000
  S   S283      1.0  0.83709  0.01103  0.80458  1.0000
  S   S284      1.0  0.89061  0.11933  0.37396  1.0000
  S   S285      1.0  0.82523  0.11479  0.40467  1.0000
  C   C846      1.0  0.89372  0.96937  0.61346  1.0000
  H   H854      1.0  0.89292  0.07786  0.50265  1.0000
  C   C847      1.0  0.63603  0.08546  0.46844  1.0000
  H   H855      1.0  0.71619  0.07447  0.42334  1.0000
  H   H856      1.0  0.60352  0.94794  0.73936  1.0000
  H   H857      1.0  0.88088  0.00706  0.69727  1.0000
  C   C848      1.0  0.84333  0.04410  0.46054  1.0000
  H   H858      1.0  0.72935  0.96371  0.76226  1.0000
  C   C849      1.0  0.74783  0.09949  0.43332  1.0000
  H   H859      1.0  0.55135  0.15454  0.77723  1.0000
  C   C850      1.0  0.65758  0.15422  0.76444  1.0000
  H   H860      1.0  0.93253  0.12153  0.39167  1.0000
  S   S286      1.0  0.86344  0.17642  0.80100  1.0000
  Fe  Fe140     1.0  0.83311  0.15550  0.38346  1.0000
  Fe  Fe141     1.0  0.90729  0.99917  0.35422  1.0000
  C   C851      1.0  0.48775  0.95771  0.41735  1.0000
  H   H861      1.0  0.67107  0.14848  0.74366  1.0000
  C   C852      1.0  0.45499  0.02055  0.66172  1.0000
  H   H862      1.0  0.45947  0.17698  0.47855  1.0000
  C   C853      1.0  0.74243  0.12509  0.56231  1.0000
  H   H863      1.0  0.51782  0.96016  0.33185  1.0000
  C   C854      1.0  0.63319  0.14060  0.37221  1.0000
  C   C855      1.0  0.65727  0.10578  0.46512  1.0000
  C   C856      1.0  0.55858  0.03063  0.80290  1.0000
  C   C857      1.0  0.70992  0.00968  0.42647  1.0000
  H   H864      1.0  0.93993  0.17634  0.47262  1.0000
  S   S287      1.0  0.92079  0.94598  0.33147  1.0000
  H   H865      1.0  0.91473  0.03254  0.77725  1.0000
  C   C858      1.0  0.93519  0.09120  0.51817  1.0000
  Fe  Fe142     1.0  0.69631  0.15752  0.47967  1.0000
  S   S288      1.0  0.79507  0.02186  0.77666  1.0000
  H   H866      1.0  0.90171  0.98921  0.74890  1.0000
  H   H867      1.0  0.55667  0.95123  0.47012  1.0000
  C   C859      1.0  0.45388  0.02825  0.38727  1.0000
  S   S289      1.0  0.60744  0.12024  0.68975  1.0000
  Fe  Fe143     1.0  0.83641  0.04684  0.75395  1.0000
  N   N72       1.0  0.92927  0.08106  0.47684  1.0000
  S   S290      1.0  0.46631  0.11569  0.79211  1.0000
  H   H868      1.0  0.72017  0.96899  0.45726  1.0000
  C   C860      1.0  0.87014  0.98566  0.73282  1.0000
  H   H869      1.0  0.47919  0.05274  0.67322  1.0000
  H   H870      1.0  0.75556  0.12112  0.57723  1.0000
  S   S291      1.0  0.62916  0.02065  0.63509  1.0000
  H   H871      1.0  0.74786  0.00206  0.42631  1.0000
  C   C861      1.0  0.53596  0.00834  0.52552  1.0000
  C   C862      1.0  0.66674  0.08132  0.38355  1.0000
  H   H872      1.0  0.54595  0.14675  0.58847  1.0000
  N   N73       1.0  0.73493  0.11044  0.52575  1.0000
  C   C863      1.0  0.87826  0.99118  0.55290  1.0000
  C   C864      1.0  0.63070  0.13777  0.78839  1.0000
  S   S292      1.0  0.67530  0.18767  0.59546  1.0000
  H   H873      1.0  0.57979  0.09103  0.53832  1.0000
  C   C865      1.0  0.58491  0.10189  0.66997  1.0000
  C   C866      1.0  0.72738  0.98528  0.47065  1.0000
  C   C867      1.0  0.55328  0.95802  0.72224  1.0000
  C   C868      1.0  0.80830  0.00756  0.44074  1.0000
  H   H874      1.0  0.74353  0.18123  0.77925  1.0000
  H   H875      1.0  0.88985  0.04681  0.54680  1.0000
  H   H876      1.0  0.68188  0.15478  0.34141  1.0000
  H   H877      1.0  0.57114  0.14136  0.68380  1.0000
  C   C869      1.0  0.55910  0.13937  0.58565  1.0000
  C   C870      1.0  0.77114  0.16581  0.67048  1.0000
  S   S293      1.0  0.67973  0.13690  0.59613  1.0000
  Fe  Fe144     1.0  0.62917  0.02161  0.73116  1.0000
  H   H878      1.0  0.69371  0.09432  0.58747  1.0000
  C   C871      1.0  0.53965  0.06738  0.71284  1.0000
  H   H879      1.0  0.62955  0.95112  0.55925  1.0000
  H   H880      1.0  0.68113  0.07042  0.52454  1.0000
  S   S294      1.0  0.50801  0.09948  0.79588  1.0000
  C   C872      1.0  0.74757  0.06134  0.75554  1.0000
  H   H881      1.0  0.46443  0.01002  0.67015  1.0000
  H   H882      1.0  0.82563  0.06613  0.44539  1.0000
  C   C873      1.0  0.54141  0.01096  0.74101  1.0000
  H   H883      1.0  0.57505  0.98091  0.75915  1.0000
  C   C874      1.0  0.70896  0.09552  0.54502  1.0000
  H   H884      1.0  0.90904  0.97049  0.62373  1.0000
  H   H885      1.0  0.61601  0.07944  0.50215  1.0000
  C   C875      1.0  0.90154  0.06582  0.49618  1.0000
  C   C876      1.0  0.68807  0.10229  0.37840  1.0000
  H   H886      1.0  0.75420  0.16714  0.69250  1.0000
  H   H887      1.0  0.90372  0.95156  0.79901  1.0000
  H   H888      1.0  0.77529  0.05637  0.77859  1.0000
  H   H889      1.0  0.79448  0.99329  0.43309  1.0000
  C   C877      1.0  0.46078  0.08401  0.65226  1.0000
  H   H890      1.0  0.54665  0.15630  0.44542  1.0000
  C   C878      1.0  0.56386  0.17626  0.42115  1.0000
  H   H891      1.0  0.55653  0.01996  0.51376  1.0000
  C   C879      1.0  0.72207  0.05623  0.78358  1.0000
  H   H892      1.0  0.85726  0.05848  0.46765  1.0000
  C   C880      1.0  0.82591  0.97965  0.45581  1.0000
  H   H893      1.0  0.50430  0.18262  0.55279  1.0000
  H   H894      1.0  0.61314  0.11890  0.56016  1.0000
  C   C881      1.0  0.67542  0.99678  0.56139  1.0000
  C   C882      1.0  0.57908  0.96939  0.60093  1.0000
  C   C883      1.0  0.94048  0.14099  0.35050  1.0000
  H   H895      1.0  0.72486  0.11869  0.61185  1.0000
  C   C884      1.0  0.57379  0.08913  0.59011  1.0000
  S   S295      1.0  0.87719  0.17625  0.33063  1.0000
  C   C885      1.0  0.64071  0.07323  0.42751  1.0000
  S   S296      1.0  0.90069  0.96630  0.44379  1.0000
  C   C886      1.0  0.57017  0.02520  0.61747  1.0000
  Fe  Fe145     1.0  0.55976  0.12088  0.39005  1.0000
  C   C887      1.0  0.69244  0.98791  0.54976  1.0000
  H   H896      1.0  0.80957  0.96192  0.50863  1.0000
  H   H897      1.0  0.44795  0.11203  0.43465  1.0000
  H   H898      1.0  0.66319  0.01984  0.51239  1.0000
  C   C888      1.0  0.60041  0.99375  0.65017  1.0000
  H   H899      1.0  0.46904  0.10026  0.59924  1.0000
  C   C889      1.0  0.87107  0.13927  0.68083  1.0000
  S   S297      1.0  0.87000  0.07953  0.64327  1.0000
  H   H900      1.0  0.52449  0.99774  0.74019  1.0000
  C   C890      1.0  0.78853  0.97394  0.70056  1.0000
  S   S298      1.0  0.64902  0.06071  0.73084  1.0000
  H   H901      1.0  0.63979  0.12970  0.34798  1.0000
  C   C891      1.0  0.64911  0.18451  0.79764  1.0000
  C   C892      1.0  0.75533  0.05169  0.80044  1.0000
  Fe  Fe146     1.0  0.65036  0.14802  0.60420  1.0000
  Fe  Fe147     1.0  0.50129  0.07995  0.45826  1.0000
  H   H902      1.0  0.76129  0.07265  0.69905  1.0000
  H   H903      1.0  0.55601  0.00457  0.62974  1.0000
  S   S299      1.0  0.53614  0.09998  0.34951  1.0000
  S   S300      1.0  0.75194  0.94349  0.39447  1.0000
  H   H904      1.0  0.61991  0.00248  0.54216  1.0000
  S   S301      1.0  0.71320  0.06953  0.72659  1.0000
  C   C893      1.0  0.84950  0.94324  0.63449  1.0000
  N   N74       1.0  0.70968  0.99474  0.48275  1.0000
  H   H905      1.0  0.66164  0.99124  0.61471  1.0000
  C   C894      1.0  0.46076  0.04165  0.42345  1.0000
  N   N75       1.0  0.82609  0.00363  0.45218  1.0000
  C   C895      1.0  0.68336  0.11462  0.41896  1.0000
  C   C896      1.0  0.58668  0.15828  0.63138  1.0000
  H   H906      1.0  0.91959  0.08804  0.56447  1.0000
  C   C897      1.0  0.54797  0.97840  0.49692  1.0000
  C   C898      1.0  0.46299  0.16764  0.61438  1.0000
  C   C899      1.0  0.76279  0.95262  0.65482  1.0000
  H   H907      1.0  0.83860  0.96560  0.57722  1.0000
  C   C900      1.0  0.53720  0.01249  0.80258  1.0000
  C   C901      1.0  0.58712  0.18579  0.35968  1.0000
  H   H908      1.0  0.85645  0.01761  0.47522  1.0000
  Fe  Fe148     1.0  0.66906  0.04511  0.77406  1.0000
  H   H909      1.0  0.55219  0.08136  0.77701  1.0000
  C   C902      1.0  0.88194  0.97543  0.76161  1.0000
  C   C903      1.0  0.88290  0.15338  0.55957  1.0000
  H   H910      1.0  0.56868  0.99386  0.47338  1.0000
  H   H911      1.0  0.61884  0.14176  0.35797  1.0000
  C   C904      1.0  0.52633  0.01182  0.36669  1.0000
  C   C905      1.0  0.54132  0.95440  0.49471  1.0000
  H   H912      1.0  0.88535  0.12577  0.52239  1.0000
  S   S302      1.0  0.55135  0.04541  0.33450  1.0000
  S   S303      1.0  0.71031  0.14207  0.40824  1.0000
  H   H913      1.0  0.67047  0.07160  0.35303  1.0000
  H   H914      1.0  0.52232  0.00558  0.57639  1.0000
  H   H915      1.0  0.69154  0.97538  0.59494  1.0000
  S   S304      1.0  0.61393  0.04846  0.43057  1.0000
  S   S305      1.0  0.81194  0.16594  0.45847  1.0000
  N   N76       1.0  0.58374  0.15996  0.57515  1.0000
  C   C906      1.0  0.70174  0.08193  0.50945  1.0000
  H   H916      1.0  0.53518  0.02060  0.48251  1.0000
  C   C907      1.0  0.53235  0.99782  0.33305  1.0000
  N   N77       1.0  0.56640  0.02644  0.68213  1.0000
  C   C908      1.0  0.72138  0.08419  0.45281  1.0000
  H   H917      1.0  0.72318  0.01468  0.37349  1.0000
  C   C909      1.0  0.87696  0.15783  0.61748  1.0000
  C   C910      1.0  0.55831  0.08356  0.72476  1.0000
  H   H918      1.0  0.93090  0.14862  0.58954  1.0000
  C   C911      1.0  0.89797  0.99268  0.56667  1.0000
  C   C912      1.0  0.67601  0.01254  0.50407  1.0000
  H   H919      1.0  0.78514  0.11960  0.65920  1.0000
  H   H920      1.0  0.88732  0.16762  0.51056  1.0000
  H   H921      1.0  0.62292  0.12879  0.43031  1.0000
  S   S306      1.0  0.54269  0.17621  0.66924  1.0000
  C   C913      1.0  0.86945  0.94455  0.64722  1.0000
  H   H922      1.0  0.46986  0.03662  0.45089  1.0000
  H   H923      1.0  0.79617  0.99389  0.59621  1.0000
  H   H924      1.0  0.54821  0.12026  0.63541  1.0000
  H   H925      1.0  0.72862  0.97738  0.51775  1.0000
  N   N78       1.0  0.52862  0.98235  0.52836  1.0000
  C   C914      1.0  0.65264  0.18846  0.33657  1.0000
  S   S307      1.0  0.88562  0.97100  0.32308  1.0000
  H   H926      1.0  0.82294  0.97556  0.41473  1.0000
  C   C915      1.0  0.88170  0.12969  0.56636  1.0000
  S   S308      1.0  0.65167  0.00778  0.76599  1.0000
  H   H927      1.0  0.74653  0.12304  0.70944  1.0000
  H   H928      1.0  0.70822  0.10905  0.34267  1.0000
  C   C916      1.0  0.58754  0.04418  0.68210  1.0000
  H   H929      1.0  0.49335  0.17711  0.72725  1.0000
  C   C917      1.0  0.76664  0.14078  0.68018  1.0000
  S   S309      1.0  0.46514  0.07845  0.46819  1.0000
  C   C918      1.0  0.56365  0.17625  0.75217  1.0000
  C   C919      1.0  0.45658  0.14512  0.45502  1.0000
  C   C920      1.0  0.69315  0.01883  0.43619  1.0000
  H   H930      1.0  0.53450  0.94604  0.77190  1.0000
  C   C921      1.0  0.78826  0.13878  0.65253  1.0000
  C   C922      1.0  0.84304  0.02121  0.46366  1.0000
  C   C923      1.0  0.77222  0.94989  0.76484  1.0000
  H   H931      1.0  0.65348  0.11491  0.49740  1.0000
  S   S310      1.0  0.52447  0.10250  0.49691  1.0000
  S   S311      1.0  0.48086  0.95361  0.74632  1.0000
  S   S312      1.0  0.72777  0.18738  0.63356  1.0000
  C   C924      1.0  0.75426  0.11251  0.47072  1.0000
  S   S313      1.0  0.50416  0.04489  0.49909  1.0000
  H   H932      1.0  0.46214  0.96161  0.49676  1.0000
  C   C925      1.0  0.84462  0.96801  0.74910  1.0000
  S   S314      1.0  0.92700  0.02457  0.52473  1.0000
  C   C926      1.0  0.80750  0.02982  0.43933  1.0000
  C   C927      1.0  0.85398  0.96656  0.58713  1.0000
  S   S315      1.0  0.66507  0.16596  0.48942  1.0000
  C   C928      1.0  0.54740  0.07004  0.64572  1.0000
  H   H933      1.0  0.84505  0.98233  0.44652  1.0000
  C   C929      1.0  0.60166  0.98959  0.59312  1.0000
  S   S316      1.0  0.90166  0.03218  0.35770  1.0000
  C   C930      1.0  0.82546  0.04840  0.44814  1.0000
  C   C931      1.0  0.81398  0.16159  0.61640  1.0000
  Fe  Fe149     1.0  0.62756  0.03430  0.35507  1.0000
  H   H934      1.0  0.47404  0.14735  0.45517  1.0000
  C   C932      1.0  0.46339  0.04485  0.66296  1.0000
  H   H935      1.0  0.83090  0.16018  0.59488  1.0000
  H   H936      1.0  0.47637  0.08951  0.66563  1.0000
  Fe  Fe150     1.0  0.50841  0.13692  0.76518  1.0000
  H   H937      1.0  0.80471  0.99149  0.69336  1.0000
  H   H938      1.0  0.59045  0.03035  0.58424  1.0000
  Fe  Fe151     1.0  0.93907  0.97478  0.36597  1.0000
  H   H939      1.0  0.49567  0.00954  0.44976  1.0000
  H   H940      1.0  0.86724  0.14299  0.72504  1.0000
  C   C933      1.0  0.87432  0.11045  0.63125  1.0000
  Fe  Fe152     1.0  0.84932  0.17388  0.72616  1.0000
  H   H941      1.0  0.48716  0.96622  0.58181  1.0000
  H   H942      1.0  0.89974  0.06064  0.45532  1.0000
  H   H943      1.0  0.83532  0.97547  0.72615  1.0000
  H   H944      1.0  0.56726  0.03958  0.58657  1.0000
  S   S317      1.0  0.59075  0.16549  0.32333  1.0000
  S   S318      1.0  0.63911  0.00517  0.38049  1.0000
  S   S319      1.0  0.59288  0.94094  0.37524  1.0000
  H   H945      1.0  0.76329  0.10147  0.38917  1.0000
  C   C934      1.0  0.57624  0.97767  0.71514  1.0000
  S   S320      1.0  0.81312  0.13160  0.80194  1.0000
  Fe  Fe153     1.0  0.53076  0.06937  0.52745  1.0000
  C   C935      1.0  0.51300  0.97090  0.35785  1.0000
  N   N79       1.0  0.45151  0.05818  0.65286  1.0000
  C   C936      1.0  0.86978  0.11566  0.68765  1.0000
  H   H946      1.0  0.73364  0.99236  0.77301  1.0000
  H   H947      1.0  0.69351  0.03071  0.39118  1.0000
  N   N80       1.0  0.65574  0.16754  0.34592  1.0000
  N   N81       1.0  0.86894  0.94836  0.80411  1.0000
  C   C937      1.0  0.48162  0.97172  0.45065  1.0000
  C   C938      1.0  0.57916  0.18842  0.77699  1.0000
  S   S321      1.0  0.75570  0.95374  0.58810  1.0000
  H   H948      1.0  0.75320  0.14710  0.52736  1.0000
  H   H949      1.0  0.51920  0.05275  0.75578  1.0000
  H   H950      1.0  0.91645  0.94276  0.54686  1.0000
  S   S322      1.0  0.52409  0.04837  0.63349  1.0000
  H   H951      1.0  0.86529  0.10151  0.73664  1.0000
  C   C939      1.0  0.50247  0.96287  0.55818  1.0000
  H   H952      1.0  0.88178  0.00911  0.51587  1.0000
  H   H953      1.0  0.58028  0.96639  0.55643  1.0000
  H   H954      1.0  0.77483  0.12438  0.45528  1.0000
  C   C940      1.0  0.55479  0.95391  0.66497  1.0000
  C   C941      1.0  0.59265  0.10485  0.60244  1.0000
  Fe  Fe154     1.0  0.54090  0.06652  0.39286  1.0000
  S   S323      1.0  0.56798  0.08922  0.42377  1.0000
  H   H955      1.0  0.45779  0.01296  0.38677  1.0000
  C   C942      1.0  0.58393  0.04661  0.74242  1.0000
  C   C943      1.0  0.45551  0.06125  0.42477  1.0000
  S   S324      1.0  0.45298  0.13861  0.60576  1.0000
  H   H956      1.0  0.54527  0.18496  0.50049  1.0000
  H   H957      1.0  0.60728  0.05676  0.63505  1.0000
  H   H958      1.0  0.60049  0.06131  0.74188  1.0000
  C   C944      1.0  0.78388  0.97524  0.64534  1.0000
  H   H959      1.0  0.62360  0.11923  0.78580  1.0000
  C   C945      1.0  0.81777  0.18624  0.60841  1.0000
  C   C946      1.0  0.66680  0.17771  0.76929  1.0000
  C   C947      1.0  0.92402  0.14558  0.33076  1.0000
  Fe  Fe155     1.0  0.86955  0.13643  0.34215  1.0000
  S   S325      1.0  0.87506  0.18541  0.61378  1.0000
  C   C948      1.0  0.75194  0.18856  0.80786  1.0000
  Fe  Fe156     1.0  0.61721  0.98542  0.33460  1.0000
  C   C949      1.0  0.67942  0.17130  0.33425  1.0000
  H   H960      1.0  0.61190  0.17691  0.66706  1.0000
  C   C950      1.0  0.60963  0.17846  0.62233  1.0000
  H   H961      1.0  0.63394  0.18545  0.34531  1.0000
  H   H962      1.0  0.66517  0.94522  0.33582  1.0000
  C   C951      1.0  0.49021  0.18654  0.58091  1.0000
  H   H963      1.0  0.58363  0.13350  0.79124  1.0000
  H   H964      1.0  0.92716  0.08872  0.31766  1.0000
  H   H965      1.0  0.94407  0.07553  0.38822  1.0000
  N   N82       1.0  0.79647  0.18817  0.63445  1.0000
  C   C952      1.0  0.60312  0.18161  0.50939  1.0000
  H   H966      1.0  0.60070  0.18303  0.46510  1.0000
  C   C953      1.0  0.72801  0.97137  0.80047  1.0000
  C   C954      1.0  0.44485  0.17269  0.65149  1.0000
  H   H967      1.0  0.50858  0.04495  0.31532  1.0000
  C   C955      1.0  0.48485  0.26022  0.89683  1.0000
  S   S326      1.0  0.86234  0.28891  0.26988  1.0000
  S   S327      1.0  0.48208  0.23199  0.16278  1.0000
  H   H968      1.0  0.78330  0.21561  0.90796  1.0000
  C   C956      1.0  0.73733  0.28790  0.29076  1.0000
  Fe  Fe157     1.0  0.49859  0.26178  0.19666  1.0000
  H   H969      1.0  0.59288  0.31705  0.10216  1.0000
  C   C957      1.0  0.44883  0.39252  0.98769  1.0000
  S   S328      1.0  0.78871  0.37607  0.15934  1.0000
  H   H970      1.0  0.92320  0.25043  0.27574  1.0000
  H   H971      1.0  0.71089  0.41328  0.18304  1.0000
  H   H972      1.0  0.80446  0.19365  0.22545  1.0000
  S   S329      1.0  0.62895  0.30628  0.93878  1.0000
  Fe  Fe158     1.0  0.61065  0.29341  0.87851  1.0000
  H   H973      1.0  0.86629  0.33564  0.15740  1.0000
  S   S330      1.0  0.54065  0.29753  0.12368  1.0000
  H   H974      1.0  0.67983  0.24409  0.13795  1.0000
  H   H975      1.0  0.49158  0.39381  0.11976  1.0000
  C   C958      1.0  0.48104  0.30016  0.02609  1.0000
  H   H976      1.0  0.74215  0.42045  0.95820  1.0000
  C   C959      1.0  0.53127  0.29656  0.81610  1.0000
  S   S331      1.0  0.90420  0.22231  0.12972  1.0000
  C   C960      1.0  0.63592  0.29034  0.08579  1.0000
  C   C961      1.0  0.86515  0.43262  0.27079  1.0000
  C   C962      1.0  0.87033  0.28685  0.98266  1.0000
  C   C963      1.0  0.70766  0.20868  0.15801  1.0000
  C   C964      1.0  0.90689  0.40727  0.16313  1.0000
  N   N83       1.0  0.72676  0.26845  0.89727  1.0000
  H   H977      1.0  0.76030  0.23902  0.17851  1.0000
  H   H978      1.0  0.92790  0.35071  0.17424  1.0000
  C   C965      1.0  0.90163  0.41985  0.11545  1.0000
  C   C966      1.0  0.62771  0.33271  0.94825  1.0000
  C   C967      1.0  0.67551  0.29993  0.98775  1.0000
  Fe  Fe159     1.0  0.80571  0.40523  0.19426  1.0000
  C   C968      1.0  0.75320  0.43742  0.13658  1.0000
  H   H979      1.0  0.74776  0.31606  0.01875  1.0000
  H   H980      1.0  0.66509  0.35044  0.94244  1.0000
  C   C969      1.0  0.70536  0.23065  0.14228  1.0000
  H   H981      1.0  0.82492  0.24477  0.24925  1.0000
  S   S332      1.0  0.46146  0.26114  0.24320  1.0000
  H   H982      1.0  0.72566  0.21122  0.15426  1.0000
  H   H983      1.0  0.71050  0.37052  0.90383  1.0000
  Fe  Fe160     1.0  0.62018  0.33042  0.28966  1.0000
  H   H984      1.0  0.82362  0.28463  0.20392  1.0000
  C   C970      1.0  0.75857  0.43966  0.94709  1.0000
  C   C971      1.0  0.49074  0.31355  0.95417  1.0000
  H   H985      1.0  0.58726  0.23330  0.24308  1.0000
  H   H986      1.0  0.72173  0.28812  0.28387  1.0000
  S   S333      1.0  0.83739  0.39799  0.18499  1.0000
  C   C972      1.0  0.58107  0.31731  0.14809  1.0000
  H   H987      1.0  0.89462  0.19141  0.05704  1.0000
  C   C973      1.0  0.90238  0.38405  0.00585  1.0000
  H   H988      1.0  0.71373  0.41359  0.87513  1.0000
  C   C974      1.0  0.76396  0.30766  0.23766  1.0000
  S   S334      1.0  0.92855  0.40690  0.24510  1.0000
  S   S335      1.0  0.69602  0.43256  0.96602  1.0000
  C   C975      1.0  0.85754  0.24164  0.29627  1.0000
  H   H989      1.0  0.54076  0.25085  0.18835  1.0000
  H   H990      1.0  0.56735  0.42462  0.30719  1.0000
  N   N84       1.0  0.75674  0.43876  0.01259  1.0000
  H   H991      1.0  0.63202  0.39081  0.10718  1.0000
  C   C976      1.0  0.82698  0.39338  0.83160  1.0000
  Fe  Fe161     1.0  0.45597  0.36021  0.28652  1.0000
  S   S336      1.0  0.59211  0.31206  0.83788  1.0000
  C   C977      1.0  0.68169  0.22713  0.14948  1.0000
  C   C978      1.0  0.56656  0.21153  0.12085  1.0000
  H   H992      1.0  0.91247  0.39698  0.02316  1.0000
  C   C979      1.0  0.59236  0.32673  0.18474  1.0000
  C   C980      1.0  0.76945  0.39133  0.01343  1.0000
  C   C981      1.0  0.79359  0.19567  0.27061  1.0000
  C   C982      1.0  0.71341  0.22433  0.97465  1.0000
  C   C983      1.0  0.72682  0.26136  0.84658  1.0000
  C   C984      1.0  0.88497  0.43716  0.28654  1.0000
  H   H993      1.0  0.81176  0.34969  0.05291  1.0000
  H   H994      1.0  0.57647  0.27341  0.06396  1.0000
  C   C985      1.0  0.78423  0.30740  0.24584  1.0000
  H   H995      1.0  0.89359  0.38839  0.86799  1.0000
  H   H996      1.0  0.55608  0.20521  0.87773  1.0000
  C   C986      1.0  0.54982  0.36522  0.06827  1.0000
  C   C987      1.0  0.75148  0.37982  0.08545  1.0000
  C   C988      1.0  0.53503  0.19136  0.91680  1.0000
  C   C989      1.0  0.47525  0.41130  0.96348  1.0000
  H   H997      1.0  0.76157  0.19895  0.22738  1.0000
  H   H998      1.0  0.86760  0.33872  0.94129  1.0000
  C   C990      1.0  0.51690  0.19083  0.89689  1.0000
  H   H999      1.0  0.69250  0.31006  0.99400  1.0000
  H   H1000     1.0  0.90879  0.32442  0.91521  1.0000
  C   C991      1.0  0.77391  0.24005  0.19625  1.0000
  C   C992      1.0  0.57741  0.32797  0.24273  1.0000
  C   C993      1.0  0.45033  0.31181  0.98261  1.0000
  H   H1001     1.0  0.56586  0.37643  0.19543  1.0000
  C   C994      1.0  0.85471  0.20546  0.01861  1.0000
  C   C995      1.0  0.53952  0.30897  0.22961  1.0000
  H   H1002     1.0  0.46967  0.23997  0.94005  1.0000
  H   H1003     1.0  0.66610  0.41232  0.13469  1.0000
  Fe  Fe162     1.0  0.56406  0.27105  0.85801  1.0000
  H   H1004     1.0  0.60110  0.28047  0.17483  1.0000
  H   H1005     1.0  0.51919  0.30229  0.24678  1.0000
  C   C996      1.0  0.64819  0.41219  0.15509  1.0000
  C   C997      1.0  0.77784  0.28726  0.30733  1.0000
  H   H1006     1.0  0.75781  0.38758  0.11652  1.0000
  C   C998      1.0  0.93583  0.24497  0.11114  1.0000
  H   H1007     1.0  0.45699  0.26802  0.88283  1.0000
  H   H1008     1.0  0.53957  0.41960  0.25513  1.0000
  H   H1009     1.0  0.72707  0.29713  0.93153  1.0000
  C   C999      1.0  0.52237  0.34735  0.11340  1.0000
  C   C1000     1.0  0.47773  0.27603  0.86422  1.0000
  S   S337      1.0  0.80887  0.29148  0.01802  1.0000
  H   H1010     1.0  0.76877  0.32279  0.18975  1.0000
  H   H1011     1.0  0.74238  0.34797  0.30579  1.0000
  S   S338      1.0  0.81747  0.33176  0.17824  1.0000
  H   H1012     1.0  0.79119  0.28187  0.16760  1.0000
  C   C1001     1.0  0.92479  0.42262  0.17806  1.0000
  H   H1013     1.0  0.56495  0.19417  0.97047  1.0000
  C   C1002     1.0  0.88631  0.34425  0.11242  1.0000
  Fe  Fe163     1.0  0.83851  0.19203  0.83585  1.0000
  H   H1014     1.0  0.48979  0.40635  0.94813  1.0000
  H   H1015     1.0  0.48175  0.37787  0.07149  1.0000
  H   H1016     1.0  0.71456  0.23794  0.28345  1.0000
  C   C1003     1.0  0.71654  0.34885  0.07671  1.0000
  S   S339      1.0  0.73207  0.26257  0.11312  1.0000
  H   H1017     1.0  0.59391  0.24838  0.02078  1.0000
  C   C1004     1.0  0.69798  0.21809  0.30181  1.0000
  S   S340      1.0  0.45612  0.39653  0.28400  1.0000
  Fe  Fe164     1.0  0.86195  0.43198  0.07421  1.0000
  C   C1005     1.0  0.49909  0.39227  0.07111  1.0000
  C   C1006     1.0  0.88371  0.27115  0.83949  1.0000
  C   C1007     1.0  0.64360  0.25574  0.09454  1.0000
  C   C1008     1.0  0.94064  0.32928  0.12940  1.0000
  C   C1009     1.0  0.50601  0.35661  0.11293  1.0000
  H   H1018     1.0  0.90133  0.35904  0.11766  1.0000
  S   S341      1.0  0.85784  0.35768  0.82861  1.0000
  Fe  Fe165     1.0  0.62193  0.19586  0.03812  1.0000
  S   S342      1.0  0.74861  0.35898  0.83921  1.0000
  H   H1019     1.0  0.71441  0.41472  0.07223  1.0000
  C   C1010     1.0  0.73022  0.42417  0.13549  1.0000
  C   C1011     1.0  0.56058  0.39205  0.02323  1.0000
  H   H1020     1.0  0.49268  0.29508  0.04386  1.0000
  C   C1012     1.0  0.72501  0.35863  0.11710  1.0000
  C   C1013     1.0  0.70077  0.19649  0.31301  1.0000
  C   C1014     1.0  0.66631  0.23805  0.86503  1.0000
  C   C1015     1.0  0.56823  0.25258  0.09920  1.0000
  C   C1016     1.0  0.47549  0.31983  0.93219  1.0000
  Fe  Fe166     1.0  0.76920  0.27075  0.02948  1.0000
  Fe  Fe167     1.0  0.49778  0.41331  0.25903  1.0000
  H   H1021     1.0  0.52140  0.20302  0.26835  1.0000
  C   C1017     1.0  0.86298  0.25653  0.09026  1.0000
  H   H1022     1.0  0.90327  0.24790  0.92390  1.0000
  N   N85       1.0  0.79249  0.21922  0.24416  1.0000
  S   S343      1.0  0.84641  0.22160  0.87477  1.0000
  N   N86       1.0  0.60617  0.39971  0.16627  1.0000
  C   C1018     1.0  0.60495  0.24676  0.19064  1.0000
  N   N87       1.0  0.51670  0.38296  0.06866  1.0000
  C   C1019     1.0  0.89183  0.37953  0.91827  1.0000
  H   H1023     1.0  0.58440  0.41142  0.22694  1.0000
  Fe  Fe168     1.0  0.46882  0.20100  0.26784  1.0000
  C   C1020     1.0  0.71895  0.23513  0.86001  1.0000
  H   H1024     1.0  0.72769  0.35345  0.97368  1.0000
  S   S344      1.0  0.66106  0.30062  0.31206  1.0000
  H   H1025     1.0  0.51386  0.32644  0.14845  1.0000
  S   S345      1.0  0.51998  0.24910  0.90899  1.0000
  C   C1021     1.0  0.73235  0.42512  0.07261  1.0000
  C   C1022     1.0  0.75161  0.38937  0.82702  1.0000
  C   C1023     1.0  0.80414  0.35003  0.01816  1.0000
  C   C1024     1.0  0.66054  0.20168  0.17086  1.0000
  H   H1026     1.0  0.61293  0.33395  0.16650  1.0000
  C   C1025     1.0  0.60233  0.41166  0.20666  1.0000
  H   H1027     1.0  0.53950  0.32051  0.30882  1.0000
  Fe  Fe169     1.0  0.65937  0.31780  0.21684  1.0000
  S   S346      1.0  0.63532  0.23841  0.98141  1.0000
  H   H1028     1.0  0.91969  0.23573  0.95749  1.0000
  H   H1029     1.0  0.86389  0.31866  0.05559  1.0000
  C   C1026     1.0  0.45600  0.29297  0.07504  1.0000
  C   C1027     1.0  0.71230  0.21656  0.92433  1.0000
  C   C1028     1.0  0.57777  0.23846  0.07490  1.0000
  C   C1029     1.0  0.64840  0.35181  0.94908  1.0000
  H   H1030     1.0  0.85492  0.22214  0.98719  1.0000
  N   N88       1.0  0.81068  0.37077  0.90369  1.0000
  C   C1030     1.0  0.62892  0.40016  0.13962  1.0000
  H   H1031     1.0  0.62716  0.21968  0.27949  1.0000
  H   H1032     1.0  0.67902  0.28902  0.95889  1.0000
  H   H1033     1.0  0.88755  0.40789  0.10465  1.0000
  H   H1034     1.0  0.65827  0.21737  0.89980  1.0000
  C   C1031     1.0  0.81013  0.24308  0.23611  1.0000
  S   S347      1.0  0.68387  0.32202  0.11409  1.0000
  S   S348      1.0  0.61512  0.29483  0.27641  1.0000
  H   H1035     1.0  0.89696  0.38571  0.18864  1.0000
  C   C1032     1.0  0.85407  0.26205  0.04472  1.0000
  H   H1036     1.0  0.58915  0.40365  0.10455  1.0000
  H   H1037     1.0  0.87211  0.26478  0.89465  1.0000
  C   C1033     1.0  0.55463  0.30842  0.17059  1.0000
  H   H1038     1.0  0.48298  0.33068  0.87642  1.0000
  H   H1039     1.0  0.57413  0.20080  0.10108  1.0000
  S   S349      1.0  0.84954  0.40515  0.02920  1.0000
  C   C1034     1.0  0.54365  0.40069  0.02439  1.0000
  C   C1035     1.0  0.78518  0.35117  0.92826  1.0000
  C   C1036     1.0  0.82027  0.37043  0.94758  1.0000
  S   S350      1.0  0.83162  0.28300  0.88142  1.0000
  H   H1040     1.0  0.84042  0.38612  0.92809  1.0000
  S   S351      1.0  0.58047  0.25175  0.90726  1.0000
  C   C1037     1.0  0.80972  0.26585  0.20940  1.0000
  H   H1041     1.0  0.64220  0.31098  0.05740  1.0000
  H   H1042     1.0  0.50944  0.41232  0.02471  1.0000
  H   H1043     1.0  0.71917  0.19905  0.30604  1.0000
  S   S352      1.0  0.78571  0.29625  0.91571  1.0000
  H   H1044     1.0  0.46841  0.21157  0.85158  1.0000
  H   H1045     1.0  0.70664  0.19633  0.93455  1.0000
  H   H1046     1.0  0.65555  0.24875  0.07214  1.0000
  H   H1047     1.0  0.71883  0.22952  0.81990  1.0000
  H   H1048     1.0  0.86354  0.29125  0.94741  1.0000
  H   H1049     1.0  0.72152  0.25646  0.99929  1.0000
  H   H1050     1.0  0.58191  0.40605  0.98760  1.0000
  H   H1051     1.0  0.58908  0.35740  0.97046  1.0000
  C   C1038     1.0  0.90437  0.39592  0.94173  1.0000
  H   H1052     1.0  0.48471  0.34259  0.14832  1.0000
  H   H1053     1.0  0.61819  0.43370  0.25441  1.0000
  H   H1054     1.0  0.89504  0.27157  0.10879  1.0000
  H   H1055     1.0  0.70858  0.21015  0.02455  1.0000
  H   H1056     1.0  0.88960  0.32783  0.11613  1.0000
  H   H1057     1.0  0.66351  0.38728  0.95956  1.0000
  C   C1039     1.0  0.73122  0.41376  0.84862  1.0000
  H   H1058     1.0  0.67155  0.23090  0.30449  1.0000
  H   H1059     1.0  0.56270  0.35824  0.06834  1.0000
  H   H1060     1.0  0.76488  0.31474  0.09874  1.0000
  C   C1040     1.0  0.77789  0.33038  0.04392  1.0000
  S   S353      1.0  0.77944  0.40046  0.29701  1.0000
  H   H1061     1.0  0.85071  0.23723  0.13771  1.0000
  C   C1041     1.0  0.90181  0.23647  0.97301  1.0000
  H   H1062     1.0  0.64228  0.19891  0.17598  1.0000
  C   C1042     1.0  0.61271  0.27315  0.15265  1.0000
  H   H1063     1.0  0.92980  0.22332  0.21184  1.0000
  H   H1064     1.0  0.71132  0.34959  0.17289  1.0000
  S   S354      1.0  0.66449  0.35494  0.22122  1.0000
  H   H1065     1.0  0.67450  0.31561  0.95416  1.0000
  H   H1066     1.0  0.58800  0.37297  0.13253  1.0000
  C   C1043     1.0  0.77440  0.20806  0.88035  1.0000
  S   S355      1.0  0.49869  0.37843  0.25234  1.0000
  H   H1067     1.0  0.82298  0.40917  0.83119  1.0000
  C   C1044     1.0  0.94352  0.24097  0.16036  1.0000
  H   H1068     1.0  0.75185  0.43665  0.18511  1.0000
  C   C1045     1.0  0.51161  0.27031  0.87215  1.0000
  S   S356      1.0  0.59176  0.34158  0.28593  1.0000
  H   H1069     1.0  0.90202  0.24760  0.00308  1.0000
  H   H1070     1.0  0.61445  0.21736  0.19002  1.0000
  H   H1071     1.0  0.82406  0.40553  0.30737  1.0000
  C   C1046     1.0  0.89590  0.30563  0.96452  1.0000
  C   C1047     1.0  0.77470  0.21755  0.22395  1.0000
  Fe  Fe170     1.0  0.82265  0.37180  0.14102  1.0000
  C   C1048     1.0  0.73427  0.36092  0.00466  1.0000
  H   H1072     1.0  0.93237  0.19771  0.10038  1.0000
  C   C1049     1.0  0.79144  0.26424  0.18950  1.0000
  H   H1073     1.0  0.65940  0.43403  0.20799  1.0000
  C   C1050     1.0  0.88804  0.27595  0.07393  1.0000
  C   C1051     1.0  0.55103  0.31922  0.26480  1.0000
  C   C1052     1.0  0.62034  0.23788  0.16121  1.0000
  C   C1053     1.0  0.53735  0.21290  0.21408  1.0000
  H   H1074     1.0  0.77405  0.39196  0.91652  1.0000
  H   H1075     1.0  0.66156  0.29032  0.86633  1.0000
  H   H1076     1.0  0.92140  0.31557  0.13859  1.0000
  C   C1054     1.0  0.76050  0.38257  0.97262  1.0000
  C   C1055     1.0  0.62133  0.42418  0.22245  1.0000
  C   C1056     1.0  0.76830  0.33093  0.99883  1.0000
  S   S357      1.0  0.77071  0.23719  0.01585  1.0000
  Fe  Fe171     1.0  0.81640  0.41139  0.05020  1.0000
  H   H1077     1.0  0.87391  0.25248  0.24217  1.0000
  C   C1057     1.0  0.54806  0.23984  0.16932  1.0000
  H   H1078     1.0  0.77754  0.35164  0.89377  1.0000
  S   S358      1.0  0.80322  0.41627  0.97291  1.0000
  C   C1058     1.0  0.87715  0.35159  0.95954  1.0000
  H   H1079     1.0  0.59016  0.31991  0.95606  1.0000
  C   C1059     1.0  0.65792  0.25254  0.89163  1.0000
  C   C1060     1.0  0.48314  0.43682  0.95702  1.0000
  H   H1080     1.0  0.50998  0.31902  0.91548  1.0000
  Fe  Fe172     1.0  0.82585  0.31376  0.90194  1.0000
  C   C1061     1.0  0.64766  0.37284  0.95808  1.0000
  C   C1062     1.0  0.64436  0.42431  0.19660  1.0000
  H   H1081     1.0  0.52391  0.20423  0.84323  1.0000
  N   N89       1.0  0.87733  0.20936  0.01665  1.0000
  C   C1063     1.0  0.72062  0.25050  0.96023  1.0000
  N   N90       1.0  0.54638  0.19899  0.18936  1.0000
  C   C1064     1.0  0.62611  0.37470  0.96686  1.0000
  C   C1065     1.0  0.90464  0.30031  0.01050  1.0000
  Fe  Fe173     1.0  0.66403  0.43370  0.95059  1.0000
  N   N91       1.0  0.65085  0.28144  0.05715  1.0000
  S   S359      1.0  0.82276  0.23801  0.06466  1.0000
  S   S360      1.0  0.62426  0.39996  0.98257  1.0000
  Fe  Fe174     1.0  0.79059  0.26439  0.90022  1.0000
  C   C1066     1.0  0.87530  0.34040  0.02379  1.0000
  C   C1067     1.0  0.66835  0.27921  0.84634  1.0000
  C   C1068     1.0  0.55312  0.43928  0.24546  1.0000
  C   C1069     1.0  0.72935  0.38938  0.86441  1.0000
  C   C1070     1.0  0.60650  0.33495  0.95505  1.0000
  N   N92       1.0  0.88822  0.35661  0.04552  1.0000
  C   C1071     1.0  0.58627  0.38764  0.14881  1.0000
  Fe  Fe175     1.0  0.81138  0.25897  0.99912  1.0000
  C   C1072     1.0  0.73456  0.29588  0.88242  1.0000
  C   C1073     1.0  0.60569  0.35595  0.96437  1.0000
  H   H1082     1.0  0.80391  0.19749  0.30022  1.0000
  S   S361      1.0  0.77939  0.25588  0.82461  1.0000
  H   H1083     1.0  0.55222  0.42165  0.98947  1.0000
  C   C1074     1.0  0.78821  0.43096  0.29770  1.0000
  C   C1075     1.0  0.94448  0.34922  0.14911  1.0000
  C   C1076     1.0  0.77039  0.22389  0.83582  1.0000
  S   S362      1.0  0.93661  0.32392  0.98696  1.0000
  H   H1084     1.0  0.91575  0.41770  0.91028  1.0000
  H   H1085     1.0  0.44859  0.28265  0.13084  1.0000
  H   H1086     1.0  0.75653  0.30971  0.85061  1.0000
  H   H1087     1.0  0.72638  0.30302  0.85249  1.0000
  S   S363      1.0  0.48786  0.23093  0.29859  1.0000
  H   H1088     1.0  0.91279  0.31071  0.81393  1.0000
  H   H1089     1.0  0.90074  0.27268  0.31103  1.0000
  C   C1077     1.0  0.87557  0.25347  0.81407  1.0000
  S   S364      1.0  0.72580  0.29517  0.66535  1.0000
  H   H1090     1.0  0.68541  0.27477  0.50327  1.0000
  H   H1091     1.0  0.73241  0.27909  0.55513  1.0000
  S   S365      1.0  0.79641  0.31340  0.50759  1.0000
  H   H1092     1.0  0.73308  0.27602  0.79525  1.0000
  H   H1093     1.0  0.62510  0.24893  0.33145  1.0000
  C   C1078     1.0  0.89922  0.34799  0.63930  1.0000
  Fe  Fe176     1.0  0.46399  0.25497  0.67200  1.0000
  C   C1079     1.0  0.84421  0.30505  0.62067  1.0000
  C   C1080     1.0  0.68762  0.29163  0.77505  1.0000
  C   C1081     1.0  0.49737  0.19391  0.73745  1.0000
  C   C1082     1.0  0.87623  0.40134  0.63128  1.0000
  C   C1083     1.0  0.92804  0.32153  0.44455  1.0000
  H   H1094     1.0  0.75334  0.41170  0.39987  1.0000
  S   S366      1.0  0.85456  0.39181  0.55101  1.0000
  C   C1084     1.0  0.46348  0.35339  0.68424  1.0000
  H   H1095     1.0  0.49252  0.36088  0.51999  1.0000
  H   H1096     1.0  0.55762  0.24927  0.38543  1.0000
  C   C1085     1.0  0.71154  0.31138  0.40413  1.0000
  C   C1086     1.0  0.67636  0.37752  0.61104  1.0000
  C   C1087     1.0  0.56418  0.19203  0.69486  1.0000
  C   C1088     1.0  0.45403  0.19686  0.65411  1.0000
  C   C1089     1.0  0.89693  0.26030  0.41249  1.0000
  S   S367      1.0  0.69744  0.24265  0.41633  1.0000
  C   C1090     1.0  0.48254  0.30333  0.37260  1.0000
  S   S368      1.0  0.90212  0.33195  0.32712  1.0000
  H   H1097     1.0  0.69953  0.30467  0.60449  1.0000
  Fe  Fe177     1.0  0.60722  0.26190  0.79757  1.0000
  C   C1091     1.0  0.93642  0.22324  0.34911  1.0000
  H   H1098     1.0  0.72952  0.41003  0.32851  1.0000
  S   S369      1.0  0.64245  0.35961  0.63974  1.0000
  Fe  Fe178     1.0  0.83650  0.32320  0.43832  1.0000
  H   H1099     1.0  0.82718  0.34040  0.67187  1.0000
  H   H1100     1.0  0.81537  0.37126  0.41475  1.0000
  H   H1101     1.0  0.87274  0.29745  0.73931  1.0000
  C   C1092     1.0  0.46821  0.27811  0.37856  1.0000
  S   S370      1.0  0.78773  0.37197  0.54451  1.0000
  S   S371      1.0  0.80029  0.40320  0.63308  1.0000
  N   N93       1.0  0.72604  0.29142  0.47158  1.0000
  H   H1102     1.0  0.55692  0.27976  0.67168  1.0000
  H   H1103     1.0  0.64487  0.39966  0.54400  1.0000
  C   C1093     1.0  0.75830  0.33163  0.35894  1.0000
  S   S372      1.0  0.84053  0.28825  0.45390  1.0000
  C   C1094     1.0  0.71997  0.27018  0.53461  1.0000
  C   C1095     1.0  0.45620  0.28355  0.49920  1.0000
  C   C1096     1.0  0.56298  0.19264  0.45170  1.0000
  N   N94       1.0  0.87610  0.32455  0.65180  1.0000
  C   C1097     1.0  0.90227  0.24655  0.45751  1.0000
  H   H1104     1.0  0.80216  0.21605  0.67222  1.0000
  Fe  Fe179     1.0  0.66357  0.33635  0.32047  1.0000
  C   C1098     1.0  0.69162  0.40562  0.58029  1.0000
  H   H1105     1.0  0.75651  0.22671  0.76411  1.0000
  H   H1106     1.0  0.53614  0.22088  0.64366  1.0000
  C   C1099     1.0  0.91553  0.23468  0.43562  1.0000
  H   H1107     1.0  0.64952  0.42762  0.60307  1.0000
  C   C1100     1.0  0.59624  0.23237  0.68651  1.0000
  C   C1101     1.0  0.55128  0.26684  0.64790  1.0000
  H   H1108     1.0  0.47333  0.27604  0.33215  1.0000
  H   H1109     1.0  0.87481  0.34719  0.56698  1.0000
  H   H1110     1.0  0.50010  0.35836  0.61914  1.0000
  S   S373      1.0  0.58488  0.23908  0.45827  1.0000
  H   H1111     1.0  0.65404  0.41449  0.71436  1.0000
  H   H1112     1.0  0.89656  0.24541  0.50875  1.0000
  C   C1102     1.0  0.52166  0.21879  0.69030  1.0000
  C   C1103     1.0  0.69298  0.31466  0.57677  1.0000
  C   C1104     1.0  0.80081  0.21401  0.62743  1.0000
  C   C1105     1.0  0.48130  0.21595  0.61927  1.0000
  N   N95       1.0  0.52933  0.28046  0.44170  1.0000
  C   C1106     1.0  0.70238  0.35193  0.48283  1.0000
  H   H1113     1.0  0.81762  0.25045  0.41466  1.0000
  H   H1114     1.0  0.88715  0.27007  0.42832  1.0000
  H   H1115     1.0  0.69565  0.31128  0.39800  1.0000
  H   H1116     1.0  0.63316  0.40851  0.45413  1.0000
  C   C1107     1.0  0.76180  0.23954  0.52588  1.0000
  H   H1117     1.0  0.92421  0.29492  0.64024  1.0000
  C   C1108     1.0  0.93821  0.34830  0.40016  1.0000
  C   C1109     1.0  0.48245  0.35715  0.62290  1.0000
  C   C1110     1.0  0.68828  0.36359  0.61945  1.0000
  Fe  Fe180     1.0  0.44494  0.37801  0.39671  1.0000
  C   C1111     1.0  0.54277  0.25374  0.40310  1.0000
  H   H1118     1.0  0.68817  0.35051  0.79088  1.0000
  H   H1119     1.0  0.76794  0.31111  0.42530  1.0000
  H   H1120     1.0  0.60881  0.25405  0.66109  1.0000
  N   N96       1.0  0.71093  0.33931  0.51703  1.0000
  S   S374      1.0  0.48829  0.31966  0.75998  1.0000
  C   C1112     1.0  0.89025  0.26186  0.74228  1.0000
  H   H1121     1.0  0.47683  0.43355  0.41745  1.0000
  H   H1122     1.0  0.89721  0.34648  0.69011  1.0000
  H   H1123     1.0  0.74380  0.34019  0.52165  1.0000
  H   H1124     1.0  0.69671  0.43720  0.69890  1.0000
  S   S375      1.0  0.76358  0.42229  0.54537  1.0000
  C   C1113     1.0  0.48336  0.21331  0.80679  1.0000
  S   S376      1.0  0.48658  0.39761  0.37198  1.0000
  C   C1114     1.0  0.64799  0.39484  0.75419  1.0000
  C   C1115     1.0  0.94360  0.31123  0.42933  1.0000
  C   C1116     1.0  0.73944  0.35266  0.48973  1.0000
  C   C1117     1.0  0.52413  0.31246  0.78358  1.0000
  S   S377      1.0  0.61339  0.23078  0.77980  1.0000
  C   C1118     1.0  0.50783  0.23796  0.75831  1.0000
  N   N97       1.0  0.52663  0.24041  0.70110  1.0000
  C   C1119     1.0  0.84088  0.35540  0.67787  1.0000
  C   C1120     1.0  0.66871  0.37050  0.77334  1.0000
  C   C1121     1.0  0.64153  0.41554  0.53089  1.0000
  C   C1122     1.0  0.77789  0.43815  0.76052  1.0000
  C   C1123     1.0  0.87677  0.39372  0.69340  1.0000
  C   C1124     1.0  0.71512  0.37739  0.59752  1.0000
  C   C1125     1.0  0.91732  0.24919  0.32700  1.0000
  S   S378      1.0  0.82780  0.19340  0.75402  1.0000
  H   H1125     1.0  0.45161  0.28565  0.54577  1.0000
  S   S379      1.0  0.47454  0.29736  0.62982  1.0000
  H   H1126     1.0  0.64119  0.21982  0.44660  1.0000
  C   C1126     1.0  0.64434  0.43138  0.56350  1.0000
  H   H1127     1.0  0.88373  0.24831  0.72234  1.0000
  C   C1127     1.0  0.60905  0.21218  0.32694  1.0000
  H   H1128     1.0  0.54845  0.27696  0.60652  1.0000
  C   C1128     1.0  0.47827  0.35866  0.56731  1.0000
  Fe  Fe181     1.0  0.46226  0.28999  0.73974  1.0000
  H   H1129     1.0  0.49830  0.32069  0.32123  1.0000
  C   C1129     1.0  0.59527  0.21647  0.74474  1.0000
  C   C1130     1.0  0.44757  0.25565  0.44451  1.0000
  C   C1131     1.0  0.77690  0.26752  0.49820  1.0000
  C   C1132     1.0  0.83480  0.38999  0.37863  1.0000
  H   H1130     1.0  0.64700  0.21671  0.54805  1.0000
  H   H1131     1.0  0.84846  0.40227  0.81074  1.0000
  C   C1133     1.0  0.51770  0.23749  0.41481  1.0000
  H   H1132     1.0  0.51141  0.25528  0.76583  1.0000
  S   S380      1.0  0.78001  0.33908  0.69726  1.0000
  C   C1134     1.0  0.82618  0.24060  0.39398  1.0000
  C   C1135     1.0  0.71847  0.41946  0.55984  1.0000
  C   C1136     1.0  0.90673  0.29708  0.79383  1.0000
  H   H1133     1.0  0.63577  0.37906  0.74520  1.0000
  C   C1137     1.0  0.75549  0.43816  0.79655  1.0000
  C   C1138     1.0  0.84659  0.21448  0.33824  1.0000
  H   H1134     1.0  0.55199  0.30434  0.79657  1.0000
  H   H1135     1.0  0.68265  0.41668  0.57354  1.0000
  Fe  Fe182     1.0  0.87860  0.31458  0.44411  1.0000
  Fe  Fe183     1.0  0.69265  0.20472  0.47957  1.0000
  C   C1139     1.0  0.60796  0.22872  0.35649  1.0000
  C   C1140     1.0  0.86513  0.29964  0.70503  1.0000
  C   C1141     1.0  0.77103  0.43054  0.35566  1.0000
  C   C1142     1.0  0.90460  0.26179  0.34662  1.0000
  C   C1143     1.0  0.62610  0.20240  0.49860  1.0000
  Fe  Fe184     1.0  0.61705  0.28113  0.37282  1.0000
  H   H1136     1.0  0.92026  0.22469  0.47027  1.0000
  C   C1144     1.0  0.53538  0.30350  0.45431  1.0000
  C   C1145     1.0  0.69480  0.41819  0.71899  1.0000
  H   H1137     1.0  0.89047  0.40868  0.69958  1.0000
  S   S381      1.0  0.72520  0.19782  0.46059  1.0000
  C   C1146     1.0  0.49851  0.24292  0.44010  1.0000
  H   H1138     1.0  0.73425  0.22011  0.70060  1.0000
  H   H1139     1.0  0.76273  0.23122  0.49064  1.0000
  S   S382      1.0  0.87320  0.34822  0.43716  1.0000
  H   H1140     1.0  0.72416  0.36638  0.60206  1.0000
  Fe  Fe185     1.0  0.76743  0.36411  0.73148  1.0000
  H   H1141     1.0  0.82919  0.32680  0.77902  1.0000
  C   C1147     1.0  0.67524  0.34029  0.50965  1.0000
  C   C1148     1.0  0.75117  0.26747  0.36057  1.0000
  H   H1142     1.0  0.58198  0.23234  0.61521  1.0000
  H   H1143     1.0  0.72405  0.25592  0.52148  1.0000
  C   C1149     1.0  0.69033  0.36969  0.76994  1.0000
  H   H1144     1.0  0.66858  0.35086  0.48362  1.0000
  Fe  Fe186     1.0  0.86342  0.30880  0.33599  1.0000
  N   N98       1.0  0.87970  0.41867  0.34724  1.0000
  H   H1145     1.0  0.67700  0.34220  0.64099  1.0000
  C   C1150     1.0  0.92158  0.30557  0.72224  1.0000
  H   H1146     1.0  0.76011  0.26974  0.65171  1.0000
  H   H1147     1.0  0.89811  0.43459  0.39812  1.0000
  H   H1148     1.0  0.93587  0.29065  0.46389  1.0000
  H   H1149     1.0  0.47871  0.23015  0.45110  1.0000
  C   C1151     1.0  0.82547  0.20019  0.40826  1.0000
  H   H1150     1.0  0.78426  0.21545  0.62739  1.0000
  S   S383      1.0  0.63890  0.30180  0.77319  1.0000
  S   S384      1.0  0.49556  0.33766  0.42374  1.0000
  C   C1152     1.0  0.58102  0.22012  0.66076  1.0000
  S   S385      1.0  0.58916  0.27900  0.74951  1.0000
  S   S386      1.0  0.73990  0.35661  0.69298  1.0000
  S   S387      1.0  0.49397  0.24692  0.61805  1.0000
  C   C1153     1.0  0.47805  0.19127  0.79561  1.0000
  C   C1154     1.0  0.83320  0.27955  0.67426  1.0000
  H   H1151     1.0  0.75020  0.35708  0.43466  1.0000
  C   C1155     1.0  0.81515  0.21324  0.43620  1.0000
  C   C1156     1.0  0.50475  0.26456  0.45342  1.0000
  C   C1157     1.0  0.65684  0.31522  0.57047  1.0000
  H   H1152     1.0  0.69462  0.31174  0.73980  1.0000
  H   H1153     1.0  0.92624  0.35635  0.41205  1.0000
  H   H1154     1.0  0.81936  0.23114  0.57701  1.0000
  C   C1158     1.0  0.74596  0.23330  0.64421  1.0000
  H   H1155     1.0  0.74635  0.25254  0.40888  1.0000
  H   H1156     1.0  0.92040  0.43780  0.31724  1.0000
  H   H1157     1.0  0.83567  0.30740  0.58867  1.0000
  C   C1159     1.0  0.71287  0.41021  0.32887  1.0000
  S   S388      1.0  0.45433  0.24870  0.77979  1.0000
  H   H1158     1.0  0.78931  0.28069  0.44162  1.0000
  C   C1160     1.0  0.84370  0.27674  0.71680  1.0000
  C   C1161     1.0  0.77616  0.27845  0.54353  1.0000
  C   C1162     1.0  0.84758  0.25480  0.32429  1.0000
  C   C1163     1.0  0.73092  0.26766  0.35203  1.0000
  C   C1164     1.0  0.73788  0.33190  0.35178  1.0000
  N   N99       1.0  0.92244  0.23568  0.37160  1.0000
  S   S389      1.0  0.89399  0.29985  0.50690  1.0000
  C   C1165     1.0  0.66572  0.30213  0.60402  1.0000
  H   H1159     1.0  0.55205  0.30955  0.46346  1.0000
  C   C1166     1.0  0.85921  0.36693  0.74794  1.0000
  S   S390      1.0  0.61959  0.31536  0.39014  1.0000
  H   H1160     1.0  0.90137  0.36703  0.61038  1.0000
  H   H1161     1.0  0.79334  0.41388  0.74817  1.0000
  C   C1167     1.0  0.85781  0.38226  0.62424  1.0000
  H   H1162     1.0  0.51790  0.29853  0.50147  1.0000
  H   H1163     1.0  0.89815  0.40595  0.39581  1.0000
  H   H1164     1.0  0.69895  0.25873  0.57810  1.0000
  H   H1165     1.0  0.65397  0.41158  0.32568  1.0000
  C   C1168     1.0  0.45506  0.35635  0.57406  1.0000
  H   H1166     1.0  0.79848  0.20219  0.48988  1.0000
  C   C1169     1.0  0.47692  0.30597  0.43304  1.0000
  H   H1167     1.0  0.83786  0.20373  0.58152  1.0000
  H   H1168     1.0  0.91753  0.34908  0.60846  1.0000
  C   C1170     1.0  0.75198  0.31117  0.41978  1.0000
  H   H1169     1.0  0.51295  0.22031  0.40620  1.0000
  H   H1170     1.0  0.45151  0.35673  0.53156  1.0000
  H   H1171     1.0  0.85052  0.38085  0.44199  1.0000
  Fe  Fe187     1.0  0.75508  0.33493  0.64926  1.0000
  H   H1172     1.0  0.53935  0.33244  0.73881  1.0000
  H   H1173     1.0  0.46645  0.35190  0.72800  1.0000
  Fe  Fe188     1.0  0.48388  0.36127  0.36767  1.0000
  H   H1174     1.0  0.82256  0.38667  0.79527  1.0000
  Fe  Fe189     1.0  0.77332  0.39375  0.59157  1.0000
  H   H1175     1.0  0.88943  0.42216  0.58986  1.0000
  C   C1171     1.0  0.76052  0.26133  0.61658  1.0000
  C   C1172     1.0  0.71460  0.39376  0.73958  1.0000
  H   H1176     1.0  0.92823  0.21213  0.32430  1.0000
  N   N100      1.0  0.67120  0.39456  0.74754  1.0000
  C   C1173     1.0  0.73027  0.40531  0.56862  1.0000
  C   C1174     1.0  0.69736  0.27786  0.74938  1.0000
  C   C1175     1.0  0.77594  0.41378  0.77573  1.0000
  H   H1177     1.0  0.83496  0.25706  0.75970  1.0000
  H   H1178     1.0  0.65167  0.28284  0.65219  1.0000
  C   C1176     1.0  0.85495  0.39536  0.39322  1.0000
  Fe  Fe190     1.0  0.61897  0.31845  0.73344  1.0000
  C   C1177     1.0  0.54832  0.27537  0.41649  1.0000
  H   H1179     1.0  0.54073  0.32095  0.40840  1.0000
  H   H1180     1.0  0.93444  0.20860  0.39440  1.0000
  C   C1178     1.0  0.63487  0.42066  0.47992  1.0000
  C   C1179     1.0  0.86618  0.32743  0.60912  1.0000
  H   H1181     1.0  0.65636  0.37233  0.33389  1.0000
  H   H1182     1.0  0.48962  0.26809  0.47553  1.0000
  H   H1183     1.0  0.62457  0.43388  0.38275  1.0000
  C   C1180     1.0  0.62932  0.20073  0.55559  1.0000
  C   C1181     1.0  0.74643  0.22240  0.59889  1.0000
  C   C1182     1.0  0.91311  0.28817  0.69598  1.0000
  H   H1184     1.0  0.73169  0.39362  0.73563  1.0000
  H   H1185     1.0  0.56796  0.26478  0.62283  1.0000
  C   C1183     1.0  0.84190  0.34769  0.73893  1.0000
  Fe  Fe191     1.0  0.81181  0.37792  0.59578  1.0000
  H   H1186     1.0  0.52047  0.22520  0.55701  1.0000
  C   C1184     1.0  0.71687  0.41816  0.71433  1.0000
  H   H1187     1.0  0.74758  0.37224  0.48935  1.0000
  H   H1188     1.0  0.64992  0.35176  0.79690  1.0000
  H   H1189     1.0  0.65575  0.20247  0.80258  1.0000
  C   C1185     1.0  0.49934  0.21062  0.58338  1.0000
  H   H1190     1.0  0.73565  0.43687  0.69130  1.0000
  H   H1191     1.0  0.63577  0.30628  0.59203  1.0000
  C   C1186     1.0  0.68605  0.25078  0.79364  1.0000
  H   H1192     1.0  0.71653  0.37122  0.43479  1.0000
  C   C1187     1.0  0.70593  0.29101  0.46373  1.0000
  H   H1193     1.0  0.56778  0.28790  0.40723  1.0000
  H   H1194     1.0  0.69367  0.24016  0.77375  1.0000
  C   C1188     1.0  0.75919  0.21420  0.79950  1.0000
  C   C1189     1.0  0.58513  0.21877  0.41965  1.0000
  H   H1195     1.0  0.81610  0.26208  0.68407  1.0000
  S   S391      1.0  0.69424  0.36052  0.33905  1.0000
  Fe  Fe192     1.0  0.44957  0.22816  0.34372  1.0000
  C   C1190     1.0  0.67178  0.38906  0.33107  1.0000
  C   C1191     1.0  0.69286  0.38842  0.33299  1.0000
  H   H1196     1.0  0.63572  0.39116  0.80782  1.0000
  C   C1192     1.0  0.67050  0.41133  0.32605  1.0000
  H   H1197     1.0  0.85460  0.20468  0.31614  1.0000
  C   C1193     1.0  0.49738  0.30192  0.80666  1.0000
  S   S392      1.0  0.85675  0.34191  0.32104  1.0000
  C   C1194     1.0  0.90013  0.42467  0.36536  1.0000
  C   C1195     1.0  0.83980  0.40905  0.31791  1.0000
  H   H1198     1.0  0.79348  0.28714  0.31424  1.0000
  C   C1196     1.0  0.71172  0.43263  0.32326  1.0000
  Fe  Fe193     1.0  0.89422  0.36396  0.32037  1.0000
  H   H1199     1.0  0.77887  0.34730  0.31787  1.0000
  C   C1197     1.0  0.67376  0.21411  0.31377  1.0000
  C   C1198     1.0  0.69033  0.43299  0.32286  1.0000
  H   H1200     1.0  0.69545  0.64826  0.25922  1.0000
  C   C1199     1.0  0.71667  0.54283  0.01044  1.0000
  S   S393      1.0  0.49620  0.57490  0.89838  1.0000
  C   C1200     1.0  0.56405  0.57011  0.16601  1.0000
  H   H1201     1.0  0.54877  0.57427  0.01738  1.0000
  C   C1201     1.0  0.60822  0.57868  0.11387  1.0000
  S   S394      1.0  0.46265  0.53545  0.81834  1.0000
  H   H1202     1.0  0.53437  0.56587  0.93520  1.0000
  H   H1203     1.0  0.61981  0.62014  0.90791  1.0000
  H   H1204     1.0  0.83174  0.63570  0.08673  1.0000
  H   H1205     1.0  0.94350  0.48504  0.06804  1.0000
  S   S395      1.0  0.55199  0.60396  0.10393  1.0000
  S   S396      1.0  0.47500  0.47658  0.95930  1.0000
  H   H1206     1.0  0.86946  0.44724  0.22229  1.0000
  S   S397      1.0  0.75320  0.59378  0.97950  1.0000
  C   C1202     1.0  0.46330  0.56670  0.07456  1.0000
  N   N101      1.0  0.66024  0.67266  0.09374  1.0000
  H   H1207     1.0  0.61922  0.69014  0.19207  1.0000
  C   C1203     1.0  0.46468  0.44376  0.97418  1.0000
  S   S398      1.0  0.73950  0.68825  0.00692  1.0000
  C   C1204     1.0  0.56919  0.44219  0.27387  1.0000
  C   C1205     1.0  0.58077  0.59406  0.28197  1.0000
  C   C1206     1.0  0.47750  0.57276  0.10744  1.0000
  S   S399      1.0  0.44731  0.65662  0.04124  1.0000
  H   H1208     1.0  0.72647  0.51490  0.19616  1.0000
  Fe  Fe194     1.0  0.71235  0.63638  0.88144  1.0000
  H   H1209     1.0  0.44714  0.47334  0.88602  1.0000
  N   N102      1.0  0.68018  0.53678  0.17921  1.0000
  H   H1210     1.0  0.57468  0.54481  0.21465  1.0000
  H   H1211     1.0  0.76472  0.57540  0.86036  1.0000
  H   H1212     1.0  0.73426  0.55215  0.86930  1.0000
  H   H1213     1.0  0.78911  0.66229  0.22291  1.0000
  H   H1214     1.0  0.82391  0.62350  0.30337  1.0000
  H   H1215     1.0  0.60485  0.48899  0.01021  1.0000
  C   C1207     1.0  0.71337  0.52104  0.19234  1.0000
  S   S400      1.0  0.69018  0.52819  0.83870  1.0000
  Fe  Fe195     1.0  0.56794  0.50220  0.84099  1.0000
  C   C1208     1.0  0.46020  0.58594  0.03800  1.0000
  H   H1216     1.0  0.60943  0.45274  0.88795  1.0000
  C   C1209     1.0  0.93346  0.46336  0.09409  1.0000
  S   S401      1.0  0.83108  0.44122  0.08609  1.0000
  H   H1217     1.0  0.74232  0.64268  0.30902  1.0000
  Fe  Fe196     1.0  0.53660  0.63514  0.26481  1.0000
  C   C1210     1.0  0.77710  0.66650  0.20515  1.0000
  H   H1218     1.0  0.61315  0.52622  0.84516  1.0000
  C   C1211     1.0  0.70763  0.51583  0.02945  1.0000
  C   C1212     1.0  0.64425  0.48565  0.87067  1.0000
  H   H1219     1.0  0.66697  0.64341  0.87233  1.0000
  H   H1220     1.0  0.66359  0.55998  0.18921  1.0000
  C   C1213     1.0  0.74530  0.67571  0.16175  1.0000
  C   C1214     1.0  0.75413  0.54924  0.02204  1.0000
  H   H1221     1.0  0.65728  0.49880  0.18749  1.0000
  H   H1222     1.0  0.45594  0.65996  0.90962  1.0000
  Fe  Fe197     1.0  0.70046  0.46558  0.99180  1.0000
  C   C1215     1.0  0.57326  0.59379  0.10826  1.0000
  H   H1223     1.0  0.46931  0.62610  0.00550  1.0000
  H   H1224     1.0  0.65265  0.47417  0.87830  1.0000
  N   N103      1.0  0.82160  0.60181  0.24621  1.0000
  H   H1225     1.0  0.82497  0.63837  0.19539  1.0000
  C   C1216     1.0  0.52238  0.55092  0.99070  1.0000
  C   C1217     1.0  0.51473  0.53617  0.10798  1.0000
  C   C1218     1.0  0.54064  0.63857  0.91097  1.0000
  S   S402      1.0  0.50331  0.62169  0.24469  1.0000
  C   C1219     1.0  0.62197  0.51502  0.85119  1.0000
  H   H1226     1.0  0.50357  0.45116  0.93845  1.0000
  H   H1227     1.0  0.45004  0.58174  0.01004  1.0000
  N   N104      1.0  0.62340  0.52798  0.00115  1.0000
  S   S403      1.0  0.74809  0.65230  0.89128  1.0000
  Fe  Fe198     1.0  0.50611  0.65963  0.23575  1.0000
  C   C1220     1.0  0.81727  0.47958  0.24308  1.0000
  C   C1221     1.0  0.65826  0.51280  0.85257  1.0000
  C   C1222     1.0  0.67440  0.51206  0.18750  1.0000
  C   C1223     1.0  0.47123  0.61097  0.03538  1.0000
  C   C1224     1.0  0.79931  0.47917  0.29959  1.0000
  C   C1225     1.0  0.69583  0.59432  0.25983  1.0000
  C   C1226     1.0  0.56165  0.59931  0.28291  1.0000
  H   H1228     1.0  0.76202  0.62223  0.15663  1.0000
  H   H1229     1.0  0.59621  0.56417  0.01090  1.0000
  C   C1227     1.0  0.91427  0.44780  0.08263  1.0000
  C   C1228     1.0  0.53457  0.65611  0.81590  1.0000
  C   C1229     1.0  0.82115  0.58015  0.24196  1.0000
  C   C1230     1.0  0.82562  0.62173  0.19100  1.0000
  C   C1231     1.0  0.44531  0.46488  0.85167  1.0000
  H   H1230     1.0  0.52085  0.53974  0.14412  1.0000
  Fe  Fe199     1.0  0.72812  0.60971  0.97318  1.0000
  C   C1232     1.0  0.93878  0.45074  0.14175  1.0000
  H   H1231     1.0  0.72601  0.62675  0.15367  1.0000
  C   C1233     1.0  0.65205  0.67173  0.15781  1.0000
  H   H1232     1.0  0.75777  0.45657  0.91843  1.0000
  S   S404      1.0  0.70561  0.61403  0.06233  1.0000
  S   S405      1.0  0.60246  0.53145  0.30570  1.0000
  H   H1233     1.0  0.49995  0.60274  0.12798  1.0000
  H   H1234     1.0  0.68657  0.48441  0.19951  1.0000
  H   H1235     1.0  0.47721  0.54157  0.24638  1.0000
  H   H1236     1.0  0.79874  0.46318  0.96523  1.0000
  C   C1234     1.0  0.58158  0.56263  0.16899  1.0000
  H   H1237     1.0  0.65745  0.54831  0.83113  1.0000
  C   C1235     1.0  0.74211  0.60918  0.20275  1.0000
  H   H1238     1.0  0.70587  0.55078  0.99772  1.0000
  H   H1239     1.0  0.47902  0.49726  0.18731  1.0000
  C   C1236     1.0  0.45855  0.48306  0.11192  1.0000
  H   H1240     1.0  0.65128  0.53323  0.03253  1.0000
  C   C1237     1.0  0.82878  0.59817  0.12482  1.0000
  H   H1241     1.0  0.48051  0.55817  0.13456  1.0000
  C   C1238     1.0  0.82481  0.57803  0.18123  1.0000
  C   C1239     1.0  0.52547  0.61256  0.92258  1.0000
  S   S406      1.0  0.69454  0.59355  0.95590  1.0000
  S   S407      1.0  0.71015  0.47165  0.07110  1.0000
  Fe  Fe200     1.0  0.57122  0.55081  0.85144  1.0000
  C   C1240     1.0  0.75058  0.65552  0.25381  1.0000
  S   S408      1.0  0.73040  0.49886  0.88071  1.0000
  C   C1241     1.0  0.61700  0.60166  0.05505  1.0000
  S   S409      1.0  0.57906  0.47285  0.86736  1.0000
  C   C1242     1.0  0.77170  0.68682  0.11154  1.0000
  C   C1243     1.0  0.72179  0.61182  0.20117  1.0000
  H   H1242     1.0  0.52187  0.59588  0.96433  1.0000
  C   C1244     1.0  0.57998  0.50388  0.01895  1.0000
  Fe  Fe201     1.0  0.72379  0.46583  0.85345  1.0000
  C   C1245     1.0  0.78770  0.68226  0.13358  1.0000
  N   N105      1.0  0.48477  0.61656  0.06875  1.0000
  H   H1243     1.0  0.63708  0.61341  0.01106  1.0000
  N   N106      1.0  0.73503  0.66009  0.23182  1.0000
  C   C1246     1.0  0.57179  0.48711  0.19361  1.0000
  C   C1247     1.0  0.70732  0.64838  0.28410  1.0000
  H   H1244     1.0  0.70787  0.57418  0.16472  1.0000
  C   C1248     1.0  0.45910  0.53694  0.28800  1.0000
  H   H1245     1.0  0.49246  0.52386  0.97992  1.0000
  C   C1249     1.0  0.64283  0.65071  0.08740  1.0000
  H   H1246     1.0  0.44930  0.48633  0.08094  1.0000
  C   C1250     1.0  0.81561  0.60253  0.31240  1.0000
  S   S410      1.0  0.61143  0.67960  0.02736  1.0000
  Fe  Fe202     1.0  0.58514  0.68981  0.90403  1.0000
  S   S411      1.0  0.76137  0.58451  0.26297  1.0000
  S   S412      1.0  0.56052  0.67335  0.02023  1.0000
  H   H1247     1.0  0.60693  0.62770  0.00795  1.0000
  H   H1248     1.0  0.51317  0.65877  0.00970  1.0000
  C   C1251     1.0  0.75534  0.56918  0.83092  1.0000
  S   S413      1.0  0.66584  0.46351  0.98802  1.0000
  H   H1249     1.0  0.63247  0.65532  0.20304  1.0000
  C   C1252     1.0  0.62214  0.59661  0.85630  1.0000
  C   C1253     1.0  0.54560  0.66042  0.85693  1.0000
  H   H1250     1.0  0.66490  0.54672  0.93823  1.0000
  S   S414      1.0  0.53052  0.45635  0.18224  1.0000
  H   H1251     1.0  0.80816  0.69062  0.09527  1.0000
  S   S415      1.0  0.58837  0.58118  0.88370  1.0000
  C   C1254     1.0  0.59974  0.60950  0.05284  1.0000
  H   H1252     1.0  0.68971  0.50297  0.03198  1.0000
  C   C1255     1.0  0.71943  0.54645  0.18249  1.0000
  C   C1256     1.0  0.57733  0.52492  0.02006  1.0000
  C   C1257     1.0  0.53041  0.55560  0.03685  1.0000
  S   S416      1.0  0.69162  0.46470  0.83628  1.0000
  C   C1258     1.0  0.55397  0.46161  0.20666  1.0000
  S   S417      1.0  0.50023  0.68103  0.15406  1.0000
  H   H1253     1.0  0.83518  0.49856  0.19945  1.0000
  H   H1254     1.0  0.62170  0.64370  0.11934  1.0000
  H   H1255     1.0  0.64210  0.52796  0.20134  1.0000
  C   C1259     1.0  0.51891  0.62987  0.82839  1.0000
  C   C1260     1.0  0.63250  0.61556  0.87663  1.0000
  S   S418      1.0  0.54288  0.54878  0.81536  1.0000
  C   C1261     1.0  0.58649  0.46749  0.26256  1.0000
  Fe  Fe203     1.0  0.51922  0.50404  0.88578  1.0000
  C   C1262     1.0  0.82931  0.62024  0.12948  1.0000
  H   H1256     1.0  0.56400  0.48614  0.02591  1.0000
  H   H1257     1.0  0.81751  0.56409  0.28606  1.0000
  H   H1258     1.0  0.75546  0.51414  0.05607  1.0000
  C   C1263     1.0  0.74464  0.52208  0.04325  1.0000
  S   S419      1.0  0.66968  0.59526  0.25580  1.0000
  H   H1259     1.0  0.82524  0.45589  0.19760  1.0000
  Fe  Fe204     1.0  0.67344  0.60149  0.03817  1.0000
  C   C1264     1.0  0.77939  0.45234  0.01281  1.0000
  H   H1260     1.0  0.79596  0.46208  0.07517  1.0000
  C   C1265     1.0  0.49626  0.64305  0.06433  1.0000
  N   N107      1.0  0.48309  0.50828  0.08644  1.0000
  C   C1266     1.0  0.62122  0.54901  0.00033  1.0000
  H   H1261     1.0  0.73726  0.56031  0.17907  1.0000
  H   H1262     1.0  0.83105  0.59648  0.07803  1.0000
  S   S420      1.0  0.60129  0.66406  0.91240  1.0000
  C   C1267     1.0  0.44556  0.66652  0.88953  1.0000
  H   H1263     1.0  0.73290  0.67895  0.14396  1.0000
  C   C1268     1.0  0.49856  0.52708  0.01642  1.0000
  C   C1269     1.0  0.61962  0.47345  0.87671  1.0000
  C   C1270     1.0  0.58802  0.49003  0.22178  1.0000
  S   S421      1.0  0.54231  0.67513  0.24304  1.0000
  H   H1264     1.0  0.64460  0.63341  0.10603  1.0000
  S   S422      1.0  0.83357  0.67830  0.24019  1.0000
  C   C1271     1.0  0.60312  0.50557  0.01040  1.0000
  H   H1265     1.0  0.57231  0.50440  0.16429  1.0000
  S   S423      1.0  0.68976  0.64378  0.96274  1.0000
  H   H1266     1.0  0.60138  0.50966  0.21269  1.0000
  C   C1272     1.0  0.64776  0.52982  0.99143  1.0000
  H   H1267     1.0  0.54851  0.64166  0.94397  1.0000
  Fe  Fe205     1.0  0.69546  0.49464  0.87466  1.0000
  H   H1268     1.0  0.48132  0.64813  0.07861  1.0000
  C   C1273     1.0  0.69083  0.50380  0.19440  1.0000
  C   C1274     1.0  0.81160  0.45547  0.24183  1.0000
  H   H1269     1.0  0.66937  0.55462  0.11393  1.0000
  C   C1275     1.0  0.64687  0.52739  0.84419  1.0000
  C   C1276     1.0  0.72146  0.50538  0.04670  1.0000
  H   H1270     1.0  0.64678  0.51123  0.99497  1.0000
  S   S424      1.0  0.60487  0.46946  0.30302  1.0000
  S   S425      1.0  0.63020  0.56967  0.11927  1.0000
  H   H1271     1.0  0.77228  0.56220  0.01859  1.0000
  C   C1277     1.0  0.60870  0.48826  0.86559  1.0000
  H   H1272     1.0  0.55936  0.52377  0.02765  1.0000
  H   H1273     1.0  0.90460  0.45558  0.24988  1.0000
  Fe  Fe206     1.0  0.47180  0.56777  0.84869  1.0000
  C   C1278     1.0  0.74004  0.55958  0.00630  1.0000
  C   C1279     1.0  0.65925  0.62883  0.85624  1.0000
  S   S426      1.0  0.54531  0.50673  0.92926  1.0000
  S   S427      1.0  0.90432  0.46272  0.03231  1.0000
  H   H1274     1.0  0.64788  0.65726  0.03195  1.0000
  H   H1275     1.0  0.82400  0.56055  0.17875  1.0000
  C   C1280     1.0  0.66305  0.54530  0.17025  1.0000
  H   H1276     1.0  0.77734  0.44232  0.91194  1.0000
  C   C1281     1.0  0.73642  0.58900  0.26295  1.0000
  H   H1277     1.0  0.63740  0.56701  0.99178  1.0000
  C   C1282     1.0  0.70265  0.55415  0.17500  1.0000
  C   C1283     1.0  0.49110  0.51233  0.13194  1.0000
  S   S428      1.0  0.75572  0.52113  0.26746  1.0000
  H   H1278     1.0  0.46307  0.46811  0.10599  1.0000
  H   H1279     1.0  0.50334  0.64377  0.10137  1.0000
  H   H1280     1.0  0.76413  0.61458  0.83465  1.0000
  C   C1284     1.0  0.51462  0.60808  0.88134  1.0000
  C   C1285     1.0  0.48835  0.59801  0.10364  1.0000
  H   H1281     1.0  0.54371  0.55819  0.20950  1.0000
  S   S429      1.0  0.57180  0.63199  0.22811  1.0000
  C   C1286     1.0  0.59801  0.54759  0.01091  1.0000
  H   H1282     1.0  0.60157  0.60949  0.24456  1.0000
  S   S430      1.0  0.80507  0.50918  0.29990  1.0000
  Fe  Fe207     1.0  0.72367  0.65574  0.98007  1.0000
  H   H1283     1.0  0.70642  0.65963  0.31354  1.0000
  H   H1284     1.0  0.45533  0.54742  0.07572  1.0000
  Fe  Fe208     1.0  0.57769  0.64863  0.02868  1.0000
  C   C1287     1.0  0.77797  0.45170  0.07486  1.0000
  C   C1288     1.0  0.63875  0.59097  0.81535  1.0000
  H   H1285     1.0  0.47950  0.56627  0.31361  1.0000
  H   H1286     1.0  0.69777  0.62699  0.32240  1.0000
  C   C1289     1.0  0.67826  0.57028  0.66582  1.0000
  H   H1287     1.0  0.79678  0.45698  0.72089  1.0000
  C   C1290     1.0  0.75212  0.58943  0.73086  1.0000
  S   S431      1.0  0.63715  0.51845  0.36406  1.0000
  H   H1288     1.0  0.50486  0.68164  0.60016  1.0000
  H   H1289     1.0  0.80130  0.49492  0.62710  1.0000
  C   C1291     1.0  0.64092  0.45240  0.54397  1.0000
  H   H1290     1.0  0.50846  0.50184  0.72474  1.0000
  H   H1291     1.0  0.70498  0.68491  0.71123  1.0000
  N   N108      1.0  0.75659  0.59136  0.78309  1.0000
  C   C1292     1.0  0.64033  0.67275  0.74729  1.0000
  Fe  Fe209     1.0  0.77418  0.66490  0.47527  1.0000
  H   H1292     1.0  0.61797  0.48763  0.68830  1.0000
  H   H1293     1.0  0.63308  0.61571  0.54471  1.0000
  S   S432      1.0  0.70258  0.50616  0.40243  1.0000
  H   H1294     1.0  0.65515  0.67136  0.75637  1.0000
  Fe  Fe210     1.0  0.73936  0.62913  0.43676  1.0000
  H   H1295     1.0  0.51840  0.62402  0.56384  1.0000
  H   H1296     1.0  0.82716  0.48851  0.53363  1.0000
  C   C1293     1.0  0.62057  0.65074  0.75135  1.0000
  S   S433      1.0  0.73935  0.62249  0.53564  1.0000
  H   H1297     1.0  0.51957  0.55502  0.53383  1.0000
  C   C1294     1.0  0.52693  0.55367  0.37944  1.0000
  H   H1298     1.0  0.70540  0.57091  0.47049  1.0000
  S   S434      1.0  0.50947  0.61520  0.38188  1.0000
  C   C1295     1.0  0.51674  0.67330  0.59314  1.0000
  C   C1296     1.0  0.54731  0.65211  0.57527  1.0000
  C   C1297     1.0  0.52679  0.47299  0.36431  1.0000
  C   C1298     1.0  0.78317  0.48829  0.48876  1.0000
  C   C1299     1.0  0.49125  0.50195  0.75762  1.0000
  C   C1300     1.0  0.52696  0.56106  0.56564  1.0000
  H   H1299     1.0  0.70409  0.55951  0.68353  1.0000
  C   C1301     1.0  0.55508  0.67422  0.58651  1.0000
  C   C1302     1.0  0.82016  0.48461  0.42926  1.0000
  S   S435      1.0  0.76614  0.61535  0.40112  1.0000
  Fe  Fe211     1.0  0.47668  0.60463  0.36044  1.0000
  C   C1303     1.0  0.59403  0.67456  0.34187  1.0000
  C   C1304     1.0  0.71069  0.57212  0.32211  1.0000
  C   C1305     1.0  0.67246  0.52748  0.68724  1.0000
  Fe  Fe212     1.0  0.56614  0.54167  0.73380  1.0000
  H   H1300     1.0  0.52487  0.46837  0.41641  1.0000
  S   S436      1.0  0.53646  0.51703  0.43950  1.0000
  S   S437      1.0  0.60364  0.54128  0.43614  1.0000
  H   H1301     1.0  0.49228  0.51957  0.72494  1.0000
  H   H1302     1.0  0.67893  0.51413  0.69851  1.0000
  S   S438      1.0  0.70990  0.64139  0.78561  1.0000
  H   H1303     1.0  0.76598  0.56210  0.80090  1.0000
  C   C1306     1.0  0.55982  0.68241  0.39260  1.0000
  H   H1304     1.0  0.55920  0.64376  0.56749  1.0000
  S   S439      1.0  0.76306  0.57788  0.58169  1.0000
  C   C1307     1.0  0.71677  0.49860  0.64787  1.0000
  H   H1305     1.0  0.67091  0.56268  0.36798  1.0000
  H   H1306     1.0  0.57299  0.68311  0.58796  1.0000
  H   H1307     1.0  0.67208  0.52296  0.51284  1.0000
  H   H1308     1.0  0.63096  0.57630  0.79974  1.0000
  C   C1308     1.0  0.76818  0.49177  0.54115  1.0000
  H   H1309     1.0  0.57392  0.62474  0.46655  1.0000
  H   H1310     1.0  0.44816  0.48340  0.37315  1.0000
  H   H1311     1.0  0.62915  0.47667  0.74366  1.0000
  H   H1312     1.0  0.76303  0.45398  0.40129  1.0000
  C   C1309     1.0  0.56926  0.67019  0.35827  1.0000
  S   S440      1.0  0.65770  0.65894  0.60109  1.0000
  C   C1310     1.0  0.65613  0.56188  0.65950  1.0000
  C   C1311     1.0  0.47202  0.64869  0.76944  1.0000
  H   H1313     1.0  0.76551  0.65170  0.75421  1.0000
  C   C1312     1.0  0.79615  0.49311  0.58820  1.0000
  N   N109      1.0  0.80405  0.48711  0.48645  1.0000
  N   N110      1.0  0.50542  0.47593  0.36470  1.0000
  H   H1314     1.0  0.46038  0.58231  0.54334  1.0000
  H   H1315     1.0  0.65006  0.57551  0.64651  1.0000
  Fe  Fe213     1.0  0.79947  0.65839  0.35013  1.0000
  C   C1313     1.0  0.54746  0.55878  0.56721  1.0000
  N   N111      1.0  0.46610  0.47719  0.78421  1.0000
  C   C1314     1.0  0.60676  0.62873  0.47797  1.0000
  H   H1316     1.0  0.83497  0.50465  0.38105  1.0000
  N   N112      1.0  0.65032  0.51910  0.68284  1.0000
  S   S441      1.0  0.77258  0.67269  0.37740  1.0000
  C   C1315     1.0  0.55617  0.56547  0.61078  1.0000
  S   S442      1.0  0.57238  0.47940  0.46242  1.0000
  N   N113      1.0  0.62719  0.62524  0.45930  1.0000
  H   H1317     1.0  0.67598  0.62845  0.65585  1.0000
  S   S443      1.0  0.54034  0.49678  0.80154  1.0000
  C   C1316     1.0  0.66605  0.53678  0.51305  1.0000
  H   H1318     1.0  0.68869  0.59004  0.66065  1.0000
  H   H1319     1.0  0.76347  0.49708  0.63198  1.0000
  Fe  Fe214     1.0  0.76839  0.61178  0.49768  1.0000
  H   H1320     1.0  0.75153  0.49247  0.54297  1.0000
  C   C1317     1.0  0.48944  0.50408  0.34132  1.0000
  H   H1321     1.0  0.55759  0.65745  0.34378  1.0000
  C   C1318     1.0  0.48361  0.63819  0.58715  1.0000
  H   H1322     1.0  0.58796  0.56549  0.33116  1.0000
  S   S444      1.0  0.59576  0.54656  0.76560  1.0000
  H   H1323     1.0  0.49330  0.50438  0.80139  1.0000
  H   H1324     1.0  0.72104  0.64115  0.63002  1.0000
  C   C1319     1.0  0.76116  0.61328  0.79226  1.0000
  H   H1325     1.0  0.63293  0.47409  0.47511  1.0000
  H   H1326     1.0  0.58724  0.67633  0.71437  1.0000
  H   H1327     1.0  0.56968  0.61092  0.79975  1.0000
  C   C1320     1.0  0.71518  0.52342  0.55068  1.0000
  C   C1321     1.0  0.76204  0.63434  0.74706  1.0000
  S   S445      1.0  0.61651  0.49581  0.55344  1.0000
  H   H1328     1.0  0.77777  0.48611  0.45055  1.0000
  C   C1322     1.0  0.74041  0.54722  0.59330  1.0000
  H   H1329     1.0  0.56683  0.63170  0.73607  1.0000
  S   S446      1.0  0.75848  0.46899  0.77419  1.0000
  C   C1323     1.0  0.60203  0.67506  0.72387  1.0000
  C   C1324     1.0  0.53987  0.68508  0.59498  1.0000
  C   C1325     1.0  0.73053  0.54730  0.54881  1.0000
  H   H1330     1.0  0.74939  0.60843  0.64373  1.0000
  C   C1326     1.0  0.71827  0.65620  0.60449  1.0000
  H   H1331     1.0  0.64096  0.46831  0.36243  1.0000
  H   H1332     1.0  0.67860  0.60053  0.76134  1.0000
  H   H1333     1.0  0.64355  0.46525  0.56786  1.0000
  H   H1334     1.0  0.48113  0.65344  0.55784  1.0000
  C   C1327     1.0  0.67608  0.62381  0.81359  1.0000
  H   H1335     1.0  0.80742  0.47104  0.41637  1.0000
  S   S447      1.0  0.57983  0.56056  0.61903  1.0000
  Fe  Fe215     1.0  0.46675  0.56407  0.72497  1.0000
  C   C1328     1.0  0.45105  0.64305  0.75821  1.0000
  H   H1336     1.0  0.71198  0.47989  0.68509  1.0000
  C   C1329     1.0  0.54614  0.54878  0.37988  1.0000
  C   C1330     1.0  0.64381  0.63192  0.48940  1.0000
  Fe  Fe216     1.0  0.60583  0.50529  0.47190  1.0000
  N   N114      1.0  0.50899  0.65135  0.58334  1.0000
  H   H1337     1.0  0.51072  0.62661  0.79613  1.0000
  H   H1338     1.0  0.55602  0.55114  0.53624  1.0000
  Fe  Fe217     1.0  0.51417  0.65474  0.35927  1.0000
  C   C1331     1.0  0.64197  0.53586  0.66964  1.0000
  C   C1332     1.0  0.50989  0.50097  0.33875  1.0000
  C   C1333     1.0  0.57303  0.56899  0.33086  1.0000
  H   H1339     1.0  0.75801  0.64869  0.65846  1.0000
  H   H1340     1.0  0.83029  0.47551  0.44463  1.0000
  C   C1334     1.0  0.58113  0.62829  0.74576  1.0000
  Fe  Fe218     1.0  0.57291  0.51673  0.41738  1.0000
  H   H1341     1.0  0.64683  0.61078  0.40262  1.0000
  H   H1342     1.0  0.64465  0.58660  0.50748  1.0000
  C   C1335     1.0  0.70874  0.49916  0.59922  1.0000
  H   H1343     1.0  0.64899  0.49052  0.64907  1.0000
  C   C1336     1.0  0.65087  0.57299  0.50782  1.0000
  C   C1337     1.0  0.46426  0.48132  0.37058  1.0000
  N   N115      1.0  0.60166  0.65199  0.74018  1.0000
  Fe  Fe219     1.0  0.71643  0.49076  0.46984  1.0000
  Fe  Fe220     1.0  0.71429  0.48516  0.34671  1.0000
  H   H1344     1.0  0.50607  0.53807  0.41687  1.0000
  C   C1338     1.0  0.68491  0.56392  0.48878  1.0000
  C   C1339     1.0  0.81066  0.48950  0.53525  1.0000
  H   H1345     1.0  0.53873  0.67309  0.77336  1.0000
  H   H1346     1.0  0.73526  0.56584  0.51166  1.0000
  Fe  Fe221     1.0  0.60391  0.49584  0.35119  1.0000
  C   C1340     1.0  0.51516  0.56976  0.60823  1.0000
  S   S448      1.0  0.47801  0.64208  0.35101  1.0000
  H   H1347     1.0  0.62439  0.52927  0.66625  1.0000
  S   S449      1.0  0.48667  0.56847  0.61798  1.0000
  C   C1341     1.0  0.61520  0.60786  0.38754  1.0000
  C   C1342     1.0  0.68915  0.66848  0.58659  1.0000
  C   C1343     1.0  0.75779  0.63266  0.69318  1.0000
  C   C1344     1.0  0.77483  0.49432  0.59096  1.0000
  S   S450      1.0  0.52866  0.67680  0.41279  1.0000
  S   S451      1.0  0.70010  0.61690  0.44700  1.0000
  C   C1345     1.0  0.62538  0.44730  0.40615  1.0000
  H   H1348     1.0  0.59055  0.62297  0.70695  1.0000
  C   C1346     1.0  0.52472  0.57750  0.64930  1.0000
  C   C1347     1.0  0.67741  0.58221  0.48413  1.0000
  C   C1348     1.0  0.63480  0.45728  0.49173  1.0000
  C   C1349     1.0  0.63216  0.54606  0.53231  1.0000
  C   C1350     1.0  0.63589  0.49213  0.69140  1.0000
  H   H1349     1.0  0.82420  0.59416  0.33803  1.0000
  H   H1350     1.0  0.51585  0.58446  0.68171  1.0000
  S   S452      1.0  0.72537  0.46758  0.41881  1.0000
  H   H1351     1.0  0.48268  0.62509  0.56263  1.0000
  S   S453      1.0  0.48008  0.59772  0.74942  1.0000
  C   C1351     1.0  0.49219  0.67547  0.74222  1.0000
  H   H1352     1.0  0.62094  0.63290  0.76115  1.0000
  C   C1352     1.0  0.73293  0.52279  0.64441  1.0000
  S   S454      1.0  0.69502  0.47135  0.58796  1.0000
  H   H1353     1.0  0.47938  0.47768  0.68553  1.0000
  H   H1354     1.0  0.74789  0.57177  0.72448  1.0000
  H   H1355     1.0  0.72994  0.44105  0.53810  1.0000
  H   H1356     1.0  0.70640  0.55698  0.36919  1.0000
  H   H1357     1.0  0.46685  0.62574  0.64310  1.0000
  C   C1353     1.0  0.66574  0.60469  0.79364  1.0000
  C   C1354     1.0  0.53468  0.57884  0.33067  1.0000
  H   H1358     1.0  0.64875  0.65118  0.48944  1.0000
  C   C1355     1.0  0.63979  0.52807  0.53335  1.0000
  C   C1356     1.0  0.46315  0.46734  0.73977  1.0000
  C   C1357     1.0  0.68679  0.55318  0.67878  1.0000
  C   C1358     1.0  0.45978  0.45580  0.39767  1.0000
  H   H1359     1.0  0.55244  0.58129  0.68255  1.0000
  C   C1359     1.0  0.52414  0.64096  0.57345  1.0000
  C   C1360     1.0  0.45031  0.66409  0.71972  1.0000
  S   S455      1.0  0.80370  0.65396  0.44399  1.0000
  H   H1360     1.0  0.52630  0.45679  0.35216  1.0000
  H   H1361     1.0  0.50834  0.67988  0.75122  1.0000
  S   S456      1.0  0.75833  0.52756  0.40044  1.0000
  S   S457      1.0  0.62592  0.68671  0.52165  1.0000
  C   C1361     1.0  0.54523  0.57542  0.65043  1.0000
  C   C1362     1.0  0.59457  0.61176  0.40561  1.0000
  H   H1362     1.0  0.58142  0.60610  0.38606  1.0000
  C   C1363     1.0  0.59028  0.62224  0.45108  1.0000
  H   H1363     1.0  0.74023  0.52264  0.67980  1.0000
  C   C1364     1.0  0.75277  0.61006  0.68510  1.0000
  H   H1364     1.0  0.61166  0.53919  0.55063  1.0000
  H   H1365     1.0  0.60291  0.63621  0.51464  1.0000
  C   C1365     1.0  0.69276  0.64910  0.61988  1.0000
  H   H1366     1.0  0.47219  0.63247  0.80124  1.0000
  C   C1366     1.0  0.74015  0.68263  0.55524  1.0000
  C   C1367     1.0  0.63130  0.61455  0.41552  1.0000
  C   C1368     1.0  0.48066  0.45347  0.39482  1.0000
  H   H1367     1.0  0.70903  0.52393  0.51295  1.0000
  H   H1368     1.0  0.66294  0.63433  0.45888  1.0000
  C   C1369     1.0  0.46042  0.55114  0.32559  1.0000
  H   H1369     1.0  0.51979  0.58240  0.32993  1.0000
  H   H1370     1.0  0.60589  0.44495  0.42866  1.0000
  H   H1371     1.0  0.61844  0.59924  0.35322  1.0000
  Fe  Fe222     1.0  0.63327  0.55312  0.32811  1.0000
  H   H1372     1.0  0.70395  0.68827  0.78689  1.0000
  C   C1370     1.0  0.77640  0.45458  0.35621  1.0000
  Fe  Fe223     1.0  0.76617  0.50540  0.34386  1.0000
  H   H1373     1.0  0.49312  0.52404  0.32184  1.0000
  S   S458      1.0  0.77245  0.69049  0.52517  1.0000
  Fe  Fe224     1.0  0.74516  0.54106  0.32860  1.0000
  H   H1374     1.0  0.79372  0.59053  0.34883  1.0000
  H   H1375     1.0  0.44647  0.53619  0.58164  1.0000
  N   N116      1.0  0.63176  0.44146  0.46071  1.0000
  S   S459      1.0  0.68722  0.45971  0.32063  1.0000
  H   H1376     1.0  0.72754  0.44975  0.31832  1.0000
  H   H1377     1.0  0.60096  0.66476  0.31598  1.0000
  C   C1371     1.0  0.69054  0.57512  0.32104  1.0000
  H   H1378     1.0  0.52926  0.51870  0.31705  1.0000
  H   H1379     1.0  0.54666  0.49186  0.32354  1.0000
  C   C1372     1.0  0.81252  0.74810  0.27280  1.0000
  C   C1373     1.0  0.66865  0.69206  0.16573  1.0000
  H   H1380     1.0  0.72197  0.93131  0.17636  1.0000
  S   S460      1.0  0.60396  0.84745  0.26881  1.0000
  S   S461      1.0  0.46881  0.81067  0.13036  1.0000
  H   H1381     1.0  0.45115  0.80337  0.85915  1.0000
  C   C1374     1.0  0.85043  0.90681  0.28500  1.0000
  C   C1375     1.0  0.66348  0.90957  0.95572  1.0000
  H   H1382     1.0  0.59012  0.91680  0.11350  1.0000
  H   H1383     1.0  0.82291  0.73910  0.28261  1.0000
  C   C1376     1.0  0.64151  0.80904  0.90311  1.0000
  Fe  Fe225     1.0  0.59674  0.70618  0.00650  1.0000
  S   S462      1.0  0.92272  0.85634  0.17936  1.0000
  C   C1377     1.0  0.45388  0.71773  0.21897  1.0000
  C   C1378     1.0  0.49517  0.74815  0.93961  1.0000
  C   C1379     1.0  0.76454  0.71969  0.93172  1.0000
  H   H1384     1.0  0.91100  0.90156  0.19890  1.0000
  Fe  Fe226     1.0  0.94303  0.85126  0.89254  1.0000
  H   H1385     1.0  0.47806  0.70277  0.09165  1.0000
  H   H1386     1.0  0.54486  0.72899  0.11942  1.0000
  C   C1380     1.0  0.65516  0.74804  0.13388  1.0000
  H   H1387     1.0  0.64243  0.81982  0.03833  1.0000
  S   S463      1.0  0.51428  0.78332  0.90347  1.0000
  Fe  Fe227     1.0  0.88568  0.85563  0.20625  1.0000
  C   C1381     1.0  0.79946  0.76630  0.88181  1.0000
  C   C1382     1.0  0.58015  0.82960  0.94953  1.0000
  C   C1383     1.0  0.55158  0.83767  0.11306  1.0000
  N   N117      1.0  0.52457  0.90550  0.06630  1.0000
  H   H1388     1.0  0.87105  0.83651  0.06565  1.0000
  C   C1384     1.0  0.87108  0.74646  0.24792  1.0000
  H   H1389     1.0  0.87632  0.91805  0.83622  1.0000
  S   S464      1.0  0.61994  0.72473  0.88901  1.0000
  C   C1385     1.0  0.89762  0.91531  0.13356  1.0000
  C   C1386     1.0  0.48332  0.69590  0.17955  1.0000
  H   H1390     1.0  0.66905  0.76298  0.98580  1.0000
  H   H1391     1.0  0.86353  0.78855  0.13898  1.0000
  C   C1387     1.0  0.47402  0.70460  0.13845  1.0000
  Fe  Fe228     1.0  0.46204  0.88154  0.29142  1.0000
  C   C1388     1.0  0.52100  0.92423  0.96757  1.0000
  C   C1389     1.0  0.57679  0.85176  0.10272  1.0000
  H   H1392     1.0  0.82943  0.93745  0.01068  1.0000
  C   C1390     1.0  0.61911  0.75412  0.22372  1.0000
  C   C1391     1.0  0.78581  0.77157  0.25030  1.0000
  C   C1392     1.0  0.55798  0.91221  0.27251  1.0000
  S   S465      1.0  0.79068  0.81262  0.90976  1.0000
  S   S466      1.0  0.49625  0.90782  0.29785  1.0000
  C   C1393     1.0  0.82697  0.89679  0.28438  1.0000
  C   C1394     1.0  0.61052  0.73227  0.21133  1.0000
  Fe  Fe229     1.0  0.45707  0.92850  0.86410  1.0000
  S   S467      1.0  0.59801  0.73138  0.06005  1.0000
  C   C1395     1.0  0.73102  0.88437  0.16972  1.0000
  H   H1393     1.0  0.68931  0.80994  0.90015  1.0000
  C   C1396     1.0  0.70217  0.71374  0.04299  1.0000
  C   C1397     1.0  0.62782  0.78077  0.93796  1.0000
  C   C1398     1.0  0.62263  0.91480  0.82857  1.0000
  C   C1399     1.0  0.89308  0.76412  0.17917  1.0000
  C   C1400     1.0  0.75263  0.90037  0.17337  1.0000
  H   H1394     1.0  0.65295  0.73255  0.94121  1.0000
  Fe  Fe230     1.0  0.78349  0.92871  0.24671  1.0000
  C   C1401     1.0  0.84548  0.77214  0.14633  1.0000
  H   H1395     1.0  0.88751  0.93485  0.06667  1.0000
  C   C1402     1.0  0.60769  0.93491  0.30764  1.0000
  C   C1403     1.0  0.49307  0.70660  0.96215  1.0000
  C   C1404     1.0  0.56827  0.81001  0.18093  1.0000
  H   H1396     1.0  0.60483  0.84886  0.12770  1.0000
  C   C1405     1.0  0.61471  0.91841  0.88768  1.0000
  Fe  Fe231     1.0  0.45975  0.77087  0.13876  1.0000
  H   H1397     1.0  0.59021  0.81347  0.04872  1.0000
  H   H1398     1.0  0.60477  0.75635  0.25857  1.0000
  C   C1406     1.0  0.67319  0.74202  0.92753  1.0000
  C   C1407     1.0  0.68240  0.75940  0.95276  1.0000
  C   C1408     1.0  0.65156  0.92079  0.98738  1.0000
  H   H1399     1.0  0.51454  0.79905  0.16870  1.0000
  H   H1400     1.0  0.73209  0.88231  0.01336  1.0000
  C   C1409     1.0  0.88185  0.83566  0.96766  1.0000
  Fe  Fe232     1.0  0.89701  0.81202  0.22175  1.0000
  H   H1401     1.0  0.77877  0.86272  0.17751  1.0000
  H   H1402     1.0  0.58006  0.87302  0.19327  1.0000
  N   N118      1.0  0.62850  0.72955  0.16656  1.0000
  S   S468      1.0  0.83074  0.86690  0.94968  1.0000
  H   H1403     1.0  0.84437  0.85491  0.05360  1.0000
  H   H1404     1.0  0.52641  0.89610  0.15915  1.0000
  C   C1410     1.0  0.76911  0.72439  0.86453  1.0000
  C   C1411     1.0  0.57733  0.79698  0.04467  1.0000
  C   C1412     1.0  0.85084  0.85539  0.95547  1.0000
  H   H1405     1.0  0.75530  0.88872  0.92918  1.0000
  H   H1406     1.0  0.44911  0.79438  0.28086  1.0000
  H   H1407     1.0  0.59011  0.87321  0.06678  1.0000
  H   H1408     1.0  0.68563  0.78508  0.11765  1.0000
  H   H1409     1.0  0.61863  0.91098  0.92772  1.0000
  S   S469      1.0  0.65219  0.92232  0.13253  1.0000
  H   H1410     1.0  0.61740  0.77027  0.09989  1.0000
  H   H1411     1.0  0.91175  0.86421  0.06704  1.0000
  C   C1413     1.0  0.54521  0.75449  0.03388  1.0000
  H   H1412     1.0  0.87553  0.93562  0.88659  1.0000
  H   H1413     1.0  0.88250  0.72170  0.11069  1.0000
  H   H1414     1.0  0.82631  0.90941  0.24318  1.0000
  C   C1414     1.0  0.45939  0.71553  0.15786  1.0000
  C   C1415     1.0  0.46741  0.73344  0.97565  1.0000
  H   H1415     1.0  0.59615  0.77868  0.86978  1.0000
  H   H1416     1.0  0.78427  0.86141  0.28387  1.0000
  S   S470      1.0  0.67742  0.71473  0.85491  1.0000
  H   H1417     1.0  0.56782  0.83539  0.97954  1.0000
  N   N119      1.0  0.93597  0.90521  0.98859  1.0000
  C   C1416     1.0  0.47615  0.84444  0.83320  1.0000
  S   S471      1.0  0.57990  0.79283  0.21780  1.0000
  Fe  Fe233     1.0  0.64543  0.88183  0.18263  1.0000
  C   C1417     1.0  0.57122  0.92272  0.19924  1.0000
  C   C1418     1.0  0.63863  0.80906  0.00985  1.0000
  S   S472      1.0  0.45143  0.84327  0.28820  1.0000
  C   C1419     1.0  0.66445  0.77023  0.14459  1.0000
  C   C1420     1.0  0.89746  0.75507  0.13004  1.0000
  H   H1418     1.0  0.78005  0.86642  0.01103  1.0000
  C   C1421     1.0  0.60371  0.93355  0.89168  1.0000
  H   H1419     1.0  0.73995  0.83386  0.17371  1.0000
  H   H1420     1.0  0.63221  0.90414  0.82394  1.0000
  N   N120      1.0  0.77116  0.89627  0.99246  1.0000
  Fe  Fe234     1.0  0.51092  0.82624  0.05732  1.0000
  H   H1421     1.0  0.52924  0.74570  0.90731  1.0000
  C   C1422     1.0  0.74355  0.85251  0.17315  1.0000
  H   H1422     1.0  0.81166  0.78224  0.88835  1.0000
  S   S473      1.0  0.50236  0.78592  0.07273  1.0000
  H   H1423     1.0  0.91441  0.76882  0.07659  1.0000
  C   C1423     1.0  0.46533  0.69184  0.99965  1.0000
  Fe  Fe235     1.0  0.63369  0.69726  0.90994  1.0000
  C   C1424     1.0  0.57938  0.90865  0.17034  1.0000
  C   C1425     1.0  0.92493  0.91176  0.95199  1.0000
  C   C1426     1.0  0.58509  0.83799  0.13709  1.0000
  C   C1427     1.0  0.45247  0.70526  0.00568  1.0000
  H   H1424     1.0  0.59873  0.69730  0.16723  1.0000
  C   C1428     1.0  0.77008  0.89278  0.17504  1.0000
  H   H1425     1.0  0.46049  0.71234  0.30481  1.0000
  C   C1429     1.0  0.46363  0.70954  0.25951  1.0000
  C   C1430     1.0  0.74893  0.88079  0.98570  1.0000
  C   C1431     1.0  0.56029  0.87408  0.28789  1.0000
  H   H1426     1.0  0.72201  0.72966  0.99800  1.0000
  H   H1427     1.0  0.75623  0.91895  0.17305  1.0000
  H   H1428     1.0  0.55221  0.92354  0.29452  1.0000
  S   S474      1.0  0.65239  0.85830  0.12891  1.0000
  H   H1429     1.0  0.50309  0.69628  0.95784  1.0000
  H   H1430     1.0  0.45138  0.76568  0.30908  1.0000
  H   H1431     1.0  0.66945  0.74590  0.09860  1.0000
  C   C1432     1.0  0.76543  0.86874  0.17558  1.0000
  C   C1433     1.0  0.61879  0.76667  0.00938  1.0000
  H   H1432     1.0  0.92884  0.87019  0.97915  1.0000
  Fe  Fe236     1.0  0.91113  0.84577  0.29086  1.0000
  C   C1434     1.0  0.86347  0.85037  0.90325  1.0000
  S   S475      1.0  0.54298  0.85516  0.06408  1.0000
  C   C1435     1.0  0.72648  0.86043  0.16965  1.0000
  C   C1436     1.0  0.87936  0.84092  0.90878  1.0000
  H   H1433     1.0  0.84579  0.77879  0.09624  1.0000
  S   S476      1.0  0.88183  0.88460  0.13553  1.0000
  C   C1437     1.0  0.89759  0.93703  0.09530  1.0000
  C   C1438     1.0  0.57378  0.88412  0.21492  1.0000
  C   C1439     1.0  0.85317  0.71980  0.26727  1.0000
  C   C1440     1.0  0.85711  0.71091  0.21769  1.0000
  H   H1434     1.0  0.46664  0.86084  0.08936  1.0000
  C   C1441     1.0  0.53436  0.80986  0.15895  1.0000
  S   S477      1.0  0.79783  0.91378  0.17531  1.0000
  S   S478      1.0  0.47457  0.91397  0.19017  1.0000
  C   C1442     1.0  0.48581  0.87940  0.06446  1.0000
  C   C1443     1.0  0.55473  0.78103  0.98941  1.0000
  C   C1444     1.0  0.85402  0.85091  0.01329  1.0000
  C   C1445     1.0  0.62401  0.90937  0.27029  1.0000
  C   C1446     1.0  0.63494  0.92711  0.19971  1.0000
  S   S479      1.0  0.86075  0.81203  0.23996  1.0000
  H   H1435     1.0  0.77945  0.69846  0.05584  1.0000
  C   C1447     1.0  0.81366  0.92636  0.00316  1.0000
  H   H1436     1.0  0.91263  0.89715  0.94204  1.0000
  C   C1448     1.0  0.79922  0.93654  0.99027  1.0000
  C   C1449     1.0  0.71668  0.75036  0.86558  1.0000
  H   H1437     1.0  0.63190  0.71173  0.10035  1.0000
  H   H1438     1.0  0.62671  0.89308  0.28354  1.0000
  H   H1439     1.0  0.49285  0.86512  0.14622  1.0000
  C   C1450     1.0  0.80684  0.90113  0.01007  1.0000
  S   S480      1.0  0.46702  0.89795  0.86315  1.0000
  C   C1451     1.0  0.49185  0.81610  0.81871  1.0000
  Fe  Fe237     1.0  0.81569  0.85538  0.88297  1.0000
  C   C1452     1.0  0.72547  0.84932  0.84134  1.0000
  Fe  Fe238     1.0  0.49667  0.79470  0.98177  1.0000
  H   H1440     1.0  0.48628  0.69286  0.27057  1.0000
  H   H1441     1.0  0.79210  0.82323  0.27847  1.0000
  H   H1442     1.0  0.72445  0.85024  0.88814  1.0000
  H   H1443     1.0  0.53252  0.73789  0.02967  1.0000
  H   H1444     1.0  0.45240  0.72230  0.12540  1.0000
  H   H1445     1.0  0.74662  0.77831  0.87554  1.0000
  S   S481      1.0  0.91484  0.79779  0.15289  1.0000
  S   S482      1.0  0.56682  0.69297  0.83915  1.0000
  S   S483      1.0  0.78701  0.86504  0.87296  1.0000
  H   H1446     1.0  0.65352  0.88785  0.97940  1.0000
  H   H1447     1.0  0.60119  0.84386  0.93162  1.0000
  H   H1448     1.0  0.72986  0.74646  0.83335  1.0000
  C   C1453     1.0  0.84367  0.93102  0.82173  1.0000
  H   H1449     1.0  0.45999  0.84723  0.85045  1.0000
  C   C1454     1.0  0.86911  0.84055  0.02007  1.0000
  H   H1450     1.0  0.84679  0.75437  0.15545  1.0000
  S   S484      1.0  0.62720  0.81018  0.28705  1.0000
  S   S485      1.0  0.66192  0.85803  0.90092  1.0000
  H   H1451     1.0  0.54892  0.78473  0.95128  1.0000
  C   C1455     1.0  0.77985  0.74060  0.94021  1.0000
  H   H1452     1.0  0.52976  0.77434  0.22647  1.0000
  H   H1453     1.0  0.45749  0.74379  0.98036  1.0000
  H   H1454     1.0  0.69779  0.91770  0.86963  1.0000
  H   H1455     1.0  0.55317  0.92906  0.08573  1.0000
  S   S486      1.0  0.45326  0.77700  0.04856  1.0000
  S   S487      1.0  0.72003  0.79571  0.96260  1.0000
  C   C1456     1.0  0.88172  0.93789  0.83301  1.0000
  H   H1456     1.0  0.73819  0.90893  0.82442  1.0000
  H   H1457     1.0  0.77649  0.73700  0.99195  1.0000
  C   C1457     1.0  0.87939  0.72848  0.14921  1.0000
  C   C1458     1.0  0.77787  0.92112  0.98516  1.0000
  C   C1459     1.0  0.72615  0.76838  0.88957  1.0000
  S   S488      1.0  0.69988  0.84030  0.16411  1.0000
  C   C1460     1.0  0.69385  0.71323  0.10773  1.0000
  C   C1461     1.0  0.54282  0.79595  0.19234  1.0000
  S   S489      1.0  0.90011  0.82216  0.97752  1.0000
  H   H1458     1.0  0.55225  0.90001  0.08404  1.0000
  C   C1462     1.0  0.49615  0.90060  0.99930  1.0000
  H   H1459     1.0  0.81643  0.79245  0.14085  1.0000
  C   C1463     1.0  0.56752  0.77065  0.09125  1.0000
  C   C1464     1.0  0.64660  0.82310  0.93956  1.0000
  S   S490      1.0  0.50936  0.83681  0.95951  1.0000
  Fe  Fe239     1.0  0.61222  0.82320  0.22097  1.0000
  N   N121      1.0  0.57084  0.80190  0.99472  1.0000
  H   H1460     1.0  0.86096  0.85372  0.85868  1.0000
  Fe  Fe240     1.0  0.76403  0.82339  0.89047  1.0000
  C   C1465     1.0  0.70579  0.82649  0.84811  1.0000
  H   H1461     1.0  0.62350  0.76985  0.91042  1.0000
  H   H1462     1.0  0.57890  0.83192  0.90193  1.0000
  C   C1466     1.0  0.62465  0.78097  0.04464  1.0000
  C   C1467     1.0  0.80880  0.77780  0.19390  1.0000
  N   N122      1.0  0.82147  0.76559  0.20556  1.0000
  H   H1463     1.0  0.81731  0.89264  0.02307  1.0000
  H   H1464     1.0  0.83329  0.90966  0.85608  1.0000
  C   C1468     1.0  0.61930  0.70608  0.15598  1.0000
  H   H1465     1.0  0.64792  0.81991  0.84844  1.0000
  H   H1466     1.0  0.74115  0.85898  0.01037  1.0000
  C   C1469     1.0  0.47107  0.81968  0.83920  1.0000
  C   C1470     1.0  0.68506  0.69314  0.03686  1.0000
  C   C1471     1.0  0.64628  0.77319  0.18998  1.0000
  H   H1467     1.0  0.71816  0.89074  0.16574  1.0000
  H   H1468     1.0  0.70704  0.72914  0.11289  1.0000
  H   H1469     1.0  0.63243  0.90794  0.03640  1.0000
  C   C1472     1.0  0.55176  0.74937  0.08496  1.0000
  H   H1470     1.0  0.86780  0.75338  0.28614  1.0000
  C   C1473     1.0  0.92915  0.93725  0.92753  1.0000
  H   H1471     1.0  0.58939  0.71774  0.23692  1.0000
  C   C1474     1.0  0.91073  0.91816  0.17018  1.0000
  H   H1472     1.0  0.48503  0.89846  0.97318  1.0000
  H   H1473     1.0  0.66204  0.69131  0.21656  1.0000
  Fe  Fe241     1.0  0.66712  0.84690  0.19861  1.0000
  C   C1475     1.0  0.53979  0.90773  0.10084  1.0000
  C   C1476     1.0  0.47841  0.69869  0.23976  1.0000
  H   H1474     1.0  0.65333  0.79032  0.19865  1.0000
  C   C1477     1.0  0.70894  0.77286  0.93323  1.0000
  H   H1475     1.0  0.77571  0.78124  0.24130  1.0000
  S   S491      1.0  0.66380  0.87360  0.24442  1.0000
  C   C1478     1.0  0.50059  0.88203  0.09678  1.0000
  H   H1476     1.0  0.57252  0.76679  0.13125  1.0000
  H   H1477     1.0  0.86752  0.92703  0.24547  1.0000
  H   H1478     1.0  0.69195  0.69353  0.98643  1.0000
  C   C1479     1.0  0.50792  0.73465  0.93289  1.0000
  C   C1480     1.0  0.78552  0.88630  0.00401  1.0000
  Fe  Fe242     1.0  0.46635  0.81848  0.03384  1.0000
  C   C1481     1.0  0.93072  0.87817  0.01531  1.0000
  H   H1479     1.0  0.48803  0.79678  0.82433  1.0000
  C   C1482     1.0  0.80334  0.77141  0.81512  1.0000
  C   C1483     1.0  0.53500  0.92636  0.00217  1.0000
  H   H1480     1.0  0.47153  0.70819  0.85789  1.0000
  C   C1484     1.0  0.68853  0.92659  0.89353  1.0000
  H   H1481     1.0  0.47589  0.79743  0.29296  1.0000
  H   H1482     1.0  0.88905  0.83693  0.86854  1.0000
  C   C1485     1.0  0.69013  0.73728  0.88412  1.0000
  H   H1483     1.0  0.76640  0.92893  0.97639  1.0000
  H   H1484     1.0  0.75725  0.70826  0.85789  1.0000
  C   C1486     1.0  0.45437  0.69361  0.86020  1.0000
  Fe  Fe243     1.0  0.44872  0.92304  0.25680  1.0000
  S   S492      1.0  0.44924  0.84135  0.00575  1.0000
  H   H1485     1.0  0.52949  0.94067  0.91630  1.0000
  H   H1486     1.0  0.69206  0.84420  0.31119  1.0000
  H   H1487     1.0  0.86986  0.89786  0.33744  1.0000
  Fe  Fe244     1.0  0.46905  0.77563  0.71073  1.0000
  H   H1488     1.0  0.71452  0.80378  0.45780  1.0000
  Fe  Fe245     1.0  0.66643  0.86982  0.67028  1.0000
  H   H1489     1.0  0.60738  0.87185  0.46469  1.0000
  H   H1490     1.0  0.66361  0.94034  0.53387  1.0000
  Fe  Fe246     1.0  0.49988  0.79640  0.55317  1.0000
  H   H1491     1.0  0.62234  0.78614  0.78837  1.0000
  H   H1492     1.0  0.75576  0.83785  0.56488  1.0000
  C   C1487     1.0  0.79648  0.86328  0.53434  1.0000
  N   N123      1.0  0.62916  0.90545  0.47517  1.0000
  H   H1493     1.0  0.52319  0.72260  0.34853  1.0000
  H   H1494     1.0  0.66336  0.91145  0.47885  1.0000
  C   C1488     1.0  0.76419  0.77136  0.46923  1.0000
  H   H1495     1.0  0.92461  0.87827  0.62745  1.0000
  H   H1496     1.0  0.51218  0.79418  0.33700  1.0000
  C   C1489     1.0  0.70269  0.80861  0.49309  1.0000
  H   H1497     1.0  0.62124  0.71549  0.70763  1.0000
  S   S493      1.0  0.64827  0.84161  0.63463  1.0000
  C   C1490     1.0  0.55545  0.78323  0.76465  1.0000
  Fe  Fe247     1.0  0.88261  0.93888  0.40609  1.0000
  C   C1491     1.0  0.60019  0.70329  0.39468  1.0000
  C   C1492     1.0  0.58600  0.75855  0.58905  1.0000
  C   C1493     1.0  0.58554  0.78071  0.55588  1.0000
  H   H1498     1.0  0.76436  0.84125  0.37821  1.0000
  H   H1499     1.0  0.50603  0.88486  0.79936  1.0000
  C   C1494     1.0  0.78423  0.80878  0.33185  1.0000
  S   S494      1.0  0.69651  0.87606  0.70171  1.0000
  H   H1500     1.0  0.56963  0.78244  0.58438  1.0000
  N   N124      1.0  0.92293  0.91233  0.58660  1.0000
  C   C1495     1.0  0.91349  0.88555  0.61339  1.0000
  C   C1496     1.0  0.74645  0.87072  0.77405  1.0000
  C   C1497     1.0  0.62587  0.77533  0.48193  1.0000
  S   S495      1.0  0.88736  0.80122  0.33249  1.0000
  C   C1498     1.0  0.64068  0.69625  0.73163  1.0000
  Fe  Fe248     1.0  0.50750  0.76061  0.65036  1.0000
  S   S496      1.0  0.50294  0.80745  0.44871  1.0000
  N   N125      1.0  0.52259  0.86208  0.78342  1.0000
  C   C1499     1.0  0.81706  0.91127  0.46762  1.0000
  H   H1501     1.0  0.78410  0.78138  0.65428  1.0000
  N   N126      1.0  0.69516  0.82468  0.45737  1.0000
  S   S497      1.0  0.74321  0.87425  0.50347  1.0000
  C   C1500     1.0  0.50946  0.73554  0.50673  1.0000
  C   C1501     1.0  0.71054  0.69951  0.73077  1.0000
  H   H1502     1.0  0.55101  0.90161  0.75920  1.0000
  C   C1502     1.0  0.58729  0.83182  0.60775  1.0000
  C   C1503     1.0  0.75612  0.71408  0.65205  1.0000
  C   C1504     1.0  0.60629  0.93932  0.78108  1.0000
  S   S498      1.0  0.63761  0.86583  0.76771  1.0000
  H   H1503     1.0  0.93725  0.89664  0.37711  1.0000
  Fe  Fe249     1.0  0.63749  0.72618  0.51838  1.0000
  H   H1504     1.0  0.79191  0.92301  0.45013  1.0000
  H   H1505     1.0  0.57037  0.74317  0.64272  1.0000
  C   C1505     1.0  0.55702  0.76778  0.45338  1.0000
  H   H1506     1.0  0.59513  0.87988  0.65638  1.0000
  H   H1507     1.0  0.59563  0.93292  0.52790  1.0000
  C   C1506     1.0  0.51910  0.72593  0.39360  1.0000
  N   N127      1.0  0.74733  0.86967  0.71525  1.0000
  H   H1508     1.0  0.50557  0.73997  0.54984  1.0000
  S   S499      1.0  0.81253  0.78151  0.44291  1.0000
  H   H1509     1.0  0.55630  0.72936  0.76159  1.0000
  C   C1507     1.0  0.61921  0.86382  0.64378  1.0000
  H   H1510     1.0  0.56099  0.87851  0.76973  1.0000
  C   C1508     1.0  0.60954  0.69107  0.36003  1.0000
  C   C1509     1.0  0.79366  0.75758  0.61232  1.0000
  H   H1511     1.0  0.73549  0.74704  0.72321  1.0000
  C   C1510     1.0  0.62818  0.88702  0.44663  1.0000
  S   S500      1.0  0.84094  0.87046  0.76759  1.0000
  H   H1512     1.0  0.76070  0.89605  0.61041  1.0000
  C   C1511     1.0  0.88932  0.86716  0.62349  1.0000
  C   C1512     1.0  0.64865  0.91638  0.48895  1.0000
  S   S501      1.0  0.49420  0.81696  0.61712  1.0000
  C   C1513     1.0  0.46040  0.75608  0.50746  1.0000
  S   S502      1.0  0.60610  0.72780  0.59395  1.0000
  H   H1513     1.0  0.75845  0.74808  0.36313  1.0000
  H   H1514     1.0  0.57458  0.76673  0.43106  1.0000
  Fe  Fe250     1.0  0.46884  0.91788  0.35644  1.0000
  H   H1515     1.0  0.56027  0.89257  0.69150  1.0000
  Fe  Fe251     1.0  0.65798  0.91002  0.70107  1.0000
  C   C1514     1.0  0.47012  0.69079  0.69391  1.0000
  S   S503      1.0  0.45224  0.89784  0.74206  1.0000
  H   H1516     1.0  0.44782  0.72284  0.81020  1.0000
  H   H1517     1.0  0.64011  0.89830  0.38817  1.0000
  S   S504      1.0  0.55745  0.85339  0.62299  1.0000
  Fe  Fe252     1.0  0.52802  0.81801  0.62464  1.0000
  H   H1518     1.0  0.68220  0.83377  0.53976  1.0000
  C   C1515     1.0  0.48816  0.71686  0.50683  1.0000
  S   S505      1.0  0.68687  0.92056  0.73630  1.0000
  H   H1519     1.0  0.77397  0.87550  0.33755  1.0000
  H   H1520     1.0  0.59503  0.90296  0.47751  1.0000
  S   S506      1.0  0.82448  0.80478  0.74603  1.0000
  Fe  Fe253     1.0  0.48802  0.92144  0.74585  1.0000
  Fe  Fe254     1.0  0.85331  0.80554  0.34718  1.0000
  C   C1516     1.0  0.87490  0.87634  0.60560  1.0000
  C   C1517     1.0  0.82959  0.86442  0.38704  1.0000
  H   H1521     1.0  0.57943  0.81042  0.78853  1.0000
  C   C1518     1.0  0.51766  0.83766  0.79056  1.0000
  C   C1519     1.0  0.54890  0.76042  0.75682  1.0000
  H   H1522     1.0  0.88158  0.84583  0.64576  1.0000
  S   S507      1.0  0.53594  0.80092  0.55285  1.0000
  C   C1520     1.0  0.78983  0.74159  0.33028  1.0000
  C   C1521     1.0  0.61075  0.91184  0.48731  1.0000
  C   C1522     1.0  0.73633  0.70227  0.52472  1.0000
  C   C1523     1.0  0.50221  0.86559  0.80470  1.0000
  S   S508      1.0  0.64029  0.69565  0.33917  1.0000
  C   C1524     1.0  0.77277  0.85832  0.53831  1.0000
  C   C1525     1.0  0.62144  0.69747  0.71961  1.0000
  C   C1526     1.0  0.60623  0.75591  0.55216  1.0000
  N   N128      1.0  0.53497  0.74823  0.45272  1.0000
  H   H1523     1.0  0.68452  0.78934  0.53939  1.0000
  S   S509      1.0  0.84927  0.89575  0.48430  1.0000
  H   H1524     1.0  0.54587  0.70237  0.60350  1.0000
  S   S510      1.0  0.73554  0.79209  0.34995  1.0000
  Fe  Fe255     1.0  0.65363  0.71075  0.40462  1.0000
  S   S511      1.0  0.50249  0.77802  0.72248  1.0000
  H   H1525     1.0  0.55156  0.76380  0.50800  1.0000
  H   H1526     1.0  0.78311  0.72783  0.38335  1.0000
  C   C1527     1.0  0.60493  0.79980  0.48508  1.0000
  C   C1528     1.0  0.69804  0.82757  0.39385  1.0000
  C   C1529     1.0  0.68426  0.83591  0.48973  1.0000
  H   H1527     1.0  0.54350  0.89398  0.40593  1.0000
  H   H1528     1.0  0.79778  0.84663  0.55802  1.0000
  H   H1529     1.0  0.54555  0.79335  0.75805  1.0000
  S   S512      1.0  0.66260  0.75000  0.40004  1.0000
  Fe  Fe256     1.0  0.66178  0.69376  0.52579  1.0000
  Fe  Fe257     1.0  0.81049  0.87727  0.75927  1.0000
  C   C1530     1.0  0.53901  0.87755  0.39227  1.0000
  H   H1530     1.0  0.69265  0.80691  0.79311  1.0000
  C   C1531     1.0  0.74679  0.77316  0.44864  1.0000
  Fe  Fe258     1.0  0.71306  0.92012  0.64389  1.0000
  C   C1532     1.0  0.58252  0.84973  0.62544  1.0000
  Fe  Fe259     1.0  0.81339  0.82829  0.79291  1.0000
  S   S513      1.0  0.60403  0.82674  0.44061  1.0000
  N   N129      1.0  0.80515  0.87145  0.33505  1.0000
  C   C1533     1.0  0.79338  0.90633  0.47197  1.0000
  C   C1534     1.0  0.51470  0.93448  0.52467  1.0000
  H   H1531     1.0  0.45292  0.75716  0.55534  1.0000
  C   C1535     1.0  0.78859  0.75032  0.80609  1.0000
  C   C1536     1.0  0.80619  0.85531  0.38615  1.0000
  C   C1537     1.0  0.60792  0.82968  0.60887  1.0000
  C   C1538     1.0  0.44706  0.79369  0.41198  1.0000
  C   C1539     1.0  0.77634  0.76258  0.65294  1.0000
  N   N130      1.0  0.73923  0.71951  0.68975  1.0000
  Fe  Fe260     1.0  0.66934  0.87640  0.79274  1.0000
  S   S514      1.0  0.87640  0.84922  0.31436  1.0000
  C   C1540     1.0  0.49513  0.93870  0.55662  1.0000
  C   C1541     1.0  0.74897  0.74315  0.69170  1.0000
  C   C1542     1.0  0.77618  0.75311  0.31880  1.0000
  H   H1532     1.0  0.81141  0.92678  0.80650  1.0000
  H   H1533     1.0  0.56261  0.78848  0.42233  1.0000
  C   C1543     1.0  0.76859  0.89279  0.64509  1.0000
  C   C1544     1.0  0.80156  0.80659  0.35208  1.0000
  C   C1545     1.0  0.71083  0.69522  0.54014  1.0000
  C   C1546     1.0  0.70762  0.82492  0.78795  1.0000
  H   H1534     1.0  0.72568  0.76004  0.48592  1.0000
  S   S515      1.0  0.63409  0.92695  0.69380  1.0000
  H   H1535     1.0  0.71491  0.81988  0.51103  1.0000
  H   H1536     1.0  0.59098  0.74777  0.78898  1.0000
  H   H1537     1.0  0.48468  0.75382  0.33233  1.0000
  H   H1538     1.0  0.86601  0.92662  0.68391  1.0000
  C   C1547     1.0  0.78068  0.86186  0.33387  1.0000
  C   C1548     1.0  0.79150  0.78719  0.42002  1.0000
  C   C1549     1.0  0.67882  0.85369  0.39383  1.0000
  H   H1539     1.0  0.57524  0.81983  0.59253  1.0000
  C   C1550     1.0  0.77152  0.87988  0.50546  1.0000
  C   C1551     1.0  0.49113  0.69649  0.70487  1.0000
  H   H1540     1.0  0.61138  0.81557  0.59601  1.0000
  C   C1552     1.0  0.67581  0.85045  0.45870  1.0000
  H   H1541     1.0  0.60112  0.89881  0.37839  1.0000
  H   H1542     1.0  0.81488  0.77274  0.58018  1.0000
  C   C1553     1.0  0.56156  0.74743  0.76630  1.0000
  Fe  Fe261     1.0  0.75736  0.90955  0.40477  1.0000
  H   H1543     1.0  0.77781  0.91170  0.64740  1.0000
  S   S516      1.0  0.67126  0.73144  0.53223  1.0000
  S   S517      1.0  0.74177  0.89988  0.33764  1.0000
  C   C1554     1.0  0.58104  0.75782  0.78227  1.0000
  H   H1544     1.0  0.61213  0.71615  0.40873  1.0000
  H   H1545     1.0  0.63953  0.81125  0.39300  1.0000
  H   H1546     1.0  0.50925  0.91584  0.52305  1.0000
  C   C1555     1.0  0.57467  0.79279  0.78199  1.0000
  S   S518      1.0  0.78483  0.83640  0.77541  1.0000
  C   C1556     1.0  0.61943  0.92630  0.77396  1.0000
  C   C1557     1.0  0.53997  0.74375  0.39645  1.0000
  H   H1547     1.0  0.85603  0.86228  0.61350  1.0000
  H   H1548     1.0  0.46795  0.70671  0.54995  1.0000
  C   C1558     1.0  0.88463  0.90364  0.57853  1.0000
  S   S519      1.0  0.52700  0.93032  0.66921  1.0000
  S   S520      1.0  0.70214  0.93086  0.32901  1.0000
  S   S521      1.0  0.51697  0.72951  0.67053  1.0000
  H   H1549     1.0  0.64190  0.77388  0.45385  1.0000
  C   C1559     1.0  0.75679  0.79140  0.37942  1.0000
  H   H1550     1.0  0.79673  0.72935  0.57888  1.0000
  C   C1560     1.0  0.47793  0.75441  0.38128  1.0000
  H   H1551     1.0  0.75638  0.75676  0.52235  1.0000
  H   H1552     1.0  0.76187  0.88831  0.76906  1.0000
  C   C1561     1.0  0.49307  0.71210  0.44969  1.0000
  H   H1553     1.0  0.72991  0.84584  0.67447  1.0000
  C   C1562     1.0  0.81884  0.88976  0.49715  1.0000
  H   H1554     1.0  0.63592  0.87542  0.46525  1.0000
  H   H1555     1.0  0.65567  0.71334  0.72938  1.0000
  C   C1563     1.0  0.72876  0.84685  0.72134  1.0000
  C   C1564     1.0  0.59848  0.86569  0.64358  1.0000
  H   H1556     1.0  0.53384  0.75266  0.74425  1.0000
  H   H1557     1.0  0.73004  0.91135  0.72764  1.0000
  H   H1558     1.0  0.69980  0.70942  0.72736  1.0000
  C   C1565     1.0  0.74639  0.92881  0.71961  1.0000
  H   H1559     1.0  0.75320  0.72264  0.48705  1.0000
  S   S522      1.0  0.46375  0.92381  0.45003  1.0000
  N   N131      1.0  0.58739  0.78023  0.78978  1.0000
  H   H1560     1.0  0.46910  0.70686  0.66555  1.0000
  H   H1561     1.0  0.78437  0.88942  0.62149  1.0000
  H   H1562     1.0  0.74844  0.69498  0.65238  1.0000
  S   S523      1.0  0.94253  0.86423  0.31451  1.0000
  H   H1563     1.0  0.78898  0.83520  0.42642  1.0000
  C   C1566     1.0  0.62479  0.79681  0.44791  1.0000
  H   H1564     1.0  0.53376  0.83479  0.77380  1.0000
  C   C1567     1.0  0.85175  0.89043  0.33646  1.0000
  H   H1565     1.0  0.87329  0.91083  0.56541  1.0000
  S   S524      1.0  0.47174  0.75474  0.64668  1.0000
  H   H1566     1.0  0.63183  0.87686  0.65559  1.0000
  H   H1567     1.0  0.66714  0.85925  0.48470  1.0000
  S   S525      1.0  0.68587  0.91394  0.60277  1.0000
  Fe  Fe262     1.0  0.73936  0.93557  0.32005  1.0000
  C   C1568     1.0  0.48462  0.77810  0.44700  1.0000
  H   H1568     1.0  0.83391  0.93169  0.44164  1.0000
  C   C1569     1.0  0.61082  0.92865  0.51670  1.0000
  C   C1570     1.0  0.55007  0.88483  0.74939  1.0000
  C   C1571     1.0  0.62373  0.84548  0.62778  1.0000
  C   C1572     1.0  0.75116  0.92740  0.77428  1.0000
  H   H1569     1.0  0.70808  0.71030  0.51468  1.0000
  H   H1570     1.0  0.46654  0.81243  0.37787  1.0000
  H   H1571     1.0  0.79166  0.75417  0.75453  1.0000
  H   H1572     1.0  0.56846  0.70895  0.43611  1.0000
  H   H1573     1.0  0.83043  0.85158  0.42744  1.0000
  S   S526      1.0  0.68907  0.71502  0.40851  1.0000
  C   C1573     1.0  0.62995  0.93900  0.53363  1.0000
  Fe  Fe263     1.0  0.69585  0.75257  0.41407  1.0000
  H   H1574     1.0  0.67226  0.86489  0.36948  1.0000
  C   C1574     1.0  0.78352  0.73318  0.61180  1.0000
  C   C1575     1.0  0.45347  0.73265  0.44144  1.0000
  S   S527      1.0  0.81809  0.91353  0.67825  1.0000
  C   C1576     1.0  0.90889  0.92150  0.56889  1.0000
  H   H1575     1.0  0.51727  0.86444  0.41549  1.0000
  C   C1577     1.0  0.57545  0.69918  0.41028  1.0000
  C   C1578     1.0  0.49345  0.77720  0.38394  1.0000
  H   H1576     1.0  0.54518  0.86531  0.41706  1.0000
  H   H1577     1.0  0.47442  0.92359  0.57869  1.0000
  H   H1578     1.0  0.55587  0.85489  0.32223  1.0000
  C   C1579     1.0  0.64911  0.93299  0.51927  1.0000
  H   H1579     1.0  0.47670  0.69817  0.44810  1.0000
  H   H1580     1.0  0.70641  0.81845  0.36825  1.0000
  C   C1580     1.0  0.60991  0.91291  0.32412  1.0000
  C   C1581     1.0  0.69009  0.84226  0.36096  1.0000
  H   H1581     1.0  0.56016  0.75401  0.35331  1.0000
  C   C1582     1.0  0.45440  0.78386  0.31394  1.0000
  S   S528      1.0  0.79968  0.93612  0.31437  1.0000
  Fe  Fe264     1.0  0.62268  0.83775  0.32716  1.0000
  N   N132      1.0  0.55308  0.88840  0.31564  1.0000
  H   H1582     1.0  0.83605  0.70629  0.32024  1.0000
  H   H1583     1.0  0.61671  0.81152  0.79181  1.0000
  C   C1583     1.0  0.83114  0.94056  0.79444  1.0000
  H   H1584     1.0  0.82270  0.81980  0.31491  1.0000
  C   C1584     1.0  0.60652  0.78956  0.81138  1.0000
