data_image0
_chemical_formula_structural       CHC3H2C2NSFeH2C3Fe2CFeSCHFeSHFeHCHNSHSH6S2CH2SCHSH2C2SH2FeHSC5S2HCFeSNHCH2CSHCSFeC2H3CHSH3SCSCHS2FeHCSCH2CSC2HC4HC3SFeCSHCSC2H3CH2CH2C2NH2CH2CH3CHCFeHCNCS2CH2CH2CFeSC2HC2HCHCHCH2C2HFeCFeHCHC2SCSFeHCHC2NCHC2HSCHNH2CH2CSNH5CHCSHCH2C2HCNCHFeC2H2C3HFeSHFeCHC6HCH2CHSHNFeH2CSHNHSC3H2CH2CSH3NC3HCHSHCFeC4HC3H2CSCHCH6C2HSCFeHCS2H2SC2HCFe2SFe2HCHCSHCSFeC5SH3C2H2C4H3C2HCSFeC2HSHCFeCHCSH3C2HCH4S2CHCH5CHCH2CHCSCHSC2SFe2CSNSHCH2CS2CH2CHSHCH3CFeCHC2NFeHC3HNC2HC2SHCHSHCNHSHSHC2FeCFeCHSH3SHC2H3C3NFeH2CSFeHSHC2HC2HCHCHC2FeCHCH2CHCHCSC4HC5HFeH3C6SH2S2C3H2FeCSC5HSC2HNHCNHC4HS2CSH3SH2C2HCHC2SC2SCHSCHCSHSHC2HFeNHC2H2NCFeHCSHSH2C2HFe2H3C2SH2NC2NHSCFeHCHCNCHCFe2SCH2C2SFeHSCH2CFeCHC2HCH2SFeCH5SH2CH2SH4C3SHS2H3C2NSCH6CHSFeSCSFeCH2C2H3CHC2HNCHCH4CH3CH4SCHC3HNFe2HCHCFeCHC4HNHCHCHCFeCHC3SCH3SH2SH2CH2CNH2CH2FeHFeC2H2CSCH2C2H2CH2C3HCH2CSH2CHFeHC2HC3HSHSNSC2H2C4HCFeCHCH2FeHSCH2CSC2SC2H2CSH4CHCH2FeS2CHCFeSC2HSCHSHCSH3S2C2HSHCH2FeSC2HSCSCNC4HSHC2S2H2FeH2C2FeCH2C4H2C3FeCHCHNHCHNHCNC2H2SCS3HFeH3C2HFeCS2HSCSCFeH3C4NH2CHCH5SHSC2HC4HS2HNCH2S2HCH3CH2NCH3SHC2SH2C2SHC2HS2HNCFeHSCH3C3HC2Fe2C4FeHCSH4C3H3CH2SHCSCHSCHSC5FeHSC2H2C4NFeC2FeNCSNH2C3HNHFeCHCHSHC2SH2SCH6CH2FeNHCH2CS2C2H2SFeH2CS2FeH2FeH3FeHSNHSCSHCSC3H2FeHFe2CSHC2HC2NHSC2SFeC3FeC3HCSCHC2SFeC5HCH4CHC2H2C2HSH3CH5CSH2C4H3CH3CHC2H3C2HSFeSNH3SH5C3FeHCHCHC2HSHCH3SH5C3HSHC4FeHFeHC2HC2SHSHSC2FeH3CHCH2CFeHC2SHCH2SCSHC2SHC2HCNC4FeH2C4H4C4SHSHCFeCFeSC2HFeH3C3H2NSCHSC2HCSCFeCSHCHCHCH4C2S2CHSCHCFeCH2CHSNS2CSC2H5C3H3Fe2CHC2HC2SNCHC2HC5FeHFeSH2SNSCHCHSH3S3HCFeC2SFeC2H3FeCHCHC2SCH3NH2FeHSHCH2FeHCFeC5FeCHNC3FeSHCHCH3C2HCS2CFeH2CHCH4SHFeSCH6CNHCH2CFeHS2HSCH3CSC2H2C2HCHC3SFeHCHSC2FeH2FeC3SC3H2C2FeSHFeH2S2C2HC2NH3C3HC3HCHCHCH2NC4H4SH3NHS2CSHSCH2CHS3Fe2H2SH2CHCSH2C6S2C2H3C2HC2FeSHCHCH3SHSH2SHCHCHCHNC3SCHC2H3CFeC2FeC2HCHSC2FeH2SCSC2FeHC4HSC2FeSCH2SH3C3H2FeC2H2SCH2SC2NCSC2NS2C2SCHCSCHCHC2SC3SHCSFeHCHS2C2H4CHFeHSH2FeHCNHSCHNHC3H2FeHC3H2SHCFeCH2CHSHCNHC2HNC4H2C2NH6CHC3H4SCH2FeCSNC2H3C4SC2SHC2HCSHFeSC2NHCH2FeC3HCHFeNHC3H2CSCSHCH4CFeHFeCFeHCHCH4C3HC2NH2NH2SCH2C2HCHCH2CHSHCS2C3HCHCH3C2Fe2SH3C2HNCH4FeC3HSCFeH4C3HC2SC2SCSC2H2C3HCH2NSCHCNC2FeC3HC3HCSNCHCHC2HSH2CFeHCHFeCH2C2H2CH6C2FeS2CFeSH3CH2C5H2FeSHSC2HCFeH2SCHCHCH2C3SH7CHCSCSH3CSH2CSCH4SC2SC2HC5H2N2SC4HCH4C2HCHSCH4CHSHSCH3CH4NFeH2C2H2FeCHCSC2H3C2HCHCSNH2CHS2CH2CHSC3SC4HSFeHCFeHFeC2SCH2FeHNCSHC2H3CNC4HC2H5C3SHCSCHC3HSHSC3SC2SHCHC2H2SCFeCH3CHC2Fe2HCFeC3HC2NHSHCH3C4HCSHSCHC2H2CH2CH2SHC2H2CHSC3SCH2CNC3HCSCH3SHFeH2CH2CHNHSCSH2SHCHSC2SFeH4FeHCH2CNC2HCNC2H2CHCH2C2H2FeCHCH2CHSCSC2HCHSHCHSHC2H2SHCH3CHC2HCHSFeCHC2FeC2HCH6CSFeC2H3CSH2CNCSH2CSNCNHCS2C2H2Fe2CHCHNH3FeH3SH4FeCSHCH2CFeCSC3HNCH2C2SH2CH2FeCFeHC3HCHSHC2FeHSC2HSC2HFeHCSHC4S3C3Fe3NH2CHSC2HCSCHSH2SCH2C2HCFe3C3HS3C6SCHC2H2SHCNH2C2SCFeC2SCNC2H2NCH2C2S2HC2H4NH2FeCH3SCHCHCH3CHSC2HNCS2HCSCHC4H4CNFeSC2HCSH2NCH2C3SCSCH2CSH5CH2C6H3CH2FeC2HCSHCSHCHSHCSFeC2FeCFeCHSHSFeH2CH3FeSCSC2H2CH2CFeHSHCH5CHSH3FeHCH2CH3CHCHS2C2SHCHSFeSFe2H2CHC2HCHC4HFe2SH2C2HC2HNH2FeC3HCSCHSC5HCH2CHC6FeH3CNCHCH2C3SNHFeSCFeC2S2CHS2HCHSH3CFeCHCHSC2NH2C3HSCHC2NHC2H5SCH4SCS2HC2SCFeHNC2H2SC2H2FeHFeSHCHC2FeSCHCHCHCH3FeHSHSCH2NC2HCHCHSH4C2HSC2HSHCFeCNCHCFeCH2CHCH2SFeC2H2C2HCFeCHSHS2HFeC3HCH3Fe2H2CHNCSCH2C2HFeC8FeC4SC2HNC2H2SCHCH2S2CH5C3H2NSCSHCFeCSC2HCHCH2CSCSH2C2NHCSNH2CFeSHSCSHCHSC2HC2SC3HCHCH5CSH2SCHFeHS2C3H3C2FeCH2NC2H2CHSCH4NSFeSFeH2FeC5HCH2C6H2SFeCSHCSCH3C4HNC3H2CH2C2SH2S4CFe2C2HSCH5CH4CHC2FeHCHCSCFeC4HS2H2CH2CSH2CHCSHNFeH3CHC2H2SH3CFeHCHSH2SCHCNHFeHCFeCH6C2HCHC3SC5HCSCSH2CHC3H2CSC2HCH2SHSNSCNCSHC2HCH2CH2NHC2HSCFeHFeCHFe2C2S2NCHNSHSCSCH2CHSCHFeH3C2HSC2SFeHSC2H2C3SHFeHSH2C2SCHC3HC5H2CSHCH2C2H4FeH2C2SC3FeCHC2H4FeHCS3C3H2SCH2CHCHCFeNCSC3HC2HNCHSFe2C2HCSH3NC2HSFe2H3CH4CSFeHCHC3SFeSCFeCH2C3SHC3HC2HC6HC3H2SC3HCH3CH2SCHNFeH3C5H2S2HSCNH2CSCSHC2H4CHCNC2H2SFeSH2C3H2C3HC2SH3C2H2CNSCSFeH3C2HCHC2SFeSHCH2FeCSCHCSHCH4CH5C3HCHCHNC5SH3CH2FeCHC4HCH3CH2C2HSH2FeHC2HCHCH3C2SC2HC2SC2HSC2S2H2NH3CHCHCHCH3FeC2H4C2H4C2H3C2SFeH2S2CH2SN2SC3HCHCFeCSCH
_chemical_formula_sum              "C1584 H1584 N132 S528 Fe264"
_cell_length_a       49.0408
_cell_length_b       53.6632
_cell_length_c       28.1322
_cell_angle_alpha    71.8024
_cell_angle_beta     77.3433
_cell_angle_gamma    107.372

_space_group_name_H-M_alt    "P 1"
_space_group_IT_number       1

loop_
  _space_group_symop_operation_xyz
  'x, y, z'

loop_
  _atom_site_type_symbol
  _atom_site_label
  _atom_site_symmetry_multiplicity
  _atom_site_fract_x
  _atom_site_fract_y
  _atom_site_fract_z
  _atom_site_occupancy
  C   C1        1.0  0.56714  0.11453  0.64424  1.0000
  H   H1        1.0  0.30440  0.00960  0.54550  1.0000
  C   C2        1.0  0.13977  0.16318  0.76710  1.0000
  C   C3        1.0  0.60942  0.03197  0.56809  1.0000
  C   C4        1.0  0.28680  0.22353  0.99556  1.0000
  H   H2        1.0  0.55056  0.23281  0.68758  1.0000
  H   H3        1.0  0.53335  0.03707  0.63226  1.0000
  C   C5        1.0  0.19333  0.02212  0.74027  1.0000
  C   C6        1.0  0.51294  0.23969  0.59922  1.0000
  N   N1        1.0  0.15619  0.15963  0.80040  1.0000
  S   S1        1.0  0.35471  0.02996  0.68058  1.0000
  Fe  Fe1       1.0  0.45586  0.10901  0.54693  1.0000
  H   H4        1.0  0.27469  0.05210  0.78928  1.0000
  H   H5        1.0  0.41504  0.07532  0.81671  1.0000
  C   C7        1.0  0.60785  0.05832  0.54331  1.0000
  C   C8        1.0  0.24583  0.14163  0.67973  1.0000
  C   C9        1.0  0.30853  0.12952  0.85176  1.0000
  Fe  Fe2       1.0  0.49899  0.18932  0.77406  1.0000
  Fe  Fe3       1.0  0.53223  0.20533  0.84668  1.0000
  C   C10       1.0  0.49796  0.07338  0.74169  1.0000
  Fe  Fe4       1.0  0.46316  0.17465  0.88799  1.0000
  S   S2        1.0  0.60275  0.22570  0.99866  1.0000
  C   C11       1.0  0.31861  0.10603  0.64311  1.0000
  H   H6        1.0  0.45808  0.20519  0.96964  1.0000
  Fe  Fe5       1.0  0.41068  0.23649  0.03198  1.0000
  S   S3        1.0  0.24679  0.14595  0.94398  1.0000
  H   H7        1.0  0.59439  0.11886  0.74367  1.0000
  Fe  Fe6       1.0  0.19762  0.11778  0.98733  1.0000
  H   H8        1.0  0.25876  0.07725  0.76460  1.0000
  C   C12       1.0  0.38723  0.21017  0.78114  1.0000
  H   H9        1.0  0.30498  0.10004  0.02356  1.0000
  N   N2        1.0  0.23335  0.03458  0.77566  1.0000
  S   S4        1.0  0.49589  0.21567  0.82060  1.0000
  H   H10       1.0  0.43126  0.02079  0.79198  1.0000
  S   S5        1.0  0.31393  0.08317  0.83745  1.0000
  H   H11       1.0  0.52686  0.06040  0.84234  1.0000
  H   H12       1.0  0.16378  0.09935  0.79803  1.0000
  H   H13       1.0  0.25078  0.08934  0.03415  1.0000
  H   H14       1.0  0.27416  0.23950  0.60827  1.0000
  H   H15       1.0  0.27354  0.18014  0.74726  1.0000
  H   H16       1.0  0.35000  0.07098  0.72278  1.0000
  S   S6        1.0  0.53940  0.18351  0.79177  1.0000
  S   S7        1.0  0.31820  0.24313  0.66615  1.0000
  C   C13       1.0  0.37087  0.20700  0.83174  1.0000
  H   H17       1.0  0.41377  0.15856  0.75694  1.0000
  H   H18       1.0  0.31365  0.18325  0.94467  1.0000
  S   S8        1.0  0.59414  0.20224  0.55006  1.0000
  C   C14       1.0  0.51625  0.07000  0.81616  1.0000
  H   H19       1.0  0.48849  0.12159  0.79025  1.0000
  S   S9        1.0  0.60771  0.08156  0.57514  1.0000
  H   H20       1.0  0.61430  0.23082  0.61552  1.0000
  H   H21       1.0  0.32156  0.06502  0.66110  1.0000
  C   C15       1.0  0.29378  0.14353  0.87541  1.0000
  C   C16       1.0  0.38397  0.03056  0.00297  1.0000
  S   S10       1.0  0.48943  0.19818  0.69847  1.0000
  H   H22       1.0  0.44315  0.19102  0.80963  1.0000
  H   H23       1.0  0.25608  0.06121  0.92234  1.0000
  Fe  Fe7       1.0  0.35414  0.24817  0.03635  1.0000
  H   H24       1.0  0.33165  0.08738  0.93599  1.0000
  S   S11       1.0  0.30320  0.23281  0.79326  1.0000
  C   C17       1.0  0.39175  0.01346  0.93300  1.0000
  C   C18       1.0  0.15796  0.01357  0.96019  1.0000
  C   C19       1.0  0.22212  0.22842  0.59174  1.0000
  C   C20       1.0  0.42933  0.05737  0.92431  1.0000
  C   C21       1.0  0.37398  0.01034  0.98241  1.0000
  S   S12       1.0  0.21694  0.06244  0.59948  1.0000
  S   S13       1.0  0.49977  0.16533  0.91781  1.0000
  H   H25       1.0  0.52329  0.16230  0.70879  1.0000
  C   C22       1.0  0.47429  0.02399  0.97224  1.0000
  Fe  Fe8       1.0  0.46490  0.08282  0.65181  1.0000
  S   S14       1.0  0.51532  0.10465  0.87011  1.0000
  N   N3        1.0  0.28839  0.19961  0.98956  1.0000
  H   H26       1.0  0.47868  0.03718  0.92994  1.0000
  C   C23       1.0  0.43468  0.19101  0.60024  1.0000
  H   H27       1.0  0.46875  0.18378  0.54982  1.0000
  H   H28       1.0  0.27967  0.14275  0.71732  1.0000
  C   C24       1.0  0.25154  0.09830  0.93202  1.0000
  S   S15       1.0  0.37532  0.21931  0.72601  1.0000
  H   H29       1.0  0.47379  0.07071  0.98490  1.0000
  C   C25       1.0  0.34623  0.15830  0.70154  1.0000
  S   S16       1.0  0.23387  0.21025  0.73541  1.0000
  Fe  Fe9       1.0  0.16800  0.05643  0.61809  1.0000
  C   C26       1.0  0.40734  0.19230  0.86743  1.0000
  C   C27       1.0  0.50799  0.09206  0.82156  1.0000
  H   H30       1.0  0.45019  0.07610  0.90113  1.0000
  H   H31       1.0  0.57115  0.15429  0.73697  1.0000
  H   H32       1.0  0.20169  0.17985  0.68327  1.0000
  C   C28       1.0  0.23477  0.00848  0.78494  1.0000
  H   H33       1.0  0.30432  0.16646  0.86207  1.0000
  S   S17       1.0  0.32941  0.15001  0.03510  1.0000
  H   H34       1.0  0.41756  0.24949  0.56373  1.0000
  H   H35       1.0  0.22958  0.08606  0.96322  1.0000
  H   H36       1.0  0.43383  0.03897  0.86651  1.0000
  S   S18       1.0  0.44475  0.06364  0.60120  1.0000
  C   C29       1.0  0.32571  0.13060  0.65355  1.0000
  S   S19       1.0  0.17371  0.08880  0.95393  1.0000
  C   C30       1.0  0.34723  0.00804  0.64637  1.0000
  H   H37       1.0  0.51984  0.01451  0.00246  1.0000
  S   S20       1.0  0.47976  0.12824  0.59405  1.0000
  S   S21       1.0  0.42131  0.08144  0.99575  1.0000
  Fe  Fe10      1.0  0.22425  0.10409  0.60743  1.0000
  H   H38       1.0  0.52039  0.07456  0.57743  1.0000
  C   C31       1.0  0.14052  0.12089  0.75447  1.0000
  S   S22       1.0  0.41932  0.17876  0.92121  1.0000
  C   C32       1.0  0.26662  0.08415  0.90911  1.0000
  H   H39       1.0  0.31815  0.14699  0.63505  1.0000
  H   H40       1.0  0.45006  0.01762  0.99562  1.0000
  C   C33       1.0  0.21922  0.17228  0.68953  1.0000
  S   S23       1.0  0.49355  0.06333  0.68941  1.0000
  C   C34       1.0  0.57033  0.14346  0.71028  1.0000
  C   C35       1.0  0.38563  0.08483  0.87148  1.0000
  H   H41       1.0  0.30090  0.24458  0.96401  1.0000
  C   C36       1.0  0.16306  0.17930  0.82654  1.0000
  C   C37       1.0  0.26516  0.12801  0.91527  1.0000
  C   C38       1.0  0.55431  0.13475  0.64119  1.0000
  C   C39       1.0  0.22369  0.15207  0.67036  1.0000
  H   H42       1.0  0.24108  0.05112  0.83301  1.0000
  C   C40       1.0  0.53187  0.07248  0.03218  1.0000
  C   C41       1.0  0.42095  0.20998  0.60423  1.0000
  C   C42       1.0  0.40584  0.13781  0.78915  1.0000
  S   S24       1.0  0.31920  0.01351  0.83702  1.0000
  Fe  Fe11      1.0  0.34274  0.24074  0.72478  1.0000
  C   C43       1.0  0.52601  0.21180  0.98566  1.0000
  S   S25       1.0  0.31431  0.02048  0.94948  1.0000
  H   H43       1.0  0.36273  0.11504  0.73845  1.0000
  C   C44       1.0  0.47441  0.19941  0.98618  1.0000
  S   S26       1.0  0.42064  0.08070  0.69967  1.0000
  C   C45       1.0  0.27690  0.24027  0.56750  1.0000
  C   C46       1.0  0.38095  0.19799  0.87501  1.0000
  H   H44       1.0  0.36810  0.19477  0.91447  1.0000
  H   H45       1.0  0.17736  0.13395  0.83860  1.0000
  H   H46       1.0  0.51820  0.04400  0.77136  1.0000
  C   C47       1.0  0.54634  0.24146  0.65103  1.0000
  H   H47       1.0  0.27172  0.15413  0.02433  1.0000
  H   H48       1.0  0.37581  0.14622  0.84424  1.0000
  C   C48       1.0  0.50464  0.21901  0.96525  1.0000
  H   H49       1.0  0.53296  0.17366  0.63810  1.0000
  H   H50       1.0  0.30581  0.10357  0.61674  1.0000
  C   C49       1.0  0.41108  0.05460  0.97293  1.0000
  C   C50       1.0  0.51852  0.22814  0.64596  1.0000
  N   N4        1.0  0.49430  0.04053  0.99304  1.0000
  H   H51       1.0  0.29612  0.20418  0.90984  1.0000
  H   H52       1.0  0.59180  0.09317  0.68338  1.0000
  C   C51       1.0  0.53000  0.03689  0.59544  1.0000
  H   H53       1.0  0.35024  0.21085  0.83765  1.0000
  H   H54       1.0  0.32605  0.15412  0.73460  1.0000
  C   C52       1.0  0.35034  0.11268  0.71152  1.0000
  H   H55       1.0  0.15966  0.01343  0.88288  1.0000
  H   H56       1.0  0.33052  0.14178  0.82059  1.0000
  H   H57       1.0  0.35782  0.11875  0.93822  1.0000
  C   C53       1.0  0.19371  0.21567  0.58806  1.0000
  H   H58       1.0  0.54969  0.22668  0.96879  1.0000
  C   C54       1.0  0.42006  0.03635  0.90491  1.0000
  Fe  Fe12      1.0  0.40141  0.06453  0.64510  1.0000
  H   H59       1.0  0.54283  0.13894  0.61266  1.0000
  C   C55       1.0  0.25965  0.17244  0.72568  1.0000
  N   N5        1.0  0.24733  0.22636  0.56369  1.0000
  C   C56       1.0  0.23770  0.18304  0.71599  1.0000
  S   S27       1.0  0.46477  0.14860  0.84023  1.0000
  S   S28       1.0  0.42205  0.15847  0.65513  1.0000
  C   C57       1.0  0.49074  0.06408  0.99759  1.0000
  H   H60       1.0  0.47927  0.10514  0.72088  1.0000
  H   H61       1.0  0.14100  0.01335  0.57252  1.0000
  C   C58       1.0  0.51695  0.18512  0.02672  1.0000
  H   H62       1.0  0.48281  0.25340  0.69080  1.0000
  H   H63       1.0  0.14310  0.17285  0.86212  1.0000
  C   C59       1.0  0.34331  0.08771  0.70258  1.0000
  Fe  Fe13      1.0  0.50487  0.14372  0.86119  1.0000
  S   S29       1.0  0.17483  0.09596  0.63262  1.0000
  C   C60       1.0  0.63112  0.24165  0.57584  1.0000
  C   C61       1.0  0.42376  0.19643  0.81636  1.0000
  H   H64       1.0  0.49106  0.22994  0.59626  1.0000
  C   C62       1.0  0.58351  0.12342  0.71426  1.0000
  C   C63       1.0  0.38476  0.13082  0.83853  1.0000
  H   H65       1.0  0.42660  0.20745  0.73493  1.0000
  C   C64       1.0  0.21274  0.04142  0.75418  1.0000
  H   H66       1.0  0.36144  0.08546  0.96413  1.0000
  C   C65       1.0  0.52273  0.05814  0.56416  1.0000
  H   H67       1.0  0.43470  0.12397  0.74405  1.0000
  C   C66       1.0  0.58195  0.10896  0.68078  1.0000
  H   H68       1.0  0.15689  0.03426  0.95019  1.0000
  H   H69       1.0  0.35047  0.17783  0.66696  1.0000
  C   C67       1.0  0.41741  0.11809  0.78164  1.0000
  C   C68       1.0  0.41392  0.20540  0.77363  1.0000
  H   H70       1.0  0.50617  0.09888  0.02111  1.0000
  Fe  Fe14      1.0  0.27932  0.23781  0.73292  1.0000
  C   C69       1.0  0.29497  0.09988  0.86847  1.0000
  Fe  Fe15      1.0  0.43367  0.12448  0.63750  1.0000
  H   H71       1.0  0.17372  0.21720  0.61052  1.0000
  C   C70       1.0  0.35552  0.09875  0.93222  1.0000
  H   H72       1.0  0.32988  0.22130  0.92320  1.0000
  C   C71       1.0  0.50937  0.08037  0.01725  1.0000
  C   C72       1.0  0.19130  0.20102  0.55502  1.0000
  S   S30       1.0  0.38088  0.23450  0.98218  1.0000
  C   C73       1.0  0.40671  0.09110  0.82256  1.0000
  S   S31       1.0  0.56547  0.24334  0.84879  1.0000
  Fe  Fe16      1.0  0.29925  0.03600  0.88058  1.0000
  H   H73       1.0  0.16952  0.19137  0.55106  1.0000
  C   C74       1.0  0.30807  0.20236  0.93922  1.0000
  H   H74       1.0  0.21128  0.06194  0.74755  1.0000
  C   C75       1.0  0.32731  0.08438  0.66814  1.0000
  C   C76       1.0  0.25288  0.05475  0.79141  1.0000
  N   N6        1.0  0.37602  0.10506  0.87963  1.0000
  C   C77       1.0  0.27062  0.17311  0.02925  1.0000
  H   H75       1.0  0.14998  0.23307  0.99601  1.0000
  C   C78       1.0  0.49444  0.10438  0.78727  1.0000
  C   C79       1.0  0.48919  0.09497  0.74777  1.0000
  H   H76       1.0  0.39339  0.02509  0.59274  1.0000
  S   S32       1.0  0.41073  0.10802  0.58706  1.0000
  C   C80       1.0  0.26329  0.15141  0.70842  1.0000
  H   H77       1.0  0.60959  0.02520  0.60845  1.0000
  N   N7        1.0  0.55611  0.14898  0.67387  1.0000
  H   H78       1.0  0.16913  0.20163  0.79861  1.0000
  H   H79       1.0  0.51155  0.23949  0.93269  1.0000
  C   C81       1.0  0.51136  0.06074  0.77605  1.0000
  H   H80       1.0  0.37742  0.06392  0.90320  1.0000
  H   H81       1.0  0.56506  0.10278  0.61924  1.0000
  C   C82       1.0  0.54223  0.16983  0.67115  1.0000
  S   S33       1.0  0.25235  0.11655  0.65588  1.0000
  N   N8        1.0  0.34130  0.13360  0.68757  1.0000
  H   H82       1.0  0.36631  0.16292  0.71464  1.0000
  H   H83       1.0  0.21005  0.14467  0.64835  1.0000
  H   H84       1.0  0.41871  0.16179  0.03399  1.0000
  H   H85       1.0  0.40375  0.20490  0.64099  1.0000
  H   H86       1.0  0.43452  0.13732  0.02186  1.0000
  C   C83       1.0  0.16473  0.13699  0.81158  1.0000
  H   H87       1.0  0.55951  0.19076  0.66388  1.0000
  C   C84       1.0  0.15706  0.11731  0.78880  1.0000
  S   S34       1.0  0.16039  0.13331  0.00389  1.0000
  H   H88       1.0  0.17699  0.02756  0.72329  1.0000
  C   C85       1.0  0.53385  0.01609  0.57805  1.0000
  H   H89       1.0  0.22385  0.23943  0.61805  1.0000
  H   H90       1.0  0.18299  0.17933  0.83933  1.0000
  C   C86       1.0  0.42920  0.23553  0.56069  1.0000
  C   C87       1.0  0.51662  0.03286  0.00686  1.0000
  H   H91       1.0  0.29232  0.22942  0.55944  1.0000
  C   C88       1.0  0.45783  0.19826  0.55287  1.0000
  N   N9        1.0  0.46577  0.17308  0.02577  1.0000
  C   C89       1.0  0.61127  0.01459  0.53998  1.0000
  H   H92       1.0  0.45887  0.24707  0.88732  1.0000
  Fe  Fe17      1.0  0.18332  0.11743  0.54551  1.0000
  C   C90       1.0  0.53562  0.04858  0.02695  1.0000
  C   C91       1.0  0.17346  0.24715  0.98589  1.0000
  H   H93       1.0  0.43822  0.24855  0.66068  1.0000
  H   H94       1.0  0.18655  0.25325  0.90327  1.0000
  C   C92       1.0  0.37042  0.00989  0.60464  1.0000
  C   C93       1.0  0.18317  0.25490  0.02439  1.0000
  C   C94       1.0  0.42072  0.07095  0.39521  1.0000
  H   H95       1.0  0.14104  0.20032  0.17200  1.0000
  Fe  Fe18      1.0  0.35180  0.19030  0.04275  1.0000
  S   S35       1.0  0.18662  0.23207  0.41144  1.0000
  H   H96       1.0  0.57641  0.03784  0.15673  1.0000
  Fe  Fe19      1.0  0.60419  0.15666  0.41609  1.0000
  C   C95       1.0  0.23844  0.01257  0.40725  1.0000
  H   H97       1.0  0.21189  0.11871  0.20625  1.0000
  C   C96       1.0  0.24529  0.21253  0.53038  1.0000
  C   C97       1.0  0.22222  0.02310  0.49862  1.0000
  C   C98       1.0  0.55178  0.21369  0.47316  1.0000
  C   C99       1.0  0.42060  0.06062  0.44728  1.0000
  C   C100      1.0  0.32867  0.11037  0.18337  1.0000
  C   C101      1.0  0.47753  0.07728  0.23000  1.0000
  H   H98       1.0  0.29905  0.01292  0.14917  1.0000
  C   C102      1.0  0.52286  0.03820  0.49977  1.0000
  H   H99       1.0  0.53307  0.23962  0.30677  1.0000
  H   H100      1.0  0.58657  0.25087  0.46903  1.0000
  C   C103      1.0  0.56558  0.11925  0.35822  1.0000
  H   H101      1.0  0.36005  0.03135  0.32385  1.0000
  S   S36       1.0  0.24680  0.08151  0.44225  1.0000
  H   H102      1.0  0.31877  0.10900  0.22293  1.0000
  N   N10       1.0  0.34333  0.07142  0.40536  1.0000
  Fe  Fe20      1.0  0.55633  0.25530  0.14085  1.0000
  H   H103      1.0  0.28660  0.13130  0.31451  1.0000
  H   H104      1.0  0.43326  0.10849  0.32418  1.0000
  C   C104      1.0  0.44953  0.11920  0.38343  1.0000
  S   S37       1.0  0.40673  0.04662  0.36842  1.0000
  H   H105      1.0  0.23735  0.14900  0.10815  1.0000
  N   N11       1.0  0.58641  0.22928  0.36797  1.0000
  H   H106      1.0  0.43680  0.24108  0.19431  1.0000
  S   S38       1.0  0.51082  0.15064  0.24776  1.0000
  C   C105      1.0  0.36752  0.22771  0.23467  1.0000
  C   C106      1.0  0.54691  0.06578  0.35233  1.0000
  C   C107      1.0  0.21724  0.19946  0.52592  1.0000
  H   H107      1.0  0.62820  0.11887  0.15385  1.0000
  H   H108      1.0  0.38118  0.09400  0.11330  1.0000
  C   C108      1.0  0.60447  0.23769  0.31231  1.0000
  H   H109      1.0  0.29214  0.18258  0.30332  1.0000
  H   H110      1.0  0.60342  0.08565  0.47395  1.0000
  C   C109      1.0  0.48271  0.09802  0.25071  1.0000
  S   S39       1.0  0.36092  0.08069  0.22565  1.0000
  H   H111      1.0  0.50186  0.07557  0.45622  1.0000
  H   H112      1.0  0.44949  0.17494  0.42787  1.0000
  H   H113      1.0  0.53371  0.10093  0.46158  1.0000
  N   N12       1.0  0.25134  0.14497  0.33706  1.0000
  C   C110      1.0  0.52326  0.13187  0.16798  1.0000
  C   C111      1.0  0.33373  0.12687  0.08957  1.0000
  C   C112      1.0  0.25100  0.17007  0.07686  1.0000
  H   H114      1.0  0.45367  0.15158  0.24040  1.0000
  C   C113      1.0  0.50520  0.12538  0.21984  1.0000
  H   H115      1.0  0.26960  0.14185  0.26468  1.0000
  S   S40       1.0  0.47253  0.13108  0.45802  1.0000
  H   H116      1.0  0.37495  0.08664  0.32788  1.0000
  C   C114      1.0  0.23700  0.04602  0.44859  1.0000
  Fe  Fe21      1.0  0.44177  0.04372  0.16179  1.0000
  C   C115      1.0  0.14267  0.13905  0.20235  1.0000
  C   C116      1.0  0.38877  0.22893  0.30428  1.0000
  C   C117      1.0  0.59574  0.24582  0.39447  1.0000
  C   C118      1.0  0.49873  0.25403  0.33436  1.0000
  H   H117      1.0  0.32453  0.01513  0.27919  1.0000
  C   C119      1.0  0.55391  0.07704  0.21881  1.0000
  C   C120      1.0  0.36332  0.10126  0.12212  1.0000
  C   C121      1.0  0.17188  0.11197  0.18329  1.0000
  H   H118      1.0  0.61860  0.02740  0.31797  1.0000
  H   H119      1.0  0.63300  0.15286  0.24127  1.0000
  C   C122      1.0  0.29675  0.05652  0.07148  1.0000
  S   S41       1.0  0.63134  0.19951  0.41210  1.0000
  C   C123      1.0  0.54221  0.19713  0.44567  1.0000
  H   H120      1.0  0.62910  0.24929  0.30391  1.0000
  C   C124      1.0  0.42369  0.19892  0.19466  1.0000
  H   H121      1.0  0.45950  0.05639  0.25400  1.0000
  H   H122      1.0  0.46146  0.14174  0.35808  1.0000
  H   H123      1.0  0.54601  0.08460  0.04858  1.0000
  H   H124      1.0  0.60256  0.05255  0.29469  1.0000
  H   H125      1.0  0.41780  0.22806  0.44364  1.0000
  H   H126      1.0  0.37635  0.08984  0.43632  1.0000
  C   C125      1.0  0.51241  0.08152  0.48439  1.0000
  C   C126      1.0  0.34178  0.04998  0.49539  1.0000
  H   H127      1.0  0.41877  0.19465  0.48071  1.0000
  S   S42       1.0  0.18102  0.08401  0.06987  1.0000
  C   C127      1.0  0.18875  0.14477  0.22417  1.0000
  Fe  Fe22      1.0  0.22245  0.08640  0.51446  1.0000
  H   H128      1.0  0.58569  0.06274  0.37158  1.0000
  C   C128      1.0  0.45104  0.10849  0.43454  1.0000
  S   S43       1.0  0.59407  0.20093  0.14613  1.0000
  S   S44       1.0  0.49036  0.05603  0.15640  1.0000
  H   H129      1.0  0.26547  0.21183  0.50662  1.0000
  H   H130      1.0  0.42613  0.13885  0.08669  1.0000
  S   S45       1.0  0.33996  0.17868  0.22364  1.0000
  C   C129      1.0  0.53902  0.10899  0.34682  1.0000
  C   C130      1.0  0.31517  0.02704  0.50629  1.0000
  H   H131      1.0  0.59977  0.14414  0.18632  1.0000
  C   C131      1.0  0.24949  0.19430  0.08382  1.0000
  Fe  Fe23      1.0  0.61731  0.12459  0.51289  1.0000
  Fe  Fe24      1.0  0.14168  0.09707  0.08439  1.0000
  S   S46       1.0  0.16333  0.18830  0.32504  1.0000
  Fe  Fe25      1.0  0.60929  0.17998  0.50102  1.0000
  Fe  Fe26      1.0  0.41070  0.05816  0.08227  1.0000
  H   H132      1.0  0.35508  0.16062  0.31741  1.0000
  C   C132      1.0  0.35746  0.19799  0.25579  1.0000
  H   H133      1.0  0.37305  0.11421  0.35096  1.0000
  C   C133      1.0  0.35944  0.09355  0.35096  1.0000
  S   S47       1.0  0.42325  0.02108  0.11390  1.0000
  H   H134      1.0  0.26680  0.24029  0.04785  1.0000
  C   C134      1.0  0.57878  0.23810  0.44755  1.0000
  S   S48       1.0  0.38483  0.25158  0.08461  1.0000
  Fe  Fe27      1.0  0.15383  0.21836  0.26168  1.0000
  C   C135      1.0  0.61093  0.05037  0.46285  1.0000
  C   C136      1.0  0.46782  0.19372  0.23929  1.0000
  C   C137      1.0  0.46941  0.24578  0.36924  1.0000
  C   C138      1.0  0.26491  0.13074  0.30804  1.0000
  C   C139      1.0  0.16344  0.15165  0.22358  1.0000
  S   S49       1.0  0.19417  0.22662  0.19459  1.0000
  H   H135      1.0  0.50869  0.07415  0.33643  1.0000
  H   H136      1.0  0.52035  0.03861  0.46226  1.0000
  H   H137      1.0  0.40434  0.19854  0.42579  1.0000
  C   C140      1.0  0.51918  0.11051  0.14811  1.0000
  C   C141      1.0  0.35551  0.07224  0.44452  1.0000
  H   H138      1.0  0.41313  0.15601  0.15686  1.0000
  H   H139      1.0  0.17498  0.09637  0.16837  1.0000
  C   C142      1.0  0.52934  0.08200  0.34484  1.0000
  C   C143      1.0  0.44091  0.22165  0.20399  1.0000
  C   C144      1.0  0.22147  0.13177  0.36957  1.0000
  C   C145      1.0  0.22134  0.25118  0.41543  1.0000
  H   H140      1.0  0.36311  0.23877  0.19977  1.0000
  H   H141      1.0  0.59702  0.25198  0.28508  1.0000
  H   H142      1.0  0.32048  0.06156  0.06768  1.0000
  C   C146      1.0  0.24492  0.04067  0.40291  1.0000
  C   C147      1.0  0.30267  0.02656  0.46638  1.0000
  H   H143      1.0  0.40961  0.03798  0.47199  1.0000
  C   C148      1.0  0.46754  0.22487  0.51014  1.0000
  S   S50       1.0  0.17287  0.07710  0.53263  1.0000
  Fe  Fe28      1.0  0.19135  0.22704  0.33381  1.0000
  C   C149      1.0  0.24866  0.25307  0.38355  1.0000
  C   C150      1.0  0.24564  0.02279  0.10438  1.0000
  H   H144      1.0  0.43599  0.07098  0.50667  1.0000
  S   S51       1.0  0.56158  0.22981  0.21564  1.0000
  H   H145      1.0  0.46953  0.09248  0.29122  1.0000
  C   C151      1.0  0.55987  0.20536  0.39271  1.0000
  Fe  Fe29      1.0  0.54679  0.19323  0.19163  1.0000
  C   C152      1.0  0.23627  0.04423  0.08037  1.0000
  H   H146      1.0  0.34322  0.09727  0.33022  1.0000
  C   C153      1.0  0.35493  0.11498  0.08027  1.0000
  S   S52       1.0  0.62267  0.03994  0.06973  1.0000
  H   H147      1.0  0.24854  0.24268  0.35656  1.0000
  H   H148      1.0  0.20772  0.11045  0.37494  1.0000
  H   H149      1.0  0.21535  0.18427  0.40885  1.0000
  C   C154      1.0  0.57301  0.07588  0.36438  1.0000
  C   C155      1.0  0.55186  0.05440  0.20337  1.0000
  H   H150      1.0  0.52149  0.17783  0.46541  1.0000
  C   C156      1.0  0.36284  0.18365  0.30128  1.0000
  H   H151      1.0  0.21569  0.18881  0.49904  1.0000
  H   H152      1.0  0.38338  0.18816  0.35996  1.0000
  H   H153      1.0  0.30776  0.04811  0.38462  1.0000
  H   H154      1.0  0.41242  0.13033  0.21687  1.0000
  S   S53       1.0  0.43192  0.08198  0.12558  1.0000
  S   S54       1.0  0.36465  0.03717  0.14444  1.0000
  C   C157      1.0  0.57777  0.05523  0.16924  1.0000
  H   H155      1.0  0.54081  0.15302  0.14385  1.0000
  C   C158      1.0  0.45274  0.24322  0.51394  1.0000
  H   H156      1.0  0.60232  0.21870  0.30280  1.0000
  H   H157      1.0  0.48583  0.23080  0.47397  1.0000
  H   H158      1.0  0.53017  0.03647  0.21774  1.0000
  H   H159      1.0  0.21261  0.03897  0.08322  1.0000
  H   H160      1.0  0.61255  0.05804  0.42186  1.0000
  C   C159      1.0  0.42178  0.20924  0.44017  1.0000
  H   H161      1.0  0.23475  0.19215  0.12116  1.0000
  C   C160      1.0  0.35007  0.09855  0.17386  1.0000
  H   H162      1.0  0.53867  0.20750  0.51453  1.0000
  H   H163      1.0  0.15980  0.16679  0.23922  1.0000
  C   C161      1.0  0.19261  0.12444  0.20507  1.0000
  H   H164      1.0  0.53370  0.07602  0.24585  1.0000
  C   C162      1.0  0.20815  0.14572  0.39579  1.0000
  S   S55       1.0  0.40798  0.24828  0.33481  1.0000
  C   C163      1.0  0.60541  0.07852  0.15134  1.0000
  H   H165      1.0  0.18437  0.13534  0.42097  1.0000
  S   S56       1.0  0.38443  0.19047  0.08720  1.0000
  C   C164      1.0  0.46325  0.21910  0.22612  1.0000
  C   C165      1.0  0.60716  0.06670  0.49168  1.0000
  S   S57       1.0  0.45851  0.01987  0.43890  1.0000
  Fe  Fe30      1.0  0.20512  0.19837  0.25848  1.0000
  Fe  Fe31      1.0  0.35570  0.20520  0.13602  1.0000
  C   C166      1.0  0.32072  0.12479  0.14105  1.0000
  S   S58       1.0  0.53812  0.21782  0.12062  1.0000
  N   N13       1.0  0.42783  0.17389  0.20874  1.0000
  S   S59       1.0  0.32228  0.20345  0.09323  1.0000
  H   H166      1.0  0.21598  0.02703  0.53407  1.0000
  C   C167      1.0  0.25617  0.18641  0.35611  1.0000
  H   H167      1.0  0.30520  0.13504  0.14796  1.0000
  H   H168      1.0  0.35198  0.05027  0.52592  1.0000
  C   C168      1.0  0.37896  0.19919  0.32510  1.0000
  S   S60       1.0  0.53704  0.03280  0.34700  1.0000
  S   S61       1.0  0.21627  0.16276  0.24602  1.0000
  C   C169      1.0  0.58269  0.12329  0.21776  1.0000
  H   H169      1.0  0.52560  0.12169  0.34047  1.0000
  H   H170      1.0  0.55245  0.19220  0.37182  1.0000
  C   C170      1.0  0.60662  0.10086  0.16757  1.0000
  H   H171      1.0  0.53353  0.11519  0.10863  1.0000
  S   S62       1.0  0.57924  0.13847  0.50407  1.0000
  H   H172      1.0  0.56058  0.12548  0.22764  1.0000
  C   C171      1.0  0.28815  0.07843  0.04680  1.0000
  H   H173      1.0  0.48531  0.19152  0.25611  1.0000
  H   H174      1.0  0.24975  0.10797  0.32169  1.0000
  H   H175      1.0  0.62569  0.07925  0.12486  1.0000
  C   C172      1.0  0.58217  0.10232  0.36817  1.0000
  Fe  Fe32      1.0  0.38659  0.05862  0.19076  1.0000
  C   C173      1.0  0.31725  0.04895  0.41574  1.0000
  H   H176      1.0  0.27007  0.20782  0.35019  1.0000
  C   C174      1.0  0.40856  0.15017  0.20010  1.0000
  C   C175      1.0  0.49626  0.08317  0.17945  1.0000
  N   N14       1.0  0.58088  0.10009  0.20015  1.0000
  Fe  Fe33      1.0  0.42589  0.01340  0.39447  1.0000
  H   H177      1.0  0.58867  0.11872  0.25430  1.0000
  C   C176      1.0  0.43549  0.07939  0.46706  1.0000
  C   C177      1.0  0.46321  0.19721  0.40156  1.0000
  C   C178      1.0  0.14691  0.11936  0.18185  1.0000
  H   H178      1.0  0.60231  0.10977  0.37799  1.0000
  N   N15       1.0  0.45231  0.21774  0.40302  1.0000
  C   C179      1.0  0.49225  0.20463  0.36656  1.0000
  C   C180      1.0  0.44980  0.17116  0.23027  1.0000
  H   H179      1.0  0.25625  0.05829  0.36409  1.0000
  C   C181      1.0  0.51025  0.23331  0.33335  1.0000
  C   C182      1.0  0.43363  0.10042  0.36424  1.0000
  S   S63       1.0  0.57729  0.15270  0.36165  1.0000
  H   H180      1.0  0.63103  0.10370  0.27301  1.0000
  C   C183      1.0  0.26863  0.17199  0.32988  1.0000
  H   H181      1.0  0.30803  0.25197  0.10242  1.0000
  S   S64       1.0  0.16011  0.14540  0.51342  1.0000
  H   H182      1.0  0.40665  0.20127  0.17678  1.0000
  C   C184      1.0  0.25768  0.07231  0.05218  1.0000
  N   N16       1.0  0.27552  0.02915  0.10022  1.0000
  H   H183      1.0  0.50063  0.18813  0.36562  1.0000
  S   S65       1.0  0.23428  0.23479  0.27213  1.0000
  H   H184      1.0  0.61986  0.19361  0.24169  1.0000
  S   S66       1.0  0.39817  0.02226  0.23230  1.0000
  H   H185      1.0  0.38407  0.14521  0.21937  1.0000
  C   C185      1.0  0.61266  0.02423  0.48676  1.0000
  C   C186      1.0  0.38296  0.24319  0.25926  1.0000
  Fe  Fe34      1.0  0.58675  0.22838  0.07649  1.0000
  C   C187      1.0  0.62445  0.05006  0.29181  1.0000
  Fe  Fe35      1.0  0.60848  0.24004  0.16308  1.0000
  C   C188      1.0  0.22563  0.17322  0.38898  1.0000
  H   H186      1.0  0.47710  0.23688  0.23256  1.0000
  S   S67       1.0  0.23362  0.12888  0.52061  1.0000
  H   H187      1.0  0.47987  0.14471  0.07696  1.0000
  H   H188      1.0  0.49640  0.08714  0.50906  1.0000
  H   H189      1.0  0.36637  0.11799  0.04005  1.0000
  S   S68       1.0  0.15119  0.01064  0.06213  1.0000
  H   H190      1.0  0.16687  0.24690  0.06412  1.0000
  C   C189      1.0  0.53052  0.01683  0.52971  1.0000
  C   C190      1.0  0.34021  0.01135  0.34558  1.0000
  H   H191      1.0  0.55300  0.04222  0.03863  1.0000
  H   H192      1.0  0.36987  0.02832  0.04072  1.0000
  H   H193      1.0  0.53362  0.17935  0.04228  1.0000
  C   C191      1.0  0.48655  0.16578  0.04623  1.0000
  C   C192      1.0  0.43480  0.15171  0.04314  1.0000
  C   C193      1.0  0.26741  0.22125  0.04281  1.0000
  N   N17       1.0  0.51886  0.05837  0.51735  1.0000
  Fe  Fe36      1.0  0.48673  0.00888  0.38156  1.0000
  H   H194      1.0  0.24489  0.00863  0.37184  1.0000
  H   H195      1.0  0.28205  0.00881  0.47431  1.0000
  C   C194      1.0  0.62616  0.23258  0.53577  1.0000
  S   S69       1.0  0.17808  0.25620  0.27627  1.0000
  Fe  Fe37      1.0  0.15431  0.05567  0.03774  1.0000
  H   H196      1.0  0.34969  0.33993  0.68882  1.0000
  S   S70       1.0  0.36224  0.28791  0.69799  1.0000
  H   H197      1.0  0.61269  0.33415  0.77647  1.0000
  C   C195      1.0  0.31589  0.31752  0.02038  1.0000
  C   C196      1.0  0.41550  0.27552  0.77973  1.0000
  H   H198      1.0  0.49841  0.33066  0.94605  1.0000
  C   C197      1.0  0.14870  0.40031  0.63551  1.0000
  C   C198      1.0  0.26796  0.34184  0.71968  1.0000
  H   H199      1.0  0.28782  0.26295  0.53823  1.0000
  C   C199      1.0  0.24616  0.39545  0.03192  1.0000
  H   H200      1.0  0.53693  0.28339  0.84491  1.0000
  C   C200      1.0  0.56692  0.27199  0.79557  1.0000
  H   H201      1.0  0.59070  0.27616  0.61140  1.0000
  C   C201      1.0  0.55152  0.31116  0.76165  1.0000
  C   C202      1.0  0.59959  0.29767  0.92605  1.0000
  Fe  Fe38      1.0  0.49432  0.47761  0.01222  1.0000
  C   C203      1.0  0.34989  0.44219  0.74830  1.0000
  H   H202      1.0  0.49116  0.38243  0.00630  1.0000
  C   C204      1.0  0.43860  0.43768  0.71351  1.0000
  H   H203      1.0  0.38011  0.43359  0.63632  1.0000
  H   H204      1.0  0.14196  0.50390  0.85894  1.0000
  C   C205      1.0  0.39187  0.34857  0.76794  1.0000
  H   H205      1.0  0.35524  0.39037  0.63316  1.0000
  C   C206      1.0  0.57165  0.40929  0.93679  1.0000
  H   H206      1.0  0.25625  0.29830  0.95121  1.0000
  C   C207      1.0  0.19418  0.35676  0.80313  1.0000
  S   S71       1.0  0.22372  0.50465  0.86020  1.0000
  C   C208      1.0  0.61435  0.43297  0.85412  1.0000
  C   C209      1.0  0.31579  0.32513  0.55077  1.0000
  C   C210      1.0  0.40329  0.29005  0.85185  1.0000
  C   C211      1.0  0.42765  0.28537  0.86535  1.0000
  H   H207      1.0  0.37073  0.47789  0.76625  1.0000
  C   C212      1.0  0.13962  0.41967  0.60357  1.0000
  C   C213      1.0  0.22395  0.27682  0.92154  1.0000
  C   C214      1.0  0.26085  0.30511  0.57690  1.0000
  C   C215      1.0  0.37300  0.46772  0.73884  1.0000
  C   C216      1.0  0.43289  0.40252  0.91865  1.0000
  H   H208      1.0  0.52313  0.26869  0.98266  1.0000
  Fe  Fe39      1.0  0.55067  0.42860  0.67730  1.0000
  H   H209      1.0  0.22831  0.50631  0.75607  1.0000
  H   H210      1.0  0.51358  0.34303  0.99108  1.0000
  H   H211      1.0  0.41144  0.33890  0.90685  1.0000
  C   C217      1.0  0.47639  0.39746  0.86838  1.0000
  C   C218      1.0  0.45752  0.37038  0.87524  1.0000
  C   C219      1.0  0.15134  0.31020  0.96081  1.0000
  C   C220      1.0  0.19396  0.25846  0.93397  1.0000
  C   C221      1.0  0.28751  0.30357  0.58482  1.0000
  C   C222      1.0  0.42366  0.37313  0.67413  1.0000
  S   S72       1.0  0.47356  0.34882  0.85480  1.0000
  H   H212      1.0  0.20821  0.32159  0.82593  1.0000
  H   H213      1.0  0.21134  0.37054  0.81239  1.0000
  S   S73       1.0  0.46136  0.25826  0.99002  1.0000
  S   S74       1.0  0.41792  0.42168  0.94932  1.0000
  C   C223      1.0  0.15773  0.43265  0.96744  1.0000
  C   C224      1.0  0.62971  0.47774  0.92650  1.0000
  C   C225      1.0  0.57687  0.34983  0.83754  1.0000
  H   H214      1.0  0.42497  0.45258  0.84035  1.0000
  H   H215      1.0  0.53884  0.32383  0.76863  1.0000
  Fe  Fe40      1.0  0.45702  0.45628  0.94944  1.0000
  C   C226      1.0  0.18226  0.40485  0.93725  1.0000
  S   S75       1.0  0.58814  0.47158  0.64936  1.0000
  C   C227      1.0  0.13676  0.33813  0.00637  1.0000
  C   C228      1.0  0.48225  0.26976  0.02792  1.0000
  C   C229      1.0  0.15082  0.31941  0.00212  1.0000
  C   C230      1.0  0.58542  0.30105  0.70081  1.0000
  C   C231      1.0  0.37916  0.40712  0.84824  1.0000
  H   H216      1.0  0.51437  0.36822  0.92943  1.0000
  S   S76       1.0  0.43165  0.48635  0.59531  1.0000
  C   C232      1.0  0.51249  0.27247  0.01607  1.0000
  C   C233      1.0  0.17060  0.41252  0.97786  1.0000
  H   H217      1.0  0.59579  0.28720  0.96810  1.0000
  N   N18       1.0  0.40747  0.42555  0.80286  1.0000
  H   H218      1.0  0.34213  0.48457  0.84651  1.0000
  C   C234      1.0  0.46411  0.41341  0.89045  1.0000
  N   N19       1.0  0.21248  0.27327  0.01161  1.0000
  H   H219      1.0  0.18833  0.47884  0.65630  1.0000
  C   C235      1.0  0.45817  0.29189  0.60220  1.0000
  C   C236      1.0  0.23292  0.28393  0.96117  1.0000
  C   C237      1.0  0.56193  0.43171  0.92025  1.0000
  C   C238      1.0  0.43923  0.27042  0.79518  1.0000
  H   H220      1.0  0.55901  0.39170  0.97536  1.0000
  S   S77       1.0  0.54546  0.40971  0.61761  1.0000
  S   S78       1.0  0.29317  0.28494  0.71048  1.0000
  C   C239      1.0  0.58725  0.31772  0.90807  1.0000
  S   S79       1.0  0.24934  0.46405  0.64643  1.0000
  H   H221      1.0  0.41077  0.27139  0.74640  1.0000
  H   H222      1.0  0.24146  0.43512  0.99556  1.0000
  H   H223      1.0  0.37821  0.28821  0.79823  1.0000
  S   S80       1.0  0.17897  0.40257  0.76456  1.0000
  H   H224      1.0  0.25978  0.33135  0.76279  1.0000
  H   H225      1.0  0.62544  0.27467  0.90237  1.0000
  C   C240      1.0  0.57834  0.45466  0.87039  1.0000
  C   C241      1.0  0.60908  0.32430  0.81866  1.0000
  H   H226      1.0  0.29782  0.37907  0.56637  1.0000
  C   C242      1.0  0.28951  0.36867  0.60946  1.0000
  H   H227      1.0  0.47901  0.43396  0.88613  1.0000
  C   C243      1.0  0.33712  0.50196  0.82361  1.0000
  C   C244      1.0  0.35240  0.42968  0.71156  1.0000
  S   S81       1.0  0.49322  0.44550  0.97703  1.0000
  C   C245      1.0  0.59776  0.45112  0.01706  1.0000
  C   C246      1.0  0.39774  0.36511  0.66023  1.0000
  S   S82       1.0  0.61021  0.38183  0.92346  1.0000
  C   C247      1.0  0.37809  0.44289  0.66515  1.0000
  H   H228      1.0  0.57379  0.32284  0.93679  1.0000
  S   S83       1.0  0.57176  0.34638  0.65532  1.0000
  C   C248      1.0  0.15685  0.44497  0.91640  1.0000
  H   H229      1.0  0.19170  0.38872  0.94499  1.0000
  C   C249      1.0  0.45540  0.46610  0.76118  1.0000
  S   S84       1.0  0.31511  0.42966  0.79872  1.0000
  H   H230      1.0  0.44564  0.30970  0.97971  1.0000
  S   S85       1.0  0.48946  0.49175  0.87156  1.0000
  H   H231      1.0  0.33405  0.41036  0.71817  1.0000
  C   C250      1.0  0.48412  0.31739  0.57774  1.0000
  C   C251      1.0  0.41668  0.32455  0.02202  1.0000
  H   H232      1.0  0.59901  0.30587  0.66080  1.0000
  Fe  Fe41      1.0  0.33331  0.28977  0.64706  1.0000
  N   N20       1.0  0.60582  0.47292  0.96874  1.0000
  H   H233      1.0  0.24011  0.28562  0.88135  1.0000
  C   C252      1.0  0.39719  0.28497  0.80883  1.0000
  C   C253      1.0  0.18041  0.41718  0.88692  1.0000
  H   H234      1.0  0.37994  0.41110  0.88450  1.0000
  H   H235      1.0  0.58627  0.36206  0.79359  1.0000
  N   N21       1.0  0.59197  0.33063  0.85494  1.0000
  C   C254      1.0  0.61391  0.43351  0.02410  1.0000
  Fe  Fe42      1.0  0.28840  0.44002  0.74653  1.0000
  H   H236      1.0  0.58018  0.36565  0.85567  1.0000
  C   C255      1.0  0.42065  0.36524  0.72807  1.0000
  S   S86       1.0  0.26351  0.41042  0.71497  1.0000
  H   H237      1.0  0.44197  0.43363  0.67759  1.0000
  S   S87       1.0  0.56775  0.48369  0.84862  1.0000
  H   H238      1.0  0.22381  0.32506  0.71328  1.0000
  H   H239      1.0  0.43867  0.28986  0.58927  1.0000
  C   C256      1.0  0.19223  0.32899  0.81128  1.0000
  C   C257      1.0  0.36919  0.34784  0.70004  1.0000
  H   H240      1.0  0.24295  0.34899  0.61483  1.0000
  Fe  Fe43      1.0  0.50268  0.37413  0.76936  1.0000
  Fe  Fe44      1.0  0.27672  0.49011  0.68083  1.0000
  H   H241      1.0  0.54201  0.43132  0.94625  1.0000
  H   H242      1.0  0.53332  0.47924  0.63819  1.0000
  H   H243      1.0  0.16499  0.47085  0.81593  1.0000
  C   C258      1.0  0.56930  0.31764  0.70970  1.0000
  C   C259      1.0  0.17053  0.31149  0.79783  1.0000
  S   S88       1.0  0.33232  0.31115  0.80215  1.0000
  H   H244      1.0  0.50067  0.40572  0.84772  1.0000
  H   H245      1.0  0.52859  0.29877  0.64532  1.0000
  N   N22       1.0  0.30927  0.37180  0.63676  1.0000
  C   C260      1.0  0.17405  0.36671  0.78258  1.0000
  C   C261      1.0  0.41380  0.37599  0.92323  1.0000
  N   N23       1.0  0.44516  0.27560  0.83724  1.0000
  H   H246      1.0  0.43228  0.28929  0.89894  1.0000
  S   S89       1.0  0.49440  0.35136  0.71633  1.0000
  C   C262      1.0  0.59033  0.49257  0.96344  1.0000
  Fe  Fe45      1.0  0.18799  0.30172  0.60160  1.0000
  H   H247      1.0  0.32839  0.33348  0.98005  1.0000
  C   C263      1.0  0.56301  0.27777  0.56164  1.0000
  H   H248      1.0  0.48676  0.26953  0.82146  1.0000
  C   C264      1.0  0.60459  0.45518  0.83755  1.0000
  N   N24       1.0  0.47130  0.34582  0.99121  1.0000
  C   C265      1.0  0.41204  0.42035  0.75780  1.0000
  H   H249      1.0  0.23662  0.38567  0.00766  1.0000
  C   C266      1.0  0.42613  0.35987  0.90156  1.0000
  Fe  Fe46      1.0  0.28615  0.44744  0.63528  1.0000
  Fe  Fe47      1.0  0.32119  0.28085  0.76277  1.0000
  S   S90       1.0  0.34849  0.32465  0.56595  1.0000
  C   C267      1.0  0.34174  0.38880  0.60660  1.0000
  H   H250      1.0  0.38057  0.50301  0.98360  1.0000
  H   H251      1.0  0.24198  0.38816  0.53963  1.0000
  C   C268      1.0  0.24879  0.42307  0.02528  1.0000
  C   C269      1.0  0.47030  0.36585  0.01125  1.0000
  S   S91       1.0  0.17210  0.27963  0.79586  1.0000
  Fe  Fe48      1.0  0.22887  0.42931  0.72862  1.0000
  H   H252      1.0  0.48053  0.28450  0.86953  1.0000
  S   S92       1.0  0.45971  0.39154  0.62391  1.0000
  C   C270      1.0  0.55119  0.49994  0.62601  1.0000
  H   H253      1.0  0.22308  0.49481  0.56922  1.0000
  H   H254      1.0  0.14710  0.46079  0.90863  1.0000
  C   C271      1.0  0.46028  0.46080  0.71521  1.0000
  Fe  Fe49      1.0  0.54498  0.37061  0.67804  1.0000
  C   C272      1.0  0.50093  0.34696  0.96319  1.0000
  H   H255      1.0  0.16274  0.29628  0.95648  1.0000
  C   C273      1.0  0.36627  0.33886  0.75394  1.0000
  C   C274      1.0  0.24775  0.33831  0.69198  1.0000
  H   H256      1.0  0.39581  0.30932  0.02374  1.0000
  C   C275      1.0  0.15125  0.34846  0.77251  1.0000
  H   H257      1.0  0.61764  0.47296  0.79921  1.0000
  H   H258      1.0  0.14826  0.43859  0.99871  1.0000
  S   S93       1.0  0.45489  0.48509  0.99222  1.0000
  Fe  Fe50      1.0  0.52565  0.48268  0.90169  1.0000
  C   C276      1.0  0.55036  0.28830  0.80467  1.0000
  H   H259      1.0  0.38983  0.34184  0.80948  1.0000
  H   H260      1.0  0.39992  0.37096  0.61870  1.0000
  H   H261      1.0  0.53691  0.35858  0.59101  1.0000
  H   H262      1.0  0.37510  0.38428  0.85817  1.0000
  H   H263      1.0  0.38968  0.36735  0.94542  1.0000
  S   S94       1.0  0.17290  0.32140  0.65597  1.0000
  H   H264      1.0  0.55212  0.33732  0.84919  1.0000
  H   H265      1.0  0.45254  0.26186  0.77392  1.0000
  C   C277      1.0  0.46906  0.26883  0.85469  1.0000
  H   H266      1.0  0.13555  0.31028  0.89518  1.0000
  H   H267      1.0  0.63496  0.43420  0.82851  1.0000
  S   S95       1.0  0.55338  0.39041  0.73516  1.0000
  H   H268      1.0  0.25410  0.45280  0.55679  1.0000
  H   H269      1.0  0.41170  0.34289  0.55068  1.0000
  H   H270      1.0  0.44051  0.37135  0.73933  1.0000
  H   H271      1.0  0.47217  0.48401  0.76294  1.0000
  C   C278      1.0  0.61642  0.29068  0.88934  1.0000
  C   C279      1.0  0.58413  0.27817  0.74361  1.0000
  C   C280      1.0  0.44495  0.32517  0.99669  1.0000
  S   S96       1.0  0.34443  0.28512  0.99216  1.0000
  H   H272      1.0  0.35055  0.37875  0.58106  1.0000
  S   S97       1.0  0.50049  0.41426  0.71732  1.0000
  S   S98       1.0  0.30997  0.44618  0.55842  1.0000
  H   H273      1.0  0.23922  0.28876  0.60427  1.0000
  H   H274      1.0  0.37022  0.48138  0.56121  1.0000
  H   H275      1.0  0.39478  0.40303  0.75556  1.0000
  C   C281      1.0  0.40065  0.46897  0.65481  1.0000
  C   C282      1.0  0.59786  0.40984  0.90352  1.0000
  N   N25       1.0  0.16833  0.43737  0.87680  1.0000
  S   S99       1.0  0.15739  0.45625  0.58655  1.0000
  C   C283      1.0  0.42864  0.44821  0.80487  1.0000
  H   H276      1.0  0.16173  0.49424  0.64053  1.0000
  H   H277      1.0  0.32879  0.50055  0.02314  1.0000
  H   H278      1.0  0.41518  0.50161  0.68375  1.0000
  H   H279      1.0  0.38915  0.29739  0.87485  1.0000
  H   H280      1.0  0.13567  0.35597  0.75692  1.0000
  H   H281      1.0  0.48065  0.47471  0.68072  1.0000
  C   C284      1.0  0.62116  0.30397  0.83547  1.0000
  H   H282      1.0  0.31439  0.36132  0.71325  1.0000
  S   S100      1.0  0.25268  0.45689  0.76474  1.0000
  Fe  Fe51      1.0  0.49537  0.39239  0.66187  1.0000
  S   S101      1.0  0.31450  0.47545  0.66561  1.0000
  C   C285      1.0  0.39816  0.48130  0.69176  1.0000
  S   S102      1.0  0.14231  0.28503  0.59421  1.0000
  Fe  Fe52      1.0  0.16031  0.27933  0.72318  1.0000
  C   C286      1.0  0.29887  0.35882  0.69128  1.0000
  H   H283      1.0  0.35965  0.41096  0.83851  1.0000
  H   H284      1.0  0.28605  0.28550  0.61730  1.0000
  C   C287      1.0  0.53488  0.26476  0.55757  1.0000
  C   C288      1.0  0.14964  0.32101  0.77961  1.0000
  H   H285      1.0  0.16624  0.40781  0.65134  1.0000
  H   H286      1.0  0.59012  0.50145  0.92230  1.0000
  H   H287      1.0  0.63330  0.29788  0.80693  1.0000
  C   C289      1.0  0.16594  0.44955  0.82422  1.0000
  H   H288      1.0  0.55733  0.34165  0.55950  1.0000
  C   C290      1.0  0.48286  0.27147  0.65952  1.0000
  C   C291      1.0  0.50867  0.29713  0.63355  1.0000
  H   H289      1.0  0.17096  0.40258  0.01762  1.0000
  N   N26       1.0  0.50920  0.31950  0.59261  1.0000
  C   C292      1.0  0.25850  0.35186  0.63659  1.0000
  H   H290      1.0  0.59665  0.26540  0.73639  1.0000
  C   C293      1.0  0.53642  0.34621  0.56600  1.0000
  H   H291      1.0  0.18241  0.50439  0.68172  1.0000
  H   H292      1.0  0.14259  0.35636  0.67060  1.0000
  H   H293      1.0  0.18842  0.41030  0.85617  1.0000
  H   H294      1.0  0.18609  0.45259  0.79230  1.0000
  C   C294      1.0  0.45777  0.26872  0.64284  1.0000
  H   H295      1.0  0.56624  0.48161  0.99081  1.0000
  H   H296      1.0  0.29474  0.47420  0.82462  1.0000
  H   H297      1.0  0.61156  0.34400  0.56572  1.0000
  C   C295      1.0  0.18397  0.49870  0.64677  1.0000
  H   H298      1.0  0.48436  0.33525  0.54595  1.0000
  H   H299      1.0  0.39035  0.29528  0.55123  1.0000
  H   H300      1.0  0.14519  0.43491  0.82221  1.0000
  H   H301      1.0  0.34531  0.41082  0.58109  1.0000
  S   S103      1.0  0.17911  0.26086  0.66905  1.0000
  C   C296      1.0  0.56888  0.26612  0.60828  1.0000
  H   H302      1.0  0.62339  0.37081  0.01989  1.0000
  C   C297      1.0  0.58003  0.50193  0.62764  1.0000
  C   C298      1.0  0.31047  0.49613  0.81136  1.0000
  C   C299      1.0  0.13610  0.31825  0.92593  1.0000
  H   H303      1.0  0.13789  0.34671  0.03608  1.0000
  N   N27       1.0  0.44489  0.45363  0.19136  1.0000
  Fe  Fe53      1.0  0.42305  0.34879  0.30828  1.0000
  Fe  Fe54      1.0  0.16420  0.46062  0.40482  1.0000
  H   H304      1.0  0.60646  0.40472  0.38252  1.0000
  C   C300      1.0  0.50464  0.49131  0.51513  1.0000
  H   H305      1.0  0.20067  0.26271  0.47660  1.0000
  C   C301      1.0  0.27697  0.28159  0.42222  1.0000
  Fe  Fe55      1.0  0.14754  0.31443  0.12139  1.0000
  C   C302      1.0  0.26975  0.41922  0.09598  1.0000
  H   H306      1.0  0.15828  0.27103  0.37358  1.0000
  C   C303      1.0  0.26041  0.34532  0.37792  1.0000
  C   C304      1.0  0.30449  0.27157  0.08923  1.0000
  C   C305      1.0  0.49346  0.42909  0.31232  1.0000
  C   C306      1.0  0.26643  0.43591  0.39073  1.0000
  H   H307      1.0  0.45723  0.38778  0.51730  1.0000
  N   N28       1.0  0.55699  0.49899  0.50258  1.0000
  H   H308      1.0  0.26252  0.36773  0.36037  1.0000
  C   C307      1.0  0.22248  0.28121  0.05222  1.0000
  H   H309      1.0  0.17973  0.38939  0.48434  1.0000
  C   C308      1.0  0.43604  0.46414  0.14912  1.0000
  H   H310      1.0  0.55984  0.50258  0.24019  1.0000
  C   C309      1.0  0.60181  0.42277  0.38526  1.0000
  Fe  Fe56      1.0  0.33368  0.46904  0.14630  1.0000
  C   C310      1.0  0.54309  0.35875  0.19705  1.0000
  H   H311      1.0  0.51309  0.37929  0.21628  1.0000
  C   C311      1.0  0.31382  0.49817  0.41492  1.0000
  C   C312      1.0  0.52121  0.45307  0.51765  1.0000
  C   C313      1.0  0.20066  0.36010  0.27328  1.0000
  S   S104      1.0  0.31137  0.44006  0.23291  1.0000
  C   C314      1.0  0.26063  0.43506  0.05752  1.0000
  H   H312      1.0  0.55129  0.27890  0.04182  1.0000
  H   H313      1.0  0.27306  0.45005  0.34943  1.0000
  H   H314      1.0  0.49493  0.36930  0.38573  1.0000
  S   S105      1.0  0.14551  0.43378  0.36411  1.0000
  H   H315      1.0  0.20293  0.27524  0.08830  1.0000
  H   H316      1.0  0.46046  0.26199  0.36931  1.0000
  S   S106      1.0  0.38188  0.35597  0.29628  1.0000
  H   H317      1.0  0.38475  0.46045  0.49593  1.0000
  H   H318      1.0  0.55300  0.45528  0.36483  1.0000
  C   C315      1.0  0.28450  0.49812  0.42592  1.0000
  H   H319      1.0  0.35027  0.41282  0.03872  1.0000
  H   H320      1.0  0.47569  0.28789  0.13454  1.0000
  C   C316      1.0  0.24638  0.32197  0.31931  1.0000
  N   N29       1.0  0.26730  0.39223  0.10200  1.0000
  H   H321      1.0  0.22270  0.31725  0.33889  1.0000
  H   H322      1.0  0.61314  0.37480  0.20827  1.0000
  C   C317      1.0  0.24953  0.27923  0.45504  1.0000
  H   H323      1.0  0.29183  0.34199  0.04299  1.0000
  H   H324      1.0  0.62830  0.42442  0.20949  1.0000
  Fe  Fe57      1.0  0.39882  0.28799  0.31758  1.0000
  H   H325      1.0  0.24081  0.48226  0.48662  1.0000
  Fe  Fe58      1.0  0.21937  0.26211  0.21405  1.0000
  C   C318      1.0  0.36335  0.38428  0.09287  1.0000
  C   C319      1.0  0.55081  0.47146  0.50796  1.0000
  H   H326      1.0  0.52951  0.27420  0.52304  1.0000
  H   H327      1.0  0.46291  0.46203  0.24979  1.0000
  C   C320      1.0  0.57170  0.45128  0.37528  1.0000
  S   S107      1.0  0.50539  0.47522  0.08585  1.0000
  C   C321      1.0  0.47987  0.38103  0.45039  1.0000
  H   H328      1.0  0.21874  0.42398  0.40431  1.0000
  H   H329      1.0  0.47493  0.44910  0.52884  1.0000
  C   C322      1.0  0.36981  0.39460  0.16841  1.0000
  C   C323      1.0  0.61433  0.46476  0.40520  1.0000
  H   H330      1.0  0.20027  0.38769  0.36706  1.0000
  H   H331      1.0  0.17683  0.40396  0.14704  1.0000
  C   C324      1.0  0.13829  0.27485  0.38879  1.0000
  H   H332      1.0  0.17730  0.50040  0.06546  1.0000
  H   H333      1.0  0.51578  0.46534  0.32750  1.0000
  C   C325      1.0  0.45609  0.37361  0.49672  1.0000
  C   C326      1.0  0.59143  0.37622  0.20903  1.0000
  C   C327      1.0  0.31746  0.34761  0.50671  1.0000
  H   H334      1.0  0.44130  0.38169  0.05256  1.0000
  C   C328      1.0  0.40720  0.47863  0.48009  1.0000
  H   H335      1.0  0.21877  0.44645  0.13851  1.0000
  H   H336      1.0  0.51240  0.27635  0.30829  1.0000
  C   C329      1.0  0.60511  0.41488  0.23921  1.0000
  S   S108      1.0  0.53361  0.33276  0.33704  1.0000
  H   H337      1.0  0.39364  0.34483  0.06102  1.0000
  H   H338      1.0  0.29100  0.36604  0.12636  1.0000
  C   C330      1.0  0.53513  0.37831  0.21375  1.0000
  H   H339      1.0  0.60562  0.40319  0.27883  1.0000
  Fe  Fe59      1.0  0.28490  0.46732  0.23582  1.0000
  H   H340      1.0  0.36141  0.43109  0.17313  1.0000
  C   C331      1.0  0.27634  0.26816  0.38698  1.0000
  C   C332      1.0  0.47744  0.36321  0.42318  1.0000
  H   H341      1.0  0.42816  0.45106  0.12834  1.0000
  C   C333      1.0  0.51509  0.28346  0.09260  1.0000
  C   C334      1.0  0.15376  0.45547  0.08705  1.0000
  C   C335      1.0  0.27116  0.46616  0.51790  1.0000
  H   H342      1.0  0.31588  0.35234  0.32361  1.0000
  S   S109      1.0  0.18884  0.32745  0.26761  1.0000
  H   H343      1.0  0.60854  0.34032  0.08152  1.0000
  S   S110      1.0  0.30421  0.49392  0.14796  1.0000
  N   N30       1.0  0.26849  0.33567  0.33549  1.0000
  S   S111      1.0  0.19315  0.45728  0.45539  1.0000
  C   C336      1.0  0.46914  0.27585  0.07010  1.0000
  C   C337      1.0  0.28429  0.31934  0.25222  1.0000
  H   H344      1.0  0.22035  0.38477  0.18881  1.0000
  H   H345      1.0  0.49960  0.40109  0.43421  1.0000
  C   C338      1.0  0.23565  0.42117  0.42233  1.0000
  C   C339      1.0  0.20106  0.47620  0.10072  1.0000
  C   C340      1.0  0.27852  0.30126  0.10757  1.0000
  C   C341      1.0  0.27969  0.41540  0.46684  1.0000
  H   H346      1.0  0.18215  0.34124  0.35914  1.0000
  C   C342      1.0  0.20546  0.38700  0.32822  1.0000
  Fe  Fe60      1.0  0.57293  0.31941  0.33590  1.0000
  C   C343      1.0  0.62042  0.44146  0.40150  1.0000
  H   H347      1.0  0.33019  0.33739  0.25022  1.0000
  C   C344      1.0  0.30049  0.46646  0.50734  1.0000
  H   H348      1.0  0.40625  0.28827  0.49545  1.0000
  H   H349      1.0  0.54902  0.41131  0.24165  1.0000
  Fe  Fe61      1.0  0.57052  0.31780  0.44438  1.0000
  H   H350      1.0  0.27549  0.34394  0.40216  1.0000
  S   S112      1.0  0.53166  0.33138  0.45436  1.0000
  C   C345      1.0  0.57736  0.50587  0.20525  1.0000
  H   H351      1.0  0.29193  0.36614  0.46400  1.0000
  H   H352      1.0  0.29681  0.41353  0.48476  1.0000
  C   C346      1.0  0.48591  0.28350  0.10156  1.0000
  S   S113      1.0  0.13888  0.28647  0.20556  1.0000
  C   C347      1.0  0.27603  0.37540  0.14343  1.0000
  C   C348      1.0  0.32182  0.48234  0.45564  1.0000
  S   S114      1.0  0.59734  0.35199  0.36261  1.0000
  C   C349      1.0  0.55559  0.39641  0.22814  1.0000
  C   C350      1.0  0.43033  0.34824  0.51524  1.0000
  H   H353      1.0  0.18925  0.39906  0.53621  1.0000
  H   H354      1.0  0.19993  0.47906  0.22370  1.0000
  C   C351      1.0  0.22901  0.41132  0.23220  1.0000
  S   S115      1.0  0.23601  0.44504  0.28714  1.0000
  H   H355      1.0  0.55730  0.46267  0.21224  1.0000
  H   H356      1.0  0.58515  0.48740  0.39571  1.0000
  H   H357      1.0  0.34442  0.48230  0.44693  1.0000
  H   H358      1.0  0.63323  0.32209  0.33545  1.0000
  C   C352      1.0  0.37046  0.37758  0.13959  1.0000
  H   H359      1.0  0.59869  0.43291  0.24066  1.0000
  C   C353      1.0  0.59916  0.48703  0.14579  1.0000
  H   H360      1.0  0.39081  0.26622  0.24279  1.0000
  H   H361      1.0  0.44934  0.32528  0.41953  1.0000
  Fe  Fe62      1.0  0.55631  0.36276  0.37014  1.0000
  S   S116      1.0  0.60413  0.26812  0.08967  1.0000
  S   S117      1.0  0.37138  0.49969  0.15760  1.0000
  C   C354      1.0  0.22294  0.41217  0.28244  1.0000
  H   H362      1.0  0.51363  0.43267  0.28184  1.0000
  C   C355      1.0  0.21686  0.38540  0.22756  1.0000
  Fe  Fe63      1.0  0.16160  0.32705  0.21350  1.0000
  S   S118      1.0  0.53326  0.28573  0.13903  1.0000
  C   C356      1.0  0.46661  0.40549  0.32690  1.0000
  C   C357      1.0  0.29836  0.34159  0.31062  1.0000
  H   H363      1.0  0.57911  0.44767  0.05072  1.0000
  S   S119      1.0  0.55489  0.40595  0.34888  1.0000
  C   C358      1.0  0.19504  0.36081  0.32370  1.0000
  H   H364      1.0  0.29050  0.31299  0.21967  1.0000
  S   S120      1.0  0.46743  0.38155  0.29690  1.0000
  H   H365      1.0  0.27852  0.42855  0.12136  1.0000
  C   C359      1.0  0.35447  0.42447  0.10424  1.0000
  S   S121      1.0  0.22851  0.33030  0.52654  1.0000
  H   H366      1.0  0.61670  0.26480  0.37501  1.0000
  H   H367      1.0  0.57735  0.34177  0.18367  1.0000
  H   H368      1.0  0.36376  0.37135  0.07017  1.0000
  S   S122      1.0  0.37037  0.46109  0.30209  1.0000
  S   S123      1.0  0.46175  0.27506  0.45989  1.0000
  C   C360      1.0  0.17713  0.42495  0.12826  1.0000
  C   C361      1.0  0.57764  0.42793  0.37162  1.0000
  H   H369      1.0  0.33937  0.36412  0.47964  1.0000
  S   S124      1.0  0.59623  0.31007  0.26998  1.0000
  H   H370      1.0  0.23636  0.30304  0.26444  1.0000
  C   C362      1.0  0.44424  0.42469  0.20864  1.0000
  H   H371      1.0  0.25252  0.35844  0.07705  1.0000
  H   H372      1.0  0.42229  0.41403  0.42711  1.0000
  Fe  Fe64      1.0  0.38563  0.33398  0.24086  1.0000
  S   S125      1.0  0.35613  0.29025  0.30434  1.0000
  C   C363      1.0  0.46931  0.44170  0.38057  1.0000
  C   C364      1.0  0.39773  0.49273  0.29559  1.0000
  H   H373      1.0  0.48690  0.49948  0.51701  1.0000
  S   S126      1.0  0.39594  0.30679  0.37818  1.0000
  C   C365      1.0  0.43822  0.49230  0.13069  1.0000
  S   S127      1.0  0.47250  0.46269  0.41731  1.0000
  C   C366      1.0  0.20071  0.44895  0.12407  1.0000
  N   N31       1.0  0.58360  0.39560  0.22465  1.0000
  C   C367      1.0  0.19485  0.38892  0.50854  1.0000
  C   C368      1.0  0.16074  0.42802  0.25132  1.0000
  C   C369      1.0  0.57587  0.48326  0.18957  1.0000
  C   C370      1.0  0.26226  0.32774  0.53384  1.0000
  H   H374      1.0  0.43238  0.41230  0.18884  1.0000
  S   S128      1.0  0.54885  0.28433  0.41719  1.0000
  H   H375      1.0  0.23679  0.33159  0.40609  1.0000
  C   C371      1.0  0.28316  0.27593  0.12409  1.0000
  C   C372      1.0  0.45132  0.33829  0.44237  1.0000
  S   S129      1.0  0.37961  0.34764  0.16119  1.0000
  S   S130      1.0  0.25001  0.30540  0.14998  1.0000
  H   H376      1.0  0.18017  0.49705  0.18909  1.0000
  H   H377      1.0  0.56887  0.46366  0.50464  1.0000
  Fe  Fe65      1.0  0.16713  0.47601  0.49921  1.0000
  H   H378      1.0  0.52718  0.34421  0.18672  1.0000
  H   H379      1.0  0.37546  0.38983  0.20417  1.0000
  C   C373      1.0  0.17713  0.47953  0.22619  1.0000
  C   C374      1.0  0.28855  0.43275  0.41297  1.0000
  Fe  Fe66      1.0  0.35481  0.31179  0.36078  1.0000
  C   C375      1.0  0.36175  0.41799  0.15082  1.0000
  H   H380      1.0  0.59948  0.50660  0.51461  1.0000
  H   H381      1.0  0.43241  0.41300  0.25236  1.0000
  C   C376      1.0  0.17749  0.47944  0.08246  1.0000
  C   C377      1.0  0.57135  0.35756  0.19489  1.0000
  C   C378      1.0  0.24871  0.40130  0.49763  1.0000
  C   C379      1.0  0.30663  0.33323  0.26909  1.0000
  H   H382      1.0  0.51622  0.43121  0.52218  1.0000
  H   H383      1.0  0.25534  0.35770  0.17566  1.0000
  C   C380      1.0  0.45581  0.47043  0.21641  1.0000
  C   C381      1.0  0.44055  0.40047  0.36717  1.0000
  C   C382      1.0  0.58980  0.46943  0.39272  1.0000
  Fe  Fe67      1.0  0.51179  0.30049  0.42128  1.0000
  C   C383      1.0  0.44205  0.41842  0.39461  1.0000
  H   H384      1.0  0.24241  0.43087  0.19704  1.0000
  C   C384      1.0  0.25394  0.31367  0.27743  1.0000
  H   H385      1.0  0.28879  0.38860  0.16117  1.0000
  N   N32       1.0  0.42843  0.33076  0.48844  1.0000
  H   H386      1.0  0.41973  0.38214  0.37870  1.0000
  C   C385      1.0  0.22175  0.26422  0.45143  1.0000
  H   H387      1.0  0.44610  0.27451  0.07885  1.0000
  N   N33       1.0  0.15570  0.45227  0.23153  1.0000
  H   H388      1.0  0.16865  0.48389  0.26142  1.0000
  C   C386      1.0  0.35558  0.40777  0.07505  1.0000
  N   N34       1.0  0.22712  0.40393  0.47509  1.0000
  C   C387      1.0  0.29063  0.34877  0.49797  1.0000
  C   C388      1.0  0.49470  0.44746  0.33844  1.0000
  H   H389      1.0  0.24975  0.28936  0.48277  1.0000
  H   H390      1.0  0.23749  0.27056  0.06459  1.0000
  S   S131      1.0  0.19692  0.50445  0.34710  1.0000
  C   C389      1.0  0.15367  0.42822  0.10959  1.0000
  S   S132      1.0  0.17424  0.35452  0.12714  1.0000
  S   S133      1.0  0.31162  0.30187  0.42513  1.0000
  S   S134      1.0  0.31852  0.49788  0.25443  1.0000
  H   H391      1.0  0.38411  0.30994  0.48952  1.0000
  Fe  Fe68      1.0  0.22326  0.50283  0.40233  1.0000
  H   H392      1.0  0.41852  0.48193  0.43849  1.0000
  H   H393      1.0  0.60784  0.41677  0.06291  1.0000
  H   H394      1.0  0.41528  0.47123  0.35201  1.0000
  C   C390      1.0  0.45813  0.49864  0.19920  1.0000
  C   C391      1.0  0.41740  0.49165  0.32463  1.0000
  H   H395      1.0  0.31253  0.44432  0.38880  1.0000
  Fe  Fe69      1.0  0.34668  0.47273  0.24476  1.0000
  C   C392      1.0  0.49800  0.46310  0.52145  1.0000
  S   S135      1.0  0.42852  0.32951  0.24865  1.0000
  S   S136      1.0  0.59010  0.30909  0.50884  1.0000
  H   H396      1.0  0.17990  0.42885  0.26452  1.0000
  S   S137      1.0  0.34251  0.45247  0.08340  1.0000
  C   C393      1.0  0.40097  0.30475  0.50712  1.0000
  S   S138      1.0  0.60025  0.45799  0.13088  1.0000
  C   C394      1.0  0.26332  0.48221  0.47754  1.0000
  Fe  Fe70      1.0  0.50933  0.50609  0.36500  1.0000
  H   H397      1.0  0.29707  0.26920  0.36239  1.0000
  H   H398      1.0  0.46794  0.42581  0.19875  1.0000
  H   H399      1.0  0.14555  0.27314  0.46200  1.0000
  C   C395      1.0  0.52859  0.27856  0.04918  1.0000
  C   C396      1.0  0.29526  0.32232  0.05596  1.0000
  C   C397      1.0  0.25537  0.38018  0.07102  1.0000
  C   C398      1.0  0.38326  0.50196  0.52786  1.0000
  N   N35       1.0  0.40328  0.50424  0.48280  1.0000
  H   H400      1.0  0.42150  0.47288  0.50378  1.0000
  H   H401      1.0  0.27031  0.25956  0.16369  1.0000
  C   C399      1.0  0.14089  0.40185  0.25603  1.0000
  H   H402      1.0  0.14527  0.38280  0.27147  1.0000
  C   C400      1.0  0.62976  0.35889  0.05266  1.0000
  H   H403      1.0  0.26249  0.45640  0.05318  1.0000
  H   H404      1.0  0.13881  0.49538  0.34793  1.0000
  H   H405      1.0  0.56865  0.49827  0.07323  1.0000
  H   H406      1.0  0.18962  0.36611  0.53223  1.0000
  H   H407      1.0  0.43168  0.50064  0.09660  1.0000
  S   S139      1.0  0.16596  0.30618  0.05035  1.0000
  H   H408      1.0  0.53711  0.35975  0.52644  1.0000
  S   S140      1.0  0.23171  0.50631  0.09184  1.0000
  C   C401      1.0  0.41546  0.34483  0.04248  1.0000
  C   C402      1.0  0.63432  0.31550  0.26332  1.0000
  H   H409      1.0  0.23488  0.30473  0.03663  1.0000
  C   C403      1.0  0.32035  0.29207  0.03709  1.0000
  C   C404      1.0  0.44234  0.36560  0.03735  1.0000
  C   C405      1.0  0.45144  0.62731  0.01714  1.0000
  C   C406      1.0  0.25688  0.65052  0.91288  1.0000
  H   H410      1.0  0.18873  0.70558  0.78780  1.0000
  S   S141      1.0  0.29141  0.71844  0.97493  1.0000
  S   S142      1.0  0.21711  0.54224  0.96023  1.0000
  H   H411      1.0  0.41275  0.67760  0.63365  1.0000
  N   N36       1.0  0.19174  0.72514  0.84291  1.0000
  C   C407      1.0  0.30587  0.55304  0.58323  1.0000
  H   H412      1.0  0.16561  0.74907  0.60342  1.0000
  H   H413      1.0  0.23778  0.73067  0.82840  1.0000
  S   S143      1.0  0.28299  0.57917  0.96486  1.0000
  S   S144      1.0  0.49466  0.60700  0.57647  1.0000
  H   H414      1.0  0.32103  0.69983  0.65034  1.0000
  C   C408      1.0  0.18056  0.71820  0.80622  1.0000
  H   H415      1.0  0.60235  0.51046  0.97287  1.0000
  H   H416      1.0  0.42278  0.72331  0.71056  1.0000
  H   H417      1.0  0.62551  0.53027  0.61244  1.0000
  C   C409      1.0  0.36358  0.66131  0.83286  1.0000
  H   H418      1.0  0.61604  0.57423  0.57984  1.0000
  H   H419      1.0  0.15136  0.57337  0.77456  1.0000
  N   N37       1.0  0.58503  0.55943  0.74208  1.0000
  C   C410      1.0  0.63224  0.63720  0.60322  1.0000
  H   H420      1.0  0.27753  0.65803  0.01728  1.0000
  H   H421      1.0  0.33138  0.63917  0.97549  1.0000
  H   H422      1.0  0.21414  0.71360  0.89819  1.0000
  S   S145      1.0  0.27256  0.51928  0.94881  1.0000
  H   H423      1.0  0.57702  0.63901  0.91865  1.0000
  C   C411      1.0  0.61076  0.74591  0.95635  1.0000
  C   C412      1.0  0.45242  0.69077  0.71280  1.0000
  S   S146      1.0  0.14545  0.65010  0.80555  1.0000
  H   H424      1.0  0.15425  0.62793  0.58544  1.0000
  H   H425      1.0  0.48920  0.54250  0.80720  1.0000
  C   C413      1.0  0.31097  0.64758  0.60449  1.0000
  C   C414      1.0  0.22026  0.56960  0.71488  1.0000
  S   S147      1.0  0.40485  0.70995  0.82770  1.0000
  H   H426      1.0  0.43231  0.66892  0.84725  1.0000
  C   C415      1.0  0.37742  0.52204  0.98469  1.0000
  C   C416      1.0  0.26097  0.67871  0.88502  1.0000
  H   H427      1.0  0.36351  0.52428  0.56739  1.0000
  S   S148      1.0  0.15227  0.69688  0.00258  1.0000
  S   S149      1.0  0.48489  0.71532  0.83997  1.0000
  H   H428      1.0  0.21191  0.55568  0.84503  1.0000
  N   N38       1.0  0.36944  0.57060  0.98870  1.0000
  C   C417      1.0  0.21482  0.71540  0.85739  1.0000
  Fe  Fe71      1.0  0.24844  0.53398  0.00483  1.0000
  H   H429      1.0  0.26795  0.64253  0.77773  1.0000
  S   S150      1.0  0.43082  0.58154  0.70819  1.0000
  C   C418      1.0  0.14741  0.74298  0.81625  1.0000
  H   H430      1.0  0.45480  0.58904  0.01198  1.0000
  H   H431      1.0  0.33052  0.57527  0.68763  1.0000
  H   H432      1.0  0.45451  0.59774  0.85888  1.0000
  C   C419      1.0  0.39947  0.63012  0.85311  1.0000
  C   C420      1.0  0.31345  0.67842  0.65147  1.0000
  C   C421      1.0  0.26306  0.64303  0.96045  1.0000
  H   H433      1.0  0.32976  0.62196  0.84315  1.0000
  C   C422      1.0  0.25135  0.75658  0.66948  1.0000
  C   C423      1.0  0.27315  0.66383  0.98014  1.0000
  Fe  Fe72      1.0  0.45390  0.57137  0.64274  1.0000
  Fe  Fe73      1.0  0.25351  0.58639  0.91567  1.0000
  C   C424      1.0  0.54232  0.63098  0.88336  1.0000
  C   C425      1.0  0.39797  0.57229  0.96573  1.0000
  C   C426      1.0  0.36569  0.73733  0.90710  1.0000
  C   C427      1.0  0.22469  0.54536  0.71292  1.0000
  Fe  Fe74      1.0  0.24006  0.69484  0.64529  1.0000
  H   H434      1.0  0.27384  0.72103  0.88316  1.0000
  C   C428      1.0  0.47619  0.55556  0.80395  1.0000
  S   S151      1.0  0.16491  0.63045  0.68169  1.0000
  H   H435      1.0  0.58810  0.73199  0.81501  1.0000
  H   H436      1.0  0.46565  0.54850  0.73822  1.0000
  H   H437      1.0  0.58521  0.52232  0.73025  1.0000
  H   H438      1.0  0.25921  0.62114  0.98293  1.0000
  C   C429      1.0  0.34208  0.65860  0.98030  1.0000
  C   C430      1.0  0.41583  0.71042  0.68777  1.0000
  C   C431      1.0  0.30448  0.51874  0.78117  1.0000
  H   H439      1.0  0.61640  0.66867  0.68743  1.0000
  H   H440      1.0  0.53697  0.60824  0.89699  1.0000
  H   H441      1.0  0.55378  0.72785  0.80001  1.0000
  C   C432      1.0  0.63171  0.75300  0.90677  1.0000
  H   H442      1.0  0.38009  0.72852  0.99500  1.0000
  H   H443      1.0  0.53822  0.57777  0.99571  1.0000
  S   S152      1.0  0.49978  0.73170  0.93629  1.0000
  H   H444      1.0  0.30426  0.51372  0.57658  1.0000
  C   C433      1.0  0.40241  0.54798  0.96399  1.0000
  S   S153      1.0  0.43032  0.69016  0.95141  1.0000
  C   C434      1.0  0.27824  0.75192  0.66042  1.0000
  H   H445      1.0  0.25657  0.68456  0.84791  1.0000
  S   S154      1.0  0.58889  0.70999  0.99960  1.0000
  C   C435      1.0  0.31487  0.58244  0.55515  1.0000
  H   H446      1.0  0.41753  0.59242  0.94908  1.0000
  S   S155      1.0  0.24279  0.62506  0.88821  1.0000
  C   C436      1.0  0.13986  0.63231  0.56270  1.0000
  C   C437      1.0  0.21521  0.55266  0.80827  1.0000
  C   C438      1.0  0.15956  0.75061  0.85254  1.0000
  C   C439      1.0  0.28837  0.62816  0.70023  1.0000
  C   C440      1.0  0.46823  0.67307  0.71119  1.0000
  Fe  Fe75      1.0  0.24375  0.53082  0.90134  1.0000
  H   H447      1.0  0.61448  0.53743  0.75437  1.0000
  S   S156      1.0  0.35490  0.57969  0.87201  1.0000
  C   C441      1.0  0.35239  0.63227  0.84281  1.0000
  C   C442      1.0  0.34475  0.54527  0.00882  1.0000
  H   H448      1.0  0.58076  0.57545  0.66582  1.0000
  H   H449      1.0  0.38003  0.62472  0.56310  1.0000
  C   C443      1.0  0.59792  0.55355  0.59265  1.0000
  C   C444      1.0  0.47289  0.56915  0.83845  1.0000
  C   C445      1.0  0.27106  0.69941  0.90463  1.0000
  C   C446      1.0  0.35749  0.53022  0.80546  1.0000
  N   N39       1.0  0.20784  0.52219  0.59874  1.0000
  Fe  Fe76      1.0  0.30444  0.56518  0.90468  1.0000
  C   C447      1.0  0.42825  0.67636  0.65571  1.0000
  C   C448      1.0  0.32018  0.67500  0.60358  1.0000
  Fe  Fe77      1.0  0.60863  0.70984  0.62061  1.0000
  N   N40       1.0  0.29726  0.65517  0.69888  1.0000
  C   C449      1.0  0.29506  0.62395  0.65310  1.0000
  S   S157      1.0  0.47530  0.53940  0.64818  1.0000
  N   N41       1.0  0.16928  0.61075  0.02916  1.0000
  H   H450      1.0  0.45600  0.70329  0.73636  1.0000
  H   H451      1.0  0.43060  0.60368  0.78896  1.0000
  C   C450      1.0  0.41017  0.65887  0.84536  1.0000
  C   C451      1.0  0.55346  0.59113  0.76908  1.0000
  C   C452      1.0  0.60150  0.54266  0.72756  1.0000
  H   H452      1.0  0.33952  0.68567  0.90838  1.0000
  N   N42       1.0  0.43278  0.69226  0.68519  1.0000
  H   H453      1.0  0.52185  0.68187  0.81308  1.0000
  Fe  Fe78      1.0  0.50260  0.75542  0.85303  1.0000
  C   C453      1.0  0.18195  0.74155  0.86533  1.0000
  H   H454      1.0  0.61835  0.55491  0.68652  1.0000
  C   C454      1.0  0.36468  0.68283  0.02985  1.0000
  H   H455      1.0  0.28730  0.60251  0.65417  1.0000
  S   S158      1.0  0.56232  0.58303  0.57338  1.0000
  H   H456      1.0  0.37849  0.53521  0.81416  1.0000
  C   C455      1.0  0.60333  0.52872  0.61078  1.0000
  C   C456      1.0  0.55979  0.59111  0.71830  1.0000
  S   S159      1.0  0.19480  0.69801  0.66101  1.0000
  H   H457      1.0  0.18677  0.75439  0.99423  1.0000
  H   H458      1.0  0.55291  0.60377  0.68857  1.0000
  S   S160      1.0  0.60725  0.67710  0.58680  1.0000
  C   C457      1.0  0.37030  0.61663  0.85308  1.0000
  H   H459      1.0  0.54558  0.65460  0.00184  1.0000
  H   H460      1.0  0.54118  0.60352  0.77959  1.0000
  H   H461      1.0  0.19553  0.65383  0.97144  1.0000
  H   H462      1.0  0.32672  0.58892  0.73909  1.0000
  H   H463      1.0  0.29384  0.56349  0.73711  1.0000
  H   H464      1.0  0.57496  0.62478  0.02320  1.0000
  C   C458      1.0  0.45698  0.58703  0.83243  1.0000
  H   H465      1.0  0.55338  0.72438  0.86608  1.0000
  H   H466      1.0  0.42508  0.54923  0.94665  1.0000
  Fe  Fe79      1.0  0.47751  0.69166  0.92583  1.0000
  N   N43       1.0  0.35975  0.70969  0.94836  1.0000
  H   H467      1.0  0.38675  0.61396  0.98079  1.0000
  C   C459      1.0  0.44350  0.59042  0.79296  1.0000
  H   H468      1.0  0.63280  0.65235  0.00125  1.0000
  H   H469      1.0  0.41331  0.61810  0.86121  1.0000
  C   C460      1.0  0.34835  0.52065  0.00700  1.0000
  S   S161      1.0  0.16340  0.68735  0.55389  1.0000
  S   S162      1.0  0.60325  0.59964  0.96060  1.0000
  C   C461      1.0  0.44684  0.57670  0.75848  1.0000
  C   C462      1.0  0.13608  0.51399  0.78249  1.0000
  H   H470      1.0  0.18132  0.61435  0.94896  1.0000
  H   H471      1.0  0.35015  0.59123  0.03116  1.0000
  S   S163      1.0  0.27764  0.57571  0.85242  1.0000
  Fe  Fe80      1.0  0.21240  0.63225  0.66424  1.0000
  H   H472      1.0  0.14990  0.67475  0.92150  1.0000
  H   H473      1.0  0.42007  0.72563  0.64698  1.0000
  C   C463      1.0  0.29039  0.65908  0.74879  1.0000
  S   S164      1.0  0.52944  0.51431  0.93848  1.0000
  S   S165      1.0  0.58079  0.69819  0.70467  1.0000
  Fe  Fe81      1.0  0.49014  0.52007  0.91592  1.0000
  H   H474      1.0  0.23494  0.74899  0.65199  1.0000
  H   H475      1.0  0.52338  0.52340  0.60715  1.0000
  Fe  Fe82      1.0  0.45511  0.53066  0.58811  1.0000
  H   H476      1.0  0.55744  0.57438  0.84636  1.0000
  H   H477      1.0  0.47530  0.64241  0.68060  1.0000
  H   H478      1.0  0.39113  0.69704  0.70800  1.0000
  Fe  Fe83      1.0  0.18558  0.67282  0.61222  1.0000
  H   H479      1.0  0.14869  0.72042  0.76469  1.0000
  S   S166      1.0  0.28865  0.53718  0.65283  1.0000
  N   N44       1.0  0.32450  0.54640  0.76387  1.0000
  H   H480      1.0  0.33295  0.69348  0.56601  1.0000
  S   S167      1.0  0.43053  0.55975  0.58809  1.0000
  C   C464      1.0  0.44344  0.65819  0.65368  1.0000
  S   S168      1.0  0.39103  0.68342  0.54241  1.0000
  H   H481      1.0  0.19103  0.74721  0.89410  1.0000
  C   C465      1.0  0.36486  0.59610  0.99056  1.0000
  S   S169      1.0  0.48840  0.56360  0.88934  1.0000
  C   C466      1.0  0.46327  0.55939  0.76402  1.0000
  C   C467      1.0  0.56452  0.64815  0.89614  1.0000
  C   C468      1.0  0.31121  0.53640  0.55559  1.0000
  H   H482      1.0  0.30812  0.65749  0.76686  1.0000
  H   H483      1.0  0.31639  0.64471  0.56754  1.0000
  Fe  Fe84      1.0  0.43970  0.71746  0.86705  1.0000
  H   H484      1.0  0.27566  0.60971  0.73780  1.0000
  Fe  Fe85      1.0  0.62386  0.72481  0.71010  1.0000
  Fe  Fe86      1.0  0.51424  0.57424  0.57747  1.0000
  C   C469      1.0  0.22405  0.52461  0.75848  1.0000
  S   S170      1.0  0.48433  0.65100  0.96169  1.0000
  H   H485      1.0  0.50930  0.62987  0.84388  1.0000
  C   C470      1.0  0.23382  0.57256  0.54445  1.0000
  C   C471      1.0  0.39222  0.67444  0.83524  1.0000
  H   H486      1.0  0.22957  0.54293  0.67571  1.0000
  C   C472      1.0  0.57568  0.56570  0.00376  1.0000
  C   C473      1.0  0.52689  0.64317  0.85330  1.0000
  N   N45       1.0  0.55581  0.68919  0.84909  1.0000
  H   H487      1.0  0.31075  0.59533  0.57632  1.0000
  S   S171      1.0  0.28419  0.73100  0.62544  1.0000
  C   C474      1.0  0.21994  0.52851  0.80586  1.0000
  C   C475      1.0  0.46355  0.65659  0.68163  1.0000
  S   S172      1.0  0.22292  0.59574  0.65618  1.0000
  Fe  Fe87      1.0  0.17758  0.65575  0.72929  1.0000
  C   C476      1.0  0.57070  0.67731  0.87926  1.0000
  C   C477      1.0  0.54561  0.52489  0.60846  1.0000
  C   C478      1.0  0.56305  0.71988  0.83170  1.0000
  Fe  Fe88      1.0  0.45241  0.73048  0.96040  1.0000
  C   C479      1.0  0.35150  0.65761  0.02395  1.0000
  C   C480      1.0  0.54489  0.56063  0.01375  1.0000
  C   C481      1.0  0.53397  0.67252  0.83633  1.0000
  H   H488      1.0  0.15932  0.52919  0.76068  1.0000
  C   C482      1.0  0.62191  0.65480  0.62315  1.0000
  S   S173      1.0  0.52809  0.73626  0.71116  1.0000
  C   C483      1.0  0.36892  0.70889  0.99116  1.0000
  H   H489      1.0  0.43953  0.64527  0.63087  1.0000
  C   C484      1.0  0.51047  0.75621  0.67712  1.0000
  C   C485      1.0  0.56265  0.57481  0.80652  1.0000
  S   S174      1.0  0.23232  0.67287  0.59077  1.0000
  Fe  Fe89      1.0  0.57433  0.73883  0.67176  1.0000
  C   C486      1.0  0.57834  0.55883  0.79237  1.0000
  C   C487      1.0  0.16844  0.60040  0.99057  1.0000
  C   C488      1.0  0.31862  0.56979  0.73028  1.0000
  C   C489      1.0  0.18837  0.64066  0.01471  1.0000
  C   C490      1.0  0.21080  0.54963  0.58930  1.0000
  H   H490      1.0  0.21152  0.59175  0.76469  1.0000
  C   C491      1.0  0.21498  0.57307  0.76287  1.0000
  H   H491      1.0  0.34962  0.67332  0.82522  1.0000
  H   H492      1.0  0.60806  0.54745  0.01969  1.0000
  H   H493      1.0  0.58521  0.54598  0.82171  1.0000
  H   H494      1.0  0.35374  0.60321  0.96167  1.0000
  C   C492      1.0  0.27734  0.69209  0.95202  1.0000
  H   H495      1.0  0.63383  0.73629  0.89446  1.0000
  C   C493      1.0  0.13999  0.65974  0.54274  1.0000
  C   C494      1.0  0.34657  0.68500  0.94253  1.0000
  H   H496      1.0  0.15008  0.56370  0.97335  1.0000
  H   H497      1.0  0.48398  0.67224  0.73278  1.0000
  C   C495      1.0  0.57555  0.57494  0.70556  1.0000
  C   C496      1.0  0.15083  0.57171  0.00414  1.0000
  H   H498      1.0  0.21063  0.69382  0.85764  1.0000
  S   S175      1.0  0.22361  0.65410  0.71782  1.0000
  H   H499      1.0  0.28888  0.68011  0.74223  1.0000
  H   H500      1.0  0.58802  0.69058  0.88934  1.0000
  H   H501      1.0  0.35026  0.73489  0.88372  1.0000
  C   C497      1.0  0.35086  0.55228  0.77520  1.0000
  H   H502      1.0  0.36706  0.57415  0.76090  1.0000
  H   H503      1.0  0.19571  0.55390  0.61732  1.0000
  H   H504      1.0  0.53015  0.75567  0.60157  1.0000
  H   H505      1.0  0.63015  0.63646  0.56615  1.0000
  H   H506      1.0  0.20899  0.64202  0.02564  1.0000
  C   C498      1.0  0.56896  0.55168  0.59224  1.0000
  S   S176      1.0  0.59903  0.74873  0.58661  1.0000
  H   H507      1.0  0.28379  0.51409  0.77145  1.0000
  H   H508      1.0  0.32209  0.54402  0.02634  1.0000
  C   C499      1.0  0.15802  0.72675  0.79270  1.0000
  C   C500      1.0  0.44109  0.59774  0.03198  1.0000
  C   C501      1.0  0.62433  0.65530  0.67157  1.0000
  C   C502      1.0  0.22621  0.51665  0.56277  1.0000
  H   H509      1.0  0.36162  0.75212  0.92525  1.0000
  H   H510      1.0  0.17577  0.65019  0.03623  1.0000
  H   H511      1.0  0.38953  0.74692  0.87926  1.0000
  C   C503      1.0  0.58424  0.54348  0.02677  1.0000
  H   H512      1.0  0.23675  0.59431  0.53844  1.0000
  H   H513      1.0  0.15279  0.59262  0.81638  1.0000
  H   H514      1.0  0.20631  0.74362  0.53805  1.0000
  C   C504      1.0  0.13823  0.57381  0.81175  1.0000
  H   H515      1.0  0.44268  0.66073  0.03548  1.0000
  C   C505      1.0  0.25074  0.71039  0.38594  1.0000
  C   C506      1.0  0.44374  0.54331  0.28098  1.0000
  H   H516      1.0  0.47193  0.70452  0.04182  1.0000
  H   H517      1.0  0.27139  0.58472  0.47358  1.0000
  H   H518      1.0  0.37760  0.61207  0.18578  1.0000
  C   C507      1.0  0.29978  0.63386  0.16390  1.0000
  C   C508      1.0  0.24440  0.54141  0.19891  1.0000
  H   H519      1.0  0.39313  0.57155  0.49133  1.0000
  S   S177      1.0  0.42951  0.73251  0.03672  1.0000
  Fe  Fe90      1.0  0.47292  0.59319  0.52187  1.0000
  S   S178      1.0  0.35530  0.57016  0.13483  1.0000
  N   N46       1.0  0.16484  0.64634  0.40687  1.0000
  H   H520      1.0  0.53918  0.53077  0.50199  1.0000
  H   H521      1.0  0.60141  0.52610  0.44759  1.0000
  H   H522      1.0  0.45186  0.70764  0.46692  1.0000
  S   S179      1.0  0.37401  0.65482  0.27187  1.0000
  H   H523      1.0  0.22678  0.69732  0.40537  1.0000
  H   H524      1.0  0.24575  0.74880  0.38623  1.0000
  H   H525      1.0  0.53264  0.63655  0.46267  1.0000
  H   H526      1.0  0.52187  0.72266  0.31378  1.0000
  H   H527      1.0  0.60844  0.59566  0.47160  1.0000
  C   C509      1.0  0.43837  0.70278  0.18087  1.0000
  C   C510      1.0  0.25585  0.64606  0.16716  1.0000
  C   C511      1.0  0.37943  0.52613  0.53172  1.0000
  Fe  Fe91      1.0  0.55048  0.56206  0.36287  1.0000
  H   H528      1.0  0.37415  0.72159  0.35917  1.0000
  C   C512      1.0  0.44002  0.71493  0.08936  1.0000
  H   H529      1.0  0.62194  0.52121  0.28433  1.0000
  C   C513      1.0  0.38406  0.74456  0.33897  1.0000
  H   H530      1.0  0.18657  0.59689  0.47736  1.0000
  C   C514      1.0  0.26369  0.54780  0.22711  1.0000
  C   C515      1.0  0.60132  0.65310  0.37712  1.0000
  H   H531      1.0  0.62189  0.65155  0.09282  1.0000
  S   S180      1.0  0.35667  0.59418  0.40431  1.0000
  H   H532      1.0  0.17463  0.68353  0.42414  1.0000
  C   C516      1.0  0.14791  0.63079  0.38542  1.0000
  H   H533      1.0  0.42661  0.56451  0.22327  1.0000
  H   H534      1.0  0.26420  0.53465  0.48913  1.0000
  H   H535      1.0  0.56372  0.64642  0.51864  1.0000
  S   S181      1.0  0.15814  0.71177  0.13426  1.0000
  H   H536      1.0  0.25141  0.72984  0.27397  1.0000
  H   H537      1.0  0.41254  0.60254  0.52806  1.0000
  H   H538      1.0  0.28897  0.66048  0.20214  1.0000
  H   H539      1.0  0.48432  0.68535  0.43249  1.0000
  H   H540      1.0  0.21945  0.57286  0.33580  1.0000
  C   C517      1.0  0.13600  0.69852  0.28308  1.0000
  C   C518      1.0  0.60950  0.58951  0.39934  1.0000
  C   C519      1.0  0.24929  0.53905  0.51716  1.0000
  H   H541      1.0  0.45327  0.62292  0.24125  1.0000
  S   S182      1.0  0.27392  0.51706  0.37502  1.0000
  H   H542      1.0  0.28399  0.73148  0.46165  1.0000
  C   C520      1.0  0.47350  0.69359  0.12082  1.0000
  C   C521      1.0  0.25863  0.56316  0.25783  1.0000
  C   C522      1.0  0.43620  0.70105  0.33617  1.0000
  C   C523      1.0  0.43390  0.63829  0.04375  1.0000
  Fe  Fe92      1.0  0.56480  0.54930  0.26631  1.0000
  H   H543      1.0  0.21493  0.59872  0.28266  1.0000
  Fe  Fe93      1.0  0.19367  0.65566  0.13850  1.0000
  H   H544      1.0  0.18632  0.69015  0.35400  1.0000
  C   C524      1.0  0.45024  0.64253  0.47654  1.0000
  C   C525      1.0  0.62772  0.58993  0.35287  1.0000
  H   H545      1.0  0.29492  0.75006  0.05407  1.0000
  C   C526      1.0  0.56197  0.51577  0.05774  1.0000
  C   C527      1.0  0.55702  0.64293  0.44698  1.0000
  S   S183      1.0  0.47310  0.62694  0.45087  1.0000
  H   H546      1.0  0.43222  0.63696  0.16873  1.0000
  S   S184      1.0  0.47521  0.68023  0.22211  1.0000
  H   H547      1.0  0.15475  0.56790  0.44040  1.0000
  S   S185      1.0  0.19832  0.52174  0.44767  1.0000
  C   C528      1.0  0.46143  0.69298  0.17119  1.0000
  C   C529      1.0  0.41005  0.59082  0.29772  1.0000
  Fe  Fe94      1.0  0.34048  0.52259  0.16610  1.0000
  H   H548      1.0  0.52832  0.62265  0.39052  1.0000
  H   H549      1.0  0.15309  0.70330  0.24629  1.0000
  H   H550      1.0  0.40354  0.55700  0.07984  1.0000
  C   C530      1.0  0.62324  0.51372  0.11627  1.0000
  H   H551      1.0  0.61188  0.65423  0.33796  1.0000
  C   C531      1.0  0.40082  0.51913  0.25974  1.0000
  H   H552      1.0  0.31829  0.70651  0.33705  1.0000
  H   H553      1.0  0.33010  0.50988  0.37482  1.0000
  C   C532      1.0  0.42110  0.62544  0.51435  1.0000
  Fe  Fe95      1.0  0.33133  0.64545  0.25267  1.0000
  H   H554      1.0  0.15437  0.60112  0.11233  1.0000
  C   C533      1.0  0.55185  0.63835  0.36500  1.0000
  C   C534      1.0  0.33573  0.57856  0.47248  1.0000
  S   S186      1.0  0.55933  0.52551  0.35133  1.0000
  H   H555      1.0  0.37481  0.75080  0.41183  1.0000
  C   C535      1.0  0.29274  0.75651  0.35113  1.0000
  H   H556      1.0  0.55118  0.65826  0.33867  1.0000
  H   H557      1.0  0.43974  0.63630  0.37142  1.0000
  S   S187      1.0  0.60651  0.66319  0.23424  1.0000
  C   C536      1.0  0.53438  0.50902  0.50594  1.0000
  S   S188      1.0  0.33173  0.63460  0.18202  1.0000
  H   H558      1.0  0.56497  0.58041  0.15214  1.0000
  C   C537      1.0  0.60579  0.65674  0.45870  1.0000
  C   C538      1.0  0.40451  0.62055  0.07982  1.0000
  S   S189      1.0  0.55724  0.70821  0.22390  1.0000
  H   H559      1.0  0.49109  0.68560  0.11321  1.0000
  C   C539      1.0  0.14009  0.71780  0.30742  1.0000
  C   C540      1.0  0.42394  0.54435  0.25211  1.0000
  H   H560      1.0  0.33727  0.61805  0.47822  1.0000
  C   C541      1.0  0.24669  0.62936  0.13954  1.0000
  N   N47       1.0  0.57046  0.64466  0.39738  1.0000
  C   C542      1.0  0.21545  0.56498  0.23408  1.0000
  C   C543      1.0  0.34385  0.72461  0.10005  1.0000
  C   C544      1.0  0.49853  0.60742  0.12694  1.0000
  C   C545      1.0  0.28238  0.64821  0.17959  1.0000
  Fe  Fe96      1.0  0.20567  0.71627  0.13090  1.0000
  H   H561      1.0  0.22828  0.71834  0.49138  1.0000
  H   H562      1.0  0.33021  0.57647  0.23832  1.0000
  C   C546      1.0  0.36573  0.75036  0.09296  1.0000
  C   C547      1.0  0.42928  0.61244  0.24811  1.0000
  C   C548      1.0  0.24310  0.73532  0.49841  1.0000
  C   C549      1.0  0.15780  0.59000  0.43070  1.0000
  H   H563      1.0  0.38563  0.52018  0.23733  1.0000
  H   H564      1.0  0.36456  0.55974  0.34419  1.0000
  H   H565      1.0  0.39029  0.62990  0.09644  1.0000
  H   H566      1.0  0.45050  0.53131  0.14282  1.0000
  C   C550      1.0  0.30222  0.71532  0.34812  1.0000
  C   C551      1.0  0.27457  0.74298  0.48142  1.0000
  C   C552      1.0  0.53136  0.51028  0.06452  1.0000
  C   C553      1.0  0.39635  0.55274  0.48933  1.0000
  S   S190      1.0  0.39927  0.73742  0.24574  1.0000
  H   H567      1.0  0.50725  0.57336  0.17673  1.0000
  S   S191      1.0  0.51589  0.52639  0.27828  1.0000
  H   H568      1.0  0.40966  0.72119  0.14826  1.0000
  C   C554      1.0  0.37945  0.57659  0.30554  1.0000
  Fe  Fe97      1.0  0.52480  0.69225  0.18491  1.0000
  C   C555      1.0  0.46261  0.70435  0.08017  1.0000
  Fe  Fe98      1.0  0.41806  0.73049  0.50538  1.0000
  S   S192      1.0  0.46122  0.74864  0.51956  1.0000
  C   C556      1.0  0.58834  0.51806  0.49069  1.0000
  C   C557      1.0  0.33607  0.56916  0.27481  1.0000
  H   H569      1.0  0.47724  0.60256  0.15665  1.0000
  Fe  Fe99      1.0  0.16859  0.51895  0.39714  1.0000
  H   H570      1.0  0.27359  0.56797  0.27984  1.0000
  H   H571      1.0  0.34691  0.70479  0.11592  1.0000
  H   H572      1.0  0.33069  0.53618  0.47938  1.0000
  C   C558      1.0  0.26152  0.73966  0.37469  1.0000
  C   C559      1.0  0.60198  0.53231  0.17646  1.0000
  C   C560      1.0  0.23013  0.58775  0.29310  1.0000
  H   H573      1.0  0.58911  0.53667  0.50066  1.0000
  H   H574      1.0  0.19654  0.57167  0.23643  1.0000
  N   N48       1.0  0.36825  0.58418  0.26534  1.0000
  S   S193      1.0  0.54966  0.66803  0.15553  1.0000
  C   C561      1.0  0.42727  0.71330  0.14036  1.0000
  H   H575      1.0  0.38622  0.75084  0.10221  1.0000
  S   S194      1.0  0.24464  0.75556  0.11907  1.0000
  C   C562      1.0  0.27108  0.69818  0.37229  1.0000
  C   C563      1.0  0.44305  0.68475  0.47994  1.0000
  H   H576      1.0  0.33702  0.75751  0.31901  1.0000
  C   C564      1.0  0.17896  0.63456  0.43892  1.0000
  S   S195      1.0  0.61150  0.72691  0.11214  1.0000
  C   C565      1.0  0.22009  0.55002  0.20242  1.0000
  Fe  Fe100     1.0  0.58156  0.74587  0.14585  1.0000
  C   C566      1.0  0.14404  0.60241  0.39712  1.0000
  S   S196      1.0  0.50017  0.54072  0.38440  1.0000
  H   H577      1.0  0.33043  0.54593  0.28765  1.0000
  C   C567      1.0  0.26465  0.61581  0.12240  1.0000
  H   H578      1.0  0.56135  0.62844  0.33990  1.0000
  C   C568      1.0  0.46135  0.67216  0.45991  1.0000
  H   H579      1.0  0.28251  0.54102  0.22508  1.0000
  C   C569      1.0  0.29109  0.61791  0.13488  1.0000
  H   H580      1.0  0.24834  0.52988  0.17427  1.0000
  H   H581      1.0  0.25203  0.60443  0.28687  1.0000
  H   H582      1.0  0.61928  0.66068  0.48346  1.0000
  H   H583      1.0  0.33098  0.74318  0.21130  1.0000
  C   C570      1.0  0.42047  0.53039  0.44154  1.0000
  C   C571      1.0  0.61944  0.65914  0.40750  1.0000
  S   S197      1.0  0.33934  0.66503  0.37243  1.0000
  S   S198      1.0  0.32522  0.68379  0.25952  1.0000
  C   C572      1.0  0.32969  0.59523  0.49964  1.0000
  H   H584      1.0  0.24194  0.65645  0.18060  1.0000
  S   S199      1.0  0.47350  0.57476  0.26991  1.0000
  C   C573      1.0  0.31298  0.74431  0.33793  1.0000
  H   H585      1.0  0.40771  0.64437  0.39352  1.0000
  C   C574      1.0  0.39731  0.75777  0.28345  1.0000
  Fe  Fe101     1.0  0.34384  0.62785  0.35660  1.0000
  C   C575      1.0  0.62464  0.53633  0.13157  1.0000
  H   H586      1.0  0.26487  0.73141  0.20759  1.0000
  H   H587      1.0  0.20531  0.54582  0.17984  1.0000
  C   C576      1.0  0.41369  0.66768  0.51698  1.0000
  H   H588      1.0  0.44471  0.74540  0.31807  1.0000
  S   S200      1.0  0.60541  0.56033  0.19692  1.0000
  N   N49       1.0  0.54286  0.59744  0.10139  1.0000
  S   S201      1.0  0.49580  0.56322  0.51729  1.0000
  S   S202      1.0  0.57046  0.58103  0.41359  1.0000
  C   C577      1.0  0.41739  0.55503  0.44430  1.0000
  S   S203      1.0  0.43851  0.75778  0.41788  1.0000
  C   C578      1.0  0.51564  0.59104  0.13815  1.0000
  C   C579      1.0  0.31838  0.72462  0.08552  1.0000
  H   H589      1.0  0.46663  0.51176  0.21943  1.0000
  H   H590      1.0  0.34898  0.63747  0.05298  1.0000
  H   H591      1.0  0.41217  0.69513  0.34197  1.0000
  H   H592      1.0  0.41897  0.58475  0.32947  1.0000
  H   H593      1.0  0.19271  0.64694  0.45546  1.0000
  C   C580      1.0  0.32626  0.54916  0.50039  1.0000
  C   C581      1.0  0.48545  0.73738  0.31514  1.0000
  C   C582      1.0  0.57444  0.64876  0.47851  1.0000
  H   H594      1.0  0.32190  0.57271  0.30658  1.0000
  H   H595      1.0  0.16035  0.73733  0.28953  1.0000
  H   H596      1.0  0.30398  0.60608  0.12418  1.0000
  Fe  Fe102     1.0  0.29890  0.65558  0.34576  1.0000
  Fe  Fe103     1.0  0.50837  0.56167  0.29763  1.0000
  C   C583      1.0  0.25322  0.56717  0.50828  1.0000
  H   H597      1.0  0.49657  0.64350  0.06834  1.0000
  C   C584      1.0  0.44911  0.50956  0.15623  1.0000
  C   C585      1.0  0.38677  0.60577  0.21697  1.0000
  H   H598      1.0  0.14681  0.67818  0.39346  1.0000
  C   C586      1.0  0.42833  0.65098  0.35889  1.0000
  C   C587      1.0  0.62247  0.59592  0.43575  1.0000
  S   S204      1.0  0.54742  0.73128  0.10891  1.0000
  N   N50       1.0  0.23504  0.57190  0.26030  1.0000
  C   C588      1.0  0.39333  0.59117  0.09303  1.0000
  H   H599      1.0  0.61775  0.58520  0.32438  1.0000
  C   C589      1.0  0.17555  0.60619  0.45153  1.0000
  C   C590      1.0  0.55355  0.61979  0.05265  1.0000
  H   H600      1.0  0.43135  0.57580  0.41199  1.0000
  C   C591      1.0  0.47885  0.68851  0.33335  1.0000
  C   C592      1.0  0.23073  0.74952  0.52488  1.0000
  C   C593      1.0  0.15323  0.59304  0.08169  1.0000
  C   C594      1.0  0.41762  0.62006  0.20736  1.0000
  C   C595      1.0  0.27150  0.73234  0.24252  1.0000
  Fe  Fe104     1.0  0.58453  0.68768  0.18756  1.0000
  H   H601      1.0  0.58276  0.58820  0.08338  1.0000
  Fe  Fe105     1.0  0.36584  0.69145  0.28524  1.0000
  S   S205      1.0  0.30114  0.61604  0.33688  1.0000
  H   H602      1.0  0.42145  0.64823  0.32518  1.0000
  H   H603      1.0  0.48855  0.67258  0.33720  1.0000
  S   S206      1.0  0.55796  0.58675  0.27748  1.0000
  N   N51       1.0  0.44831  0.68085  0.34270  1.0000
  S   S207      1.0  0.21133  0.62261  0.13131  1.0000
  C   C596      1.0  0.45454  0.72957  0.32243  1.0000
  H   H604      1.0  0.30163  0.70494  0.08898  1.0000
  C   C597      1.0  0.49783  0.71684  0.31981  1.0000
  H   H605      1.0  0.43669  0.53238  0.40620  1.0000
  S   S208      1.0  0.25780  0.66202  0.38304  1.0000
  H   H606      1.0  0.25753  0.60285  0.10110  1.0000
  H   H607      1.0  0.42976  0.70305  0.21937  1.0000
  H   H608      1.0  0.54765  0.55770  0.12204  1.0000
  S   S209      1.0  0.14535  0.64635  0.14405  1.0000
  S   S210      1.0  0.19130  0.67428  0.19959  1.0000
  S   S211      1.0  0.21175  0.69793  0.06975  1.0000
  H   H609      1.0  0.27754  0.71391  0.25941  1.0000
  C   C598      1.0  0.50940  0.63040  0.07761  1.0000
  Fe  Fe106     1.0  0.16311  0.68988  0.07842  1.0000
  C   C599      1.0  0.16858  0.67608  0.39372  1.0000
  C   C600      1.0  0.56044  0.58018  0.11525  1.0000
  S   S212      1.0  0.15142  0.55008  0.35260  1.0000
  Fe  Fe107     1.0  0.57510  0.70871  0.08200  1.0000
  C   C601      1.0  0.41203  0.57960  0.07033  1.0000
  C   C602      1.0  0.44035  0.51691  0.31736  1.0000
  H   H610      1.0  0.18773  0.75385  0.18194  1.0000
  H   H611      1.0  0.37249  0.68218  0.06333  1.0000
  H   H612      1.0  0.13694  0.64015  0.35961  1.0000
  Fe  Fe108     1.0  0.14408  0.66841  0.19946  1.0000
  C   C603      1.0  0.31471  0.75033  0.06564  1.0000
  H   H613      1.0  0.45549  0.51572  0.33978  1.0000
  C   C604      1.0  0.40270  0.63800  0.53430  1.0000
  H   H614      1.0  0.49924  0.52855  0.04706  1.0000
  C   C605      1.0  0.52276  0.53283  0.04342  1.0000
  C   C606      1.0  0.53701  0.63661  0.04012  1.0000
  S   S213      1.0  0.54193  0.79195  0.78515  1.0000
  C   C607      1.0  0.53480  0.85713  0.98904  1.0000
  H   H615      1.0  0.22449  0.86035  0.86601  1.0000
  H   H616      1.0  0.50698  0.83569  0.70911  1.0000
  H   H617      1.0  0.45060  0.81605  0.84031  1.0000
  N   N52       1.0  0.48886  0.84697  0.77195  1.0000
  H   H618      1.0  0.45687  0.88628  0.73868  1.0000
  H   H619      1.0  0.36946  0.85948  0.85568  1.0000
  Fe  Fe109     1.0  0.29476  0.81835  0.90685  1.0000
  H   H620      1.0  0.62444  0.81288  0.95154  1.0000
  S   S214      1.0  0.32974  0.80042  0.91936  1.0000
  H   H621      1.0  0.46615  0.84848  0.57869  1.0000
  C   C608      1.0  0.18050  0.86237  0.78999  1.0000
  H   H622      1.0  0.55326  0.86408  0.95265  1.0000
  H   H623      1.0  0.45625  0.84581  0.89238  1.0000
  Fe  Fe110     1.0  0.34826  0.81692  0.83041  1.0000
  H   H624      1.0  0.35197  0.99290  0.00403  1.0000
  C   C609      1.0  0.48948  0.76365  0.70598  1.0000
  Fe  Fe111     1.0  0.33064  0.99513  0.90901  1.0000
  C   C610      1.0  0.40982  0.82682  0.64961  1.0000
  C   C611      1.0  0.31098  0.97021  0.63522  1.0000
  C   C612      1.0  0.27970  0.90871  0.84174  1.0000
  C   C613      1.0  0.37653  0.97388  0.73636  1.0000
  C   C614      1.0  0.18310  0.84119  0.77264  1.0000
  Fe  Fe112     1.0  0.61145  0.87806  0.95649  1.0000
  C   C615      1.0  0.62643  0.79629  0.93872  1.0000
  H   H625      1.0  0.61022  0.84283  0.79095  1.0000
  N   N53       1.0  0.31147  0.90625  0.01632  1.0000
  C   C616      1.0  0.21651  0.83417  0.82222  1.0000
  C   C617      1.0  0.19296  0.89200  0.83925  1.0000
  C   C618      1.0  0.44587  0.93259  0.58963  1.0000
  Fe  Fe113     1.0  0.43659  0.91975  0.93241  1.0000
  S   S215      1.0  0.31566  0.83784  0.81780  1.0000
  H   H626      1.0  0.29967  0.98626  0.69480  1.0000
  C   C619      1.0  0.51433  0.76186  0.62356  1.0000
  H   H627      1.0  0.22462  0.77458  0.70857  1.0000
  C   C620      1.0  0.15937  0.97428  0.93562  1.0000
  H   H628      1.0  0.34971  0.89508  0.65093  1.0000
  H   H629      1.0  0.54021  0.99987  0.60127  1.0000
  H   H630      1.0  0.15790  0.93812  0.53997  1.0000
  C   C621      1.0  0.18436  0.78326  0.62689  1.0000
  C   C622      1.0  0.43510  0.97856  0.73056  1.0000
  H   H631      1.0  0.15956  0.93825  0.99666  1.0000
  C   C623      1.0  0.15950  0.00175  0.92208  1.0000
  S   S216      1.0  0.27764  0.83947  0.95732  1.0000
  S   S217      1.0  0.39798  0.83941  0.78316  1.0000
  C   C624      1.0  0.36390  0.99168  0.57849  1.0000
  Fe  Fe114     1.0  0.27379  0.97691  0.88047  1.0000
  H   H632      1.0  0.59530  0.89519  0.69750  1.0000
  H   H633      1.0  0.45775  0.97970  0.72907  1.0000
  C   C625      1.0  0.25034  0.87725  0.95161  1.0000
  H   H634      1.0  0.62338  0.81444  0.60106  1.0000
  C   C626      1.0  0.31972  0.92974  0.02795  1.0000
  H   H635      1.0  0.39571  0.80546  0.65293  1.0000
  H   H636      1.0  0.27696  0.86593  0.03528  1.0000
  H   H637      1.0  0.46738  0.83018  0.72472  1.0000
  H   H638      1.0  0.53052  0.81207  0.86914  1.0000
  S   S218      1.0  0.59591  0.91424  0.78193  1.0000
  H   H639      1.0  0.31104  0.78619  0.72937  1.0000
  Fe  Fe115     1.0  0.22465  0.93011  0.53801  1.0000
  S   S219      1.0  0.42191  0.93816  0.98967  1.0000
  C   C627      1.0  0.43495  0.91630  0.82170  1.0000
  H   H640      1.0  0.62763  0.78100  0.78881  1.0000
  H   H641      1.0  0.61012  0.93766  0.03422  1.0000
  H   H642      1.0  0.26431  0.83438  0.58879  1.0000
  H   H643      1.0  0.13941  0.82137  0.67525  1.0000
  H   H644      1.0  0.33187  0.88231  0.98485  1.0000
  H   H645      1.0  0.45950  0.00635  0.78135  1.0000
  C   C628      1.0  0.31759  0.98801  0.66198  1.0000
  N   N54       1.0  0.31889  0.87877  0.61426  1.0000
  H   H646      1.0  0.34248  0.94626  0.00740  1.0000
  C   C629      1.0  0.58076  0.87723  0.73488  1.0000
  H   H647      1.0  0.51798  0.93738  0.53814  1.0000
  H   H648      1.0  0.31435  0.86618  0.69655  1.0000
  C   C630      1.0  0.19507  0.99570  0.74858  1.0000
  Fe  Fe116     1.0  0.21355  0.92250  0.65266  1.0000
  H   H649      1.0  0.43329  0.95884  0.67427  1.0000
  S   S220      1.0  0.62333  0.92310  0.90159  1.0000
  S   S221      1.0  0.37580  0.99237  0.90201  1.0000
  H   H650      1.0  0.52258  0.91262  0.01759  1.0000
  S   S222      1.0  0.18916  0.93288  0.71578  1.0000
  C   C631      1.0  0.33895  0.89545  0.56340  1.0000
  H   H651      1.0  0.52619  0.88227  0.70764  1.0000
  H   H652      1.0  0.35938  0.91344  0.55595  1.0000
  H   H653      1.0  0.39016  0.89997  0.87956  1.0000
  C   C632      1.0  0.40190  0.85779  0.57381  1.0000
  S   S223      1.0  0.45084  0.94218  0.84393  1.0000
  C   C633      1.0  0.51454  0.89146  0.77658  1.0000
  C   C634      1.0  0.26664  0.78106  0.72443  1.0000
  H   H654      1.0  0.20461  0.81155  0.77348  1.0000
  H   H655      1.0  0.21691  0.96801  0.77892  1.0000
  C   C635      1.0  0.15780  0.97111  0.02417  1.0000
  C   C636      1.0  0.27039  0.86890  0.92299  1.0000
  H   H656      1.0  0.45449  0.78011  0.70570  1.0000
  C   C637      1.0  0.15076  0.92235  0.72147  1.0000
  H   H657      1.0  0.59227  0.76243  0.01034  1.0000
  C   C638      1.0  0.56867  0.84981  0.73596  1.0000
  C   C639      1.0  0.42134  0.96658  0.69981  1.0000
  C   C640      1.0  0.15900  0.95921  0.98637  1.0000
  S   S224      1.0  0.42157  0.95000  0.57634  1.0000
  Fe  Fe117     1.0  0.55289  0.90205  0.56496  1.0000
  H   H658      1.0  0.42883  0.82476  0.66389  1.0000
  C   C641      1.0  0.61670  0.79658  0.78368  1.0000
  H   H659      1.0  0.38187  0.99277  0.54668  1.0000
  S   S225      1.0  0.31992  0.77650  0.82774  1.0000
  C   C642      1.0  0.28551  0.85146  0.58116  1.0000
  C   C643      1.0  0.20712  0.78265  0.02833  1.0000
  Fe  Fe118     1.0  0.22005  0.87479  0.62174  1.0000
  H   H660      1.0  0.15935  0.93338  0.63778  1.0000
  H   H661      1.0  0.30106  0.87884  0.84572  1.0000
  Fe  Fe119     1.0  0.62049  0.90551  0.83954  1.0000
  C   C644      1.0  0.57573  0.88105  0.78243  1.0000
  C   C645      1.0  0.44195  0.88960  0.76822  1.0000
  C   C646      1.0  0.20157  0.82730  0.78829  1.0000
  S   S226      1.0  0.18811  0.89710  0.61482  1.0000
  C   C647      1.0  0.45289  0.89127  0.64216  1.0000
  C   C648      1.0  0.29233  0.85709  0.62347  1.0000
  C   C649      1.0  0.46901  0.83699  0.82265  1.0000
  H   H662      1.0  0.47972  0.80634  0.76810  1.0000
  H   H663      1.0  0.24037  0.78197  0.55565  1.0000
  C   C650      1.0  0.19785  0.81286  0.61064  1.0000
  C   C651      1.0  0.54570  0.92822  0.00425  1.0000
  Fe  Fe120     1.0  0.29874  0.76135  0.91617  1.0000
  S   S227      1.0  0.15651  0.95756  0.89136  1.0000
  H   H664      1.0  0.55860  0.80503  0.98953  1.0000
  Fe  Fe121     1.0  0.28557  0.79610  0.82216  1.0000
  H   H665      1.0  0.49751  0.89446  0.85113  1.0000
  H   H666      1.0  0.21514  0.85389  0.54500  1.0000
  S   S228      1.0  0.24795  0.95666  0.57586  1.0000
  S   S229      1.0  0.20456  0.82705  0.65702  1.0000
  C   C652      1.0  0.60820  0.76762  0.97221  1.0000
  C   C653      1.0  0.33412  0.97215  0.59333  1.0000
  H   H667      1.0  0.14061  0.76558  0.00384  1.0000
  C   C654      1.0  0.40459  0.89716  0.84833  1.0000
  C   C655      1.0  0.39106  0.98597  0.76617  1.0000
  N   N55       1.0  0.19502  0.86887  0.82350  1.0000
  H   H668      1.0  0.15037  0.97021  0.57931  1.0000
  H   H669      1.0  0.15152  0.76318  0.87120  1.0000
  H   H670      1.0  0.49964  0.77870  0.55818  1.0000
  C   C656      1.0  0.21588  0.98878  0.77110  1.0000
  C   C657      1.0  0.24543  0.90155  0.92570  1.0000
  C   C658      1.0  0.48288  0.90214  0.60782  1.0000
  H   H671      1.0  0.39630  0.83348  0.67665  1.0000
  C   C659      1.0  0.30014  0.76332  0.68085  1.0000
  C   C660      1.0  0.50483  0.84901  0.98928  1.0000
  C   C661      1.0  0.13674  0.00384  0.54476  1.0000
  H   H672      1.0  0.23882  0.86520  0.99398  1.0000
  C   C662      1.0  0.14211  0.92423  0.67666  1.0000
  H   H673      1.0  0.23038  0.90826  0.94824  1.0000
  C   C663      1.0  0.28495  0.88458  0.86793  1.0000
  H   H674      1.0  0.27597  0.84426  0.66362  1.0000
  C   C664      1.0  0.54419  0.83024  0.83166  1.0000
  H   H675      1.0  0.38126  0.95568  0.67808  1.0000
  H   H676      1.0  0.23110  0.82363  0.83439  1.0000
  N   N56       1.0  0.42124  0.84771  0.59418  1.0000
  C   C665      1.0  0.49473  0.92872  0.56472  1.0000
  C   C666      1.0  0.45335  0.91316  0.78037  1.0000
  C   C667      1.0  0.49508  0.88110  0.82897  1.0000
  C   C668      1.0  0.47420  0.77993  0.62956  1.0000
  H   H677      1.0  0.61294  0.99451  0.55869  1.0000
  H   H678      1.0  0.17911  0.76911  0.66770  1.0000
  H   H679      1.0  0.28794  0.95501  0.64721  1.0000
  H   H680      1.0  0.32603  0.90996  0.93691  1.0000
  S   S230      1.0  0.25735  0.79609  0.76938  1.0000
  H   H681      1.0  0.53261  0.76967  0.00266  1.0000
  H   H682      1.0  0.16663  0.87349  0.77667  1.0000
  H   H683      1.0  0.60244  0.79266  0.82401  1.0000
  N   N57       1.0  0.42012  0.98848  0.76249  1.0000
  H   H684      1.0  0.31533  0.90147  0.66312  1.0000
  S   S231      1.0  0.26207  0.77776  0.91060  1.0000
  S   S232      1.0  0.44768  0.79020  0.60406  1.0000
  C   C669      1.0  0.59501  0.94274  0.01362  1.0000
  S   S233      1.0  0.58552  0.93537  0.58019  1.0000
  H   H685      1.0  0.57975  0.80194  0.57514  1.0000
  S   S234      1.0  0.47205  0.91066  0.96461  1.0000
  C   C670      1.0  0.53420  0.79059  0.00367  1.0000
  H   H686      1.0  0.17130  0.83605  0.74639  1.0000
  H   H687      1.0  0.53259  0.91269  0.75812  1.0000
  C   C671      1.0  0.47613  0.94390  0.55556  1.0000
  H   H688      1.0  0.29153  0.92124  0.79938  1.0000
  S   S235      1.0  0.24308  0.89797  0.66500  1.0000
  S   S236      1.0  0.15029  0.88036  0.97474  1.0000
  S   S237      1.0  0.50415  0.88111  0.61830  1.0000
  Fe  Fe122     1.0  0.26925  0.98361  0.98493  1.0000
  Fe  Fe123     1.0  0.27508  0.92990  0.58384  1.0000
  H   H689      1.0  0.35353  0.97213  0.73927  1.0000
  H   H690      1.0  0.47768  0.00413  0.97457  1.0000
  S   S238      1.0  0.25619  0.94916  0.83970  1.0000
  H   H691      1.0  0.19747  0.88965  0.87703  1.0000
  H   H692      1.0  0.14731  0.83407  0.60488  1.0000
  C   C672      1.0  0.15673  0.99808  0.01154  1.0000
  H   H693      1.0  0.37899  0.99341  0.79219  1.0000
  C   C673      1.0  0.21287  0.85509  0.83969  1.0000
  S   S239      1.0  0.61537  0.76460  0.68426  1.0000
  H   H694      1.0  0.34898  0.81690  0.00173  1.0000
  H   H695      1.0  0.47686  0.92799  0.75979  1.0000
  C   C674      1.0  0.39290  0.87418  0.83484  1.0000
  C   C675      1.0  0.29426  0.77777  0.71312  1.0000
  C   C676      1.0  0.45072  0.85635  0.56263  1.0000
  C   C677      1.0  0.63210  0.84757  0.76330  1.0000
  C   C678      1.0  0.18434  0.76940  0.01152  1.0000
  C   C679      1.0  0.55123  0.82621  0.78442  1.0000
  S   S240      1.0  0.25245  0.00085  0.91862  1.0000
  S   S241      1.0  0.28686  0.95704  0.94961  1.0000
  C   C680      1.0  0.41179  0.86992  0.79574  1.0000
  C   C681      1.0  0.32483  0.88560  0.65852  1.0000
  H   H696      1.0  0.32120  0.76017  0.67326  1.0000
  H   H697      1.0  0.52405  0.80059  0.97537  1.0000
  H   H698      1.0  0.54094  0.95830  0.93854  1.0000
  C   C682      1.0  0.24564  0.77133  0.70113  1.0000
  C   C683      1.0  0.17671  0.77195  0.59066  1.0000
  H   H699      1.0  0.25042  0.00263  0.80340  1.0000
  C   C684      1.0  0.43461  0.00088  0.79472  1.0000
  C   C685      1.0  0.63543  0.85491  0.60686  1.0000
  Fe  Fe124     1.0  0.43488  0.86810  0.01904  1.0000
  S   S242      1.0  0.60553  0.86009  0.89584  1.0000
  H   H700      1.0  0.41127  0.89778  0.66052  1.0000
  C   C686      1.0  0.39197  0.96451  0.70241  1.0000
  H   H701      1.0  0.60169  0.79275  0.76011  1.0000
  C   C687      1.0  0.48544  0.82888  0.74209  1.0000
  H   H702      1.0  0.20515  0.97749  0.54186  1.0000
  H   H703      1.0  0.44377  0.87080  0.67547  1.0000
  H   H704      1.0  0.20992  0.91289  0.80768  1.0000
  S   S243      1.0  0.40049  0.87554  0.98248  1.0000
  H   H705      1.0  0.22433  0.93539  0.01406  1.0000
  S   S244      1.0  0.25432  0.90528  0.54091  1.0000
  H   H706      1.0  0.59401  0.99350  0.90853  1.0000
  H   H707      1.0  0.35642  0.91908  0.96290  1.0000
  S   S245      1.0  0.58246  0.87739  0.56062  1.0000
  H   H708      1.0  0.55182  0.86080  0.86724  1.0000
  C   C688      1.0  0.58603  0.97368  0.94330  1.0000
  H   H709      1.0  0.57375  0.84676  0.69933  1.0000
  C   C689      1.0  0.55656  0.85772  0.83062  1.0000
  H   H710      1.0  0.61233  0.85063  0.62873  1.0000
  C   C690      1.0  0.51095  0.87408  0.74835  1.0000
  H   H711      1.0  0.50028  0.84949  0.95313  1.0000
  N   N58       1.0  0.60496  0.96810  0.97058  1.0000
  C   C691      1.0  0.33255  0.90434  0.97304  1.0000
  C   C692      1.0  0.47198  0.85377  0.85214  1.0000
  C   C693      1.0  0.55611  0.95385  0.95977  1.0000
  S   S246      1.0  0.32546  0.95101  0.55819  1.0000
  C   C694      1.0  0.15837  0.77549  0.01733  1.0000
  H   H712      1.0  0.37854  0.85083  0.59880  1.0000
  C   C695      1.0  0.43449  0.90654  0.63360  1.0000
  C   C696      1.0  0.26028  0.91742  0.87083  1.0000
  H   H713      1.0  0.18007  0.98043  0.73828  1.0000
  H   H714      1.0  0.42463  0.98532  0.83702  1.0000
  H   H715      1.0  0.16991  0.89224  0.84547  1.0000
  C   C697      1.0  0.47149  0.77556  0.68227  1.0000
  Fe  Fe125     1.0  0.61657  0.91299  0.56830  1.0000
  C   C698      1.0  0.18334  0.79029  0.53794  1.0000
  C   C699      1.0  0.20487  0.83106  0.55780  1.0000
  Fe  Fe126     1.0  0.45475  0.92570  0.02593  1.0000
  C   C700      1.0  0.49644  0.77408  0.59958  1.0000
  C   C701      1.0  0.14225  0.97940  0.54815  1.0000
  H   H716      1.0  0.22760  0.77833  0.02368  1.0000
  C   C702      1.0  0.56512  0.92281  0.03183  1.0000
  H   H717      1.0  0.48652  0.75957  0.74728  1.0000
  S   S247      1.0  0.45730  0.75809  0.87787  1.0000
  C   C703      1.0  0.54063  0.85545  0.03615  1.0000
  C   C704      1.0  0.37946  0.91273  0.25169  1.0000
  Fe  Fe127     1.0  0.21013  0.80431  0.41409  1.0000
  H   H718      1.0  0.42121  0.79793  0.21481  1.0000
  H   H719      1.0  0.55835  0.84794  0.26573  1.0000
  S   S248      1.0  0.61728  0.00497  0.44781  1.0000
  C   C705      1.0  0.62861  0.86808  0.11009  1.0000
  S   S249      1.0  0.46603  0.96229  0.43419  1.0000
  C   C706      1.0  0.26971  0.91126  0.09355  1.0000
  C   C707      1.0  0.35074  0.78803  0.19218  1.0000
  Fe  Fe128     1.0  0.43480  0.97283  0.48796  1.0000
  H   H720      1.0  0.27082  0.93937  0.41990  1.0000
  C   C708      1.0  0.53622  0.94461  0.14239  1.0000
  C   C709      1.0  0.36487  0.86242  0.26694  1.0000
  C   C710      1.0  0.21624  0.99503  0.50302  1.0000
  C   C711      1.0  0.13842  0.85058  0.30845  1.0000
  H   H721      1.0  0.46823  0.83381  0.11886  1.0000
  S   S250      1.0  0.45594  0.00495  0.33394  1.0000
  C   C712      1.0  0.50320  0.92604  0.34078  1.0000
  C   C713      1.0  0.36132  0.77567  0.07299  1.0000
  Fe  Fe129     1.0  0.27070  0.80896  0.34891  1.0000
  S   S251      1.0  0.54289  0.90022  0.21155  1.0000
  C   C714      1.0  0.51671  0.84766  0.08271  1.0000
  H   H722      1.0  0.48523  0.96440  0.52230  1.0000
  H   H723      1.0  0.48327  0.92946  0.33468  1.0000
  S   S252      1.0  0.21767  0.83885  0.22165  1.0000
  H   H724      1.0  0.14420  0.89318  0.19150  1.0000
  H   H725      1.0  0.55718  0.90316  0.06695  1.0000
  H   H726      1.0  0.53202  0.97992  0.08653  1.0000
  C   C715      1.0  0.38202  0.91438  0.37171  1.0000
  C   C716      1.0  0.15056  0.80916  0.32148  1.0000
  C   C717      1.0  0.56321  0.85154  0.43288  1.0000
  H   H727      1.0  0.53161  0.78366  0.17211  1.0000
  H   H728      1.0  0.34798  0.90474  0.47968  1.0000
  Fe  Fe130     1.0  0.62046  0.00031  0.13075  1.0000
  C   C718      1.0  0.48679  0.84026  0.08265  1.0000
  C   C719      1.0  0.26165  0.88726  0.08188  1.0000
  H   H729      1.0  0.26786  0.78131  0.23960  1.0000
  H   H730      1.0  0.29605  0.79514  0.52387  1.0000
  S   S253      1.0  0.25686  0.81989  0.41798  1.0000
  C   C720      1.0  0.32625  0.77303  0.46929  1.0000
  H   H731      1.0  0.46163  0.87377  0.35952  1.0000
  H   H732      1.0  0.37398  0.78950  0.18039  1.0000
  S   S254      1.0  0.58563  0.97498  0.21306  1.0000
  C   C721      1.0  0.36810  0.92495  0.11889  1.0000
  C   C722      1.0  0.59929  0.85335  0.14818  1.0000
  N   N59       1.0  0.51834  0.78633  0.05802  1.0000
  C   C723      1.0  0.22453  0.98972  0.45739  1.0000
  S   S255      1.0  0.33914  0.96063  0.21585  1.0000
  C   C724      1.0  0.61279  0.78118  0.42699  1.0000
  C   C725      1.0  0.20351  0.80171  0.05108  1.0000
  N   N60       1.0  0.59338  0.80473  0.49606  1.0000
  S   S256      1.0  0.40279  0.81131  0.38129  1.0000
  S   S257      1.0  0.21567  0.84724  0.35831  1.0000
  C   C726      1.0  0.59394  0.86347  0.40159  1.0000
  C   C727      1.0  0.14162  0.94076  0.51884  1.0000
  S   S258      1.0  0.39969  0.96694  0.44863  1.0000
  C   C728      1.0  0.55264  0.81922  0.38867  1.0000
  H   H733      1.0  0.22883  0.00099  0.12580  1.0000
  C   C729      1.0  0.30990  0.96847  0.42519  1.0000
  S   S259      1.0  0.62206  0.93199  0.22827  1.0000
  C   C730      1.0  0.31330  0.91705  0.18932  1.0000
  H   H734      1.0  0.55856  0.79479  0.07839  1.0000
  C   C731      1.0  0.28996  0.95992  0.39919  1.0000
  H   H735      1.0  0.61183  0.87078  0.24829  1.0000
  C   C732      1.0  0.62385  0.81248  0.47214  1.0000
  C   C733      1.0  0.43199  0.94528  0.22013  1.0000
  S   S260      1.0  0.56933  0.92640  0.47632  1.0000
  C   C734      1.0  0.61737  0.79612  0.18315  1.0000
  C   C735      1.0  0.15798  0.89055  0.11585  1.0000
  C   C736      1.0  0.61559  0.78779  0.27410  1.0000
  S   S261      1.0  0.22332  0.78979  0.34933  1.0000
  H   H736      1.0  0.46469  0.92677  0.20601  1.0000
  C   C737      1.0  0.31994  0.00211  0.32059  1.0000
  S   S262      1.0  0.62030  0.89019  0.41047  1.0000
  Fe  Fe131     1.0  0.26360  0.86171  0.35777  1.0000
  H   H737      1.0  0.27289  0.84014  0.15779  1.0000
  C   C738      1.0  0.55022  0.94224  0.35747  1.0000
  H   H738      1.0  0.15104  0.94070  0.47916  1.0000
  S   S263      1.0  0.46405  0.81211  0.44912  1.0000
  S   S264      1.0  0.21904  0.95488  0.46274  1.0000
  C   C739      1.0  0.61629  0.87009  0.20940  1.0000
  C   C740      1.0  0.32628  0.76182  0.20990  1.0000
  H   H739      1.0  0.33818  0.95161  0.34541  1.0000
  H   H740      1.0  0.30638  0.95494  0.46554  1.0000
  H   H741      1.0  0.38821  0.96137  0.13551  1.0000
  H   H742      1.0  0.45018  0.90120  0.44727  1.0000
  C   C741      1.0  0.48759  0.77888  0.07512  1.0000
  H   H743      1.0  0.52130  0.96550  0.35060  1.0000
  Fe  Fe132     1.0  0.37882  0.00234  0.18133  1.0000
  H   H744      1.0  0.62043  0.77229  0.39947  1.0000
  S   S265      1.0  0.52705  0.79142  0.38054  1.0000
  H   H745      1.0  0.47292  0.89623  0.11118  1.0000
  H   H746      1.0  0.48526  0.88295  0.48536  1.0000
  Fe  Fe133     1.0  0.43257  0.95906  0.39187  1.0000
  H   H747      1.0  0.59148  0.82302  0.32903  1.0000
  C   C742      1.0  0.22459  0.81543  0.19346  1.0000
  N   N61       1.0  0.33573  0.77532  0.06074  1.0000
  H   H748      1.0  0.37381  0.84540  0.27683  1.0000
  S   S266      1.0  0.30727  0.79261  0.33907  1.0000
  C   C743      1.0  0.50079  0.93957  0.09488  1.0000
  H   H749      1.0  0.37854  0.79563  0.06726  1.0000
  N   N62       1.0  0.17768  0.80710  0.05773  1.0000
  H   H750      1.0  0.58145  0.84020  0.13900  1.0000
  C   C744      1.0  0.51892  0.78239  0.14528  1.0000
  C   C745      1.0  0.54272  0.82901  0.42717  1.0000
  C   C746      1.0  0.34420  0.93344  0.35727  1.0000
  H   H751      1.0  0.38920  0.95865  0.35061  1.0000
  H   H752      1.0  0.55414  0.95834  0.15000  1.0000
  Fe  Fe134     1.0  0.47981  0.77925  0.43403  1.0000
  H   H753      1.0  0.56135  0.81833  0.53381  1.0000
  C   C747      1.0  0.28131  0.77858  0.51596  1.0000
  C   C748      1.0  0.52364  0.95690  0.10627  1.0000
  C   C749      1.0  0.58342  0.83121  0.35743  1.0000
  H   H754      1.0  0.18457  0.84943  0.04860  1.0000
  H   H755      1.0  0.56037  0.81604  0.25935  1.0000
  S   S267      1.0  0.17302  0.77664  0.49280  1.0000
  H   H756      1.0  0.38949  0.92775  0.09290  1.0000
  C   C750      1.0  0.18097  0.90230  0.06639  1.0000
  Fe  Fe135     1.0  0.38895  0.89312  0.04306  1.0000
  C   C751      1.0  0.20630  0.77267  0.17660  1.0000
  H   H757      1.0  0.22165  0.81223  0.06311  1.0000
  H   H758      1.0  0.57485  0.91491  0.36062  1.0000
  C   C752      1.0  0.44076  0.92294  0.21911  1.0000
  H   H759      1.0  0.23909  0.87043  0.10329  1.0000
  S   S268      1.0  0.59981  0.79118  0.13690  1.0000
  H   H760      1.0  0.29209  0.91367  0.21725  1.0000
  C   C753      1.0  0.47185  0.77352  0.12751  1.0000
  N   N63       1.0  0.13814  0.82284  0.39426  1.0000
  H   H761      1.0  0.44899  0.96654  0.20814  1.0000
  C   C754      1.0  0.53286  0.89807  0.34615  1.0000
  C   C755      1.0  0.52582  0.91493  0.16797  1.0000
  H   H762      1.0  0.19194  0.93471  0.16935  1.0000
  N   N64       1.0  0.38819  0.89083  0.25148  1.0000
  C   C756      1.0  0.20050  0.79137  0.19917  1.0000
  C   C757      1.0  0.21124  0.93786  0.09006  1.0000
  C   C758      1.0  0.39779  0.79103  0.34321  1.0000
  C   C759      1.0  0.32344  0.90630  0.36811  1.0000
  H   H763      1.0  0.56695  0.95792  0.36446  1.0000
  H   H764      1.0  0.34576  0.85684  0.30331  1.0000
  C   C760      1.0  0.14636  0.80482  0.37465  1.0000
  C   C761      1.0  0.44211  0.88619  0.48844  1.0000
  N   N65       1.0  0.29691  0.75961  0.22650  1.0000
  H   H765      1.0  0.29307  0.88103  0.17193  1.0000
  H   H766      1.0  0.54830  0.77924  0.50509  1.0000
  H   H767      1.0  0.48406  0.89111  0.28915  1.0000
  H   H768      1.0  0.35550  0.90906  0.26403  1.0000
  H   H769      1.0  0.54517  0.83760  0.21788  1.0000
  H   H770      1.0  0.17872  0.89325  0.03794  1.0000
  C   C762      1.0  0.33222  0.88315  0.37998  1.0000
  H   H771      1.0  0.17742  0.78696  0.22165  1.0000
  C   C763      1.0  0.31498  0.80975  0.20718  1.0000
  C   C764      1.0  0.33257  0.89074  0.52007  1.0000
  C   C765      1.0  0.34495  0.81218  0.19038  1.0000
  H   H772      1.0  0.42157  0.82729  0.26775  1.0000
  H   H773      1.0  0.48986  0.86219  0.33233  1.0000
  H   H774      1.0  0.60012  0.83793  0.52399  1.0000
  H   H775      1.0  0.15738  0.79494  0.30602  1.0000
  S   S269      1.0  0.28672  0.90179  0.36699  1.0000
  C   C766      1.0  0.25424  0.82135  0.16332  1.0000
  H   H776      1.0  0.31022  0.82835  0.20637  1.0000
  H   H777      1.0  0.15769  0.82495  0.45348  1.0000
  Fe  Fe136     1.0  0.60197  0.90469  0.47290  1.0000
  C   C767      1.0  0.34131  0.90216  0.12915  1.0000
  S   S270      1.0  0.28110  0.85196  0.28835  1.0000
  N   N66       1.0  0.50744  0.90215  0.33943  1.0000
  C   C768      1.0  0.29110  0.78310  0.22569  1.0000
  C   C769      1.0  0.18888  0.92560  0.14066  1.0000
  H   H778      1.0  0.62795  0.86170  0.34103  1.0000
  H   H779      1.0  0.35090  0.00066  0.41803  1.0000
  H   H780      1.0  0.63319  0.86647  0.07187  1.0000
  C   C770      1.0  0.48751  0.77479  0.16301  1.0000
  C   C771      1.0  0.36739  0.94403  0.14319  1.0000
  C   C772      1.0  0.41050  0.78764  0.25773  1.0000
  C   C773      1.0  0.38437  0.76117  0.36879  1.0000
  S   S271      1.0  0.41828  0.91980  0.37542  1.0000
  C   C774      1.0  0.40116  0.94016  0.23655  1.0000
  C   C775      1.0  0.60164  0.78143  0.23817  1.0000
  S   S272      1.0  0.42068  0.88222  0.08353  1.0000
  H   H781      1.0  0.14993  0.78705  0.40011  1.0000
  C   C776      1.0  0.48463  0.88126  0.32980  1.0000
  C   C777      1.0  0.25992  0.80317  0.13968  1.0000
  H   H782      1.0  0.51957  0.81863  0.45402  1.0000
  C   C778      1.0  0.29894  0.93266  0.06658  1.0000
  S   S273      1.0  0.34175  0.87863  0.09789  1.0000
  H   H783      1.0  0.31650  0.86219  0.38770  1.0000
  Fe  Fe137     1.0  0.23258  0.83388  0.29317  1.0000
  S   S274      1.0  0.24439  0.96771  0.07239  1.0000
  C   C779      1.0  0.27521  0.96657  0.31975  1.0000
  C   C780      1.0  0.53408  0.78844  0.09215  1.0000
  N   N67       1.0  0.29329  0.76498  0.48875  1.0000
  H   H784      1.0  0.52119  0.84679  0.11905  1.0000
  C   C781      1.0  0.33517  0.99425  0.39815  1.0000
  H   H785      1.0  0.47520  0.77005  0.20391  1.0000
  H   H786      1.0  0.33355  0.81272  0.06948  1.0000
  Fe  Fe138     1.0  0.58541  0.93684  0.19562  1.0000
  C   C782      1.0  0.41048  0.80428  0.28756  1.0000
  C   C783      1.0  0.16208  0.90198  0.15343  1.0000
  C   C784      1.0  0.20728  0.92608  0.05317  1.0000
  H   H787      1.0  0.30010  0.86519  0.49568  1.0000
  C   C785      1.0  0.49018  0.90977  0.12044  1.0000
  H   H788      1.0  0.55541  0.85906  0.46263  1.0000
  Fe  Fe139     1.0  0.44315  0.78015  0.53411  1.0000
  N   N68       1.0  0.13729  0.96727  0.51304  1.0000
  H   H789      1.0  0.44758  0.76832  0.14044  1.0000
  C   C786      1.0  0.14660  0.83220  0.28817  1.0000
  C   C787      1.0  0.33147  0.80215  0.04143  1.0000
  C   C788      1.0  0.57243  0.78523  0.48663  1.0000
  H   H790      1.0  0.20360  0.83404  0.48041  1.0000
  H   H791      1.0  0.27285  0.98457  0.29069  1.0000
  C   C789      1.0  0.52450  0.94643  0.34984  1.0000
  S   S275      1.0  0.61752  0.96253  0.11146  1.0000
  C   C790      1.0  0.34004  0.93970  0.17927  1.0000
  S   S276      1.0  0.39818  0.75983  0.52591  1.0000
  H   H792      1.0  0.25346  0.91303  0.12407  1.0000
  C   C791      1.0  0.23614  0.77847  0.14721  1.0000
  H   H793      1.0  0.36358  0.83273  0.17632  1.0000
  H   H794      1.0  0.60328  0.77685  0.31653  1.0000
  H   H795      1.0  0.53664  0.87947  0.34397  1.0000
  H   H796      1.0  0.57857  0.76573  0.25295  1.0000
  C   C792      1.0  0.58317  0.81626  0.53417  1.0000
  Fe  Fe140     1.0  0.62495  0.97211  0.23915  1.0000
  H   H797      1.0  0.28294  0.80815  0.11619  1.0000
  Fe  Fe141     1.0  0.60393  0.95832  0.49144  1.0000
  C   C793      1.0  0.55457  0.91800  0.35544  1.0000
  Fe  Fe142     1.0  0.42128  0.78858  0.43889  1.0000
  H   H798      1.0  0.36842  0.86933  0.39069  1.0000
  C   C794      1.0  0.50252  0.89742  0.15744  1.0000
  H   H799      1.0  0.26576  0.98612  0.15167  1.0000
  C   C795      1.0  0.58179  0.77331  0.45172  1.0000
  H   H800      1.0  0.39393  0.95725  0.23779  1.0000
  H   H801      1.0  0.30545  0.95118  0.07607  1.0000
  H   H802      1.0  0.15728  0.95912  0.06352  1.0000
  H   H803      1.0  0.35567  0.86210  0.23431  1.0000
  C   C796      1.0  0.37328  0.93745  0.35960  1.0000
  C   C797      1.0  0.31393  0.89838  0.16412  1.0000
  C   C798      1.0  0.36160  0.88720  0.38165  1.0000
  H   H804      1.0  0.33357  0.77157  0.43024  1.0000
  C   C799      1.0  0.60407  0.85316  0.36416  1.0000
  C   C800      1.0  0.56281  0.83815  0.23694  1.0000
  N   N69       1.0  0.59341  0.85467  0.19691  1.0000
  H   H805      1.0  0.28495  0.95521  0.29833  1.0000
  H   H806      1.0  0.25204  0.95144  0.34830  1.0000
  N   N70       1.0  0.29508  0.97676  0.34759  1.0000
  H   H807      1.0  0.49457  0.87441  0.17672  1.0000
  H   H808      1.0  0.42544  0.87847  0.23382  1.0000
  S   S277      1.0  0.48674  0.95595  0.04749  1.0000
  C   C801      1.0  0.41842  0.89568  0.23489  1.0000
  H   H809      1.0  0.47506  0.77753  0.04803  1.0000
  H   H810      1.0  0.53440  0.00128  0.51504  1.0000
  C   C802      1.0  0.46168  0.87586  0.50954  1.0000
  C   C803      1.0  0.15548  0.79466  0.04034  1.0000
  H   H811      1.0  0.15043  0.83607  0.24649  1.0000
  C   C804      1.0  0.17460  0.82760  0.08068  1.0000
  H   H812      1.0  0.18619  0.82736  0.11056  1.0000
  C   C805      1.0  0.19806  0.81978  0.52127  1.0000
  H   H813      1.0  0.33902  0.79555  0.46215  1.0000
  H   H814      1.0  0.15030  0.82246  0.10166  1.0000
  C   C806      1.0  0.28540  0.00663  0.12500  1.0000
  H   H815      1.0  0.30860  0.79861  0.03766  1.0000
  S   S278      1.0  0.63099  0.97466  0.31403  1.0000
  H   H816      1.0  0.29931  0.00260  0.09359  1.0000
  C   C807      1.0  0.30565  0.86860  0.52909  1.0000
  S   S279      1.0  0.57745  0.86173  0.03795  1.0000
  S   S280      1.0  0.44334  0.82839  0.03743  1.0000
  C   C808      1.0  0.24985  0.77105  0.53448  1.0000
  C   C809      1.0  0.63401  0.80088  0.43718  1.0000
  C   C810      1.0  0.48080  0.83990  0.03644  1.0000
  H   H817      1.0  0.56508  0.75853  0.44310  1.0000
  C   C811      1.0  0.28304  0.88494  0.04330  1.0000
  H   H818      1.0  0.39687  0.88535  0.50422  1.0000
  C   C812      1.0  0.41205  0.87721  0.52063  1.0000
  H   H819      1.0  0.49974  0.75925  0.30617  1.0000
  H   H820      1.0  0.13558  0.86869  0.28277  1.0000
  H   H821      1.0  0.33270  0.75877  0.49866  1.0000
  C   C813      1.0  0.01079  0.24705  0.71370  1.0000
  C   C814      1.0  0.12169  0.12751  0.55383  1.0000
  Fe  Fe143     1.0  0.93051  0.08652  0.61522  1.0000
  Fe  Fe144     1.0  0.13212  0.24559  0.66524  1.0000
  S   S281      1.0  0.94749  0.13012  0.54957  1.0000
  H   H822      1.0  0.91987  0.02788  0.67222  1.0000
  H   H823      1.0  0.08051  0.23981  0.63813  1.0000
  H   H824      1.0  0.94431  0.19767  0.54095  1.0000
  C   C815      1.0  0.13184  0.14400  0.74340  1.0000
  C   C816      1.0  0.70376  0.05230  0.97023  1.0000
  H   H825      1.0  0.68349  0.02015  0.63181  1.0000
  N   N71       1.0  0.04564  0.11313  0.00853  1.0000
  C   C817      1.0  0.90324  0.22554  0.93437  1.0000
  H   H826      1.0  0.74434  0.21712  0.90941  1.0000
  H   H827      1.0  0.87475  0.17670  0.56649  1.0000
  H   H828      1.0  0.01305  0.09081  0.81156  1.0000
  H   H829      1.0  0.69755  0.23987  0.87294  1.0000
  Fe  Fe145     1.0  0.81821  0.04432  0.86855  1.0000
  C   C818      1.0  0.07436  0.08205  0.87873  1.0000
  C   C819      1.0  0.71984  0.20325  0.01301  1.0000
  C   C820      1.0  0.64260  0.23794  0.97316  1.0000
  H   H830      1.0  0.02926  0.10683  0.94676  1.0000
  S   S282      1.0  0.10613  0.11017  0.92791  1.0000
  C   C821      1.0  0.11355  0.11593  0.60937  1.0000
  Fe  Fe146     1.0  0.13473  0.10112  0.97783  1.0000
  H   H831      1.0  0.06777  0.04316  0.57031  1.0000
  H   H832      1.0  0.89247  0.05959  0.79373  1.0000
  H   H833      1.0  0.00563  0.01614  0.69031  1.0000
  H   H834      1.0  0.84460  0.08987  0.67691  1.0000
  C   C822      1.0  0.96193  0.05630  0.77355  1.0000
  C   C823      1.0  0.74122  0.19569  0.93410  1.0000
  C   C824      1.0  0.92840  0.19649  0.57721  1.0000
  H   H835      1.0  0.91948  0.24186  0.65414  1.0000
  C   C825      1.0  0.80642  0.24023  0.92417  1.0000
  C   C826      1.0  0.73506  0.14148  0.99636  1.0000
  S   S283      1.0  0.82292  0.10982  0.90166  1.0000
  C   C827      1.0  0.86025  0.16352  0.72072  1.0000
  C   C828      1.0  0.87888  0.21212  0.03016  1.0000
  S   S284      1.0  0.10998  0.20132  0.66991  1.0000
  C   C829      1.0  0.93157  0.08881  0.79962  1.0000
  S   S285      1.0  0.96546  0.07373  0.57526  1.0000
  C   C830      1.0  0.88737  0.17060  0.73177  1.0000
  C   C831      1.0  0.96035  0.07155  0.98274  1.0000
  H   H836      1.0  0.83232  0.18343  0.89460  1.0000
  H   H837      1.0  0.13077  0.11977  0.62742  1.0000
  C   C832      1.0  0.78817  0.01758  0.73622  1.0000
  C   C833      1.0  0.09422  0.03225  0.61965  1.0000
  C   C834      1.0  0.88767  0.11916  0.67008  1.0000
  H   H838      1.0  0.89126  0.10325  0.70002  1.0000
  C   C835      1.0  0.03875  0.12404  0.95990  1.0000
  H   H839      1.0  0.05289  0.03684  0.70026  1.0000
  H   H840      1.0  0.69839  0.11406  0.90086  1.0000
  N   N72       1.0  0.88572  0.22964  0.97396  1.0000
  S   S286      1.0  0.02217  0.07578  0.65903  1.0000
  C   C836      1.0  0.82523  0.19933  0.90305  1.0000
  H   H841      1.0  0.08049  0.24450  0.95342  1.0000
  C   C837      1.0  0.95464  0.24579  0.02337  1.0000
  N   N73       1.0  0.72931  0.18540  0.98844  1.0000
  C   C838      1.0  0.69225  0.09338  0.93215  1.0000
  C   C839      1.0  0.74534  0.04681  0.81585  1.0000
  Fe  Fe147     1.0  0.97891  0.14521  0.59118  1.0000
  C   C840      1.0  0.68705  0.04049  0.55049  1.0000
  C   C841      1.0  0.85479  0.18469  0.68464  1.0000
  C   C842      1.0  0.06048  0.09531  0.61853  1.0000
  H   H842      1.0  0.02185  0.13357  0.96705  1.0000
  C   C843      1.0  0.91607  0.06506  0.79116  1.0000
  C   C844      1.0  0.09483  0.08266  0.90642  1.0000
  C   C845      1.0  0.98501  0.24734  0.64990  1.0000
  H   H843      1.0  0.95864  0.11271  0.94808  1.0000
  C   C846      1.0  0.95822  0.05035  0.02928  1.0000
  S   S287      1.0  0.96655  0.06696  0.92314  1.0000
  N   N74       1.0  0.77215  0.03484  0.74983  1.0000
  C   C847      1.0  0.90865  0.19877  0.70753  1.0000
  H   H844      1.0  0.92024  0.10207  0.80907  1.0000
  C   C848      1.0  0.03345  0.16684  0.64056  1.0000
  H   H845      1.0  0.65114  0.25536  0.03051  1.0000
  C   C849      1.0  0.71195  0.07919  0.93006  1.0000
  C   C850      1.0  0.72581  0.15853  0.01958  1.0000
  H   H846      1.0  0.91964  0.03047  0.77051  1.0000
  S   S288      1.0  0.95858  0.22090  0.99707  1.0000
  H   H847      1.0  0.83372  0.17933  0.67648  1.0000
  H   H848      1.0  0.85353  0.01036  0.90849  1.0000
  C   C851      1.0  0.87873  0.16048  0.59468  1.0000
  Fe  Fe148     1.0  0.85411  0.10773  0.83346  1.0000
  H   H849      1.0  0.10448  0.02175  0.91082  1.0000
  C   C852      1.0  0.76009  0.03017  0.80201  1.0000
  H   H850      1.0  0.73277  0.12040  0.02109  1.0000
  Fe  Fe149     1.0  0.96801  0.02411  0.93794  1.0000
  C   C853      1.0  0.75074  0.17924  0.90960  1.0000
  H   H851      1.0  0.79601  0.21435  0.00665  1.0000
  H   H852      1.0  0.97369  0.04372  0.76227  1.0000
  C   C854      1.0  0.77074  0.05649  0.71017  1.0000
  C   C855      1.0  0.65680  0.05456  0.01571  1.0000
  H   H853      1.0  0.69921  0.20532  0.00520  1.0000
  H   H854      1.0  0.73307  0.08246  0.78614  1.0000
  C   C856      1.0  0.65590  0.23367  0.92872  1.0000
  H   H855      1.0  0.97392  0.11409  0.80213  1.0000
  H   H856      1.0  0.91252  0.20937  0.94407  1.0000
  H   H857      1.0  0.88940  0.19620  0.03493  1.0000
  H   H858      1.0  0.07675  0.09110  0.68465  1.0000
  H   H859      1.0  0.91834  0.21246  0.56511  1.0000
  H   H860      1.0  0.06694  0.15293  0.66549  1.0000
  C   C857      1.0  0.66480  0.08116  0.97496  1.0000
  C   C858      1.0  0.07684  0.19681  0.65345  1.0000
  Fe  Fe150     1.0  0.82401  0.06860  0.95145  1.0000
  S   S289      1.0  0.95837  0.10298  0.66069  1.0000
  S   S290      1.0  0.88096  0.05693  0.64551  1.0000
  C   C859      1.0  0.04197  0.21614  0.62277  1.0000
  Fe  Fe151     1.0  0.78506  0.08242  0.88486  1.0000
  S   S291      1.0  0.86862  0.24027  0.62012  1.0000
  H   H861      1.0  0.75568  0.13933  0.92243  1.0000
  H   H862      1.0  0.83387  0.22418  0.82106  1.0000
  H   H863      1.0  0.73576  0.04287  0.85741  1.0000
  C   C860      1.0  0.95276  0.10043  0.03146  1.0000
  H   H864      1.0  0.69103  0.06126  0.55160  1.0000
  H   H865      1.0  0.75341  0.06964  0.00172  1.0000
  C   C861      1.0  0.06767  0.21952  0.63832  1.0000
  C   C862      1.0  0.96210  0.09571  0.79516  1.0000
  C   C863      1.0  0.87618  0.21296  0.66067  1.0000
  C   C864      1.0  0.88199  0.03177  0.98996  1.0000
  C   C865      1.0  0.04506  0.02175  0.74260  1.0000
  H   H866      1.0  0.12099  0.06092  0.93995  1.0000
  H   H867      1.0  0.78635  0.01547  0.69894  1.0000
  Fe  Fe152     1.0  0.99460  0.09346  0.61539  1.0000
  S   S292      1.0  0.81653  0.08345  0.81257  1.0000
  H   H868      1.0  0.95990  0.03080  0.02883  1.0000
  S   S293      1.0  0.81854  0.01072  0.83765  1.0000
  C   C866      1.0  0.66122  0.25242  0.99557  1.0000
  C   C867      1.0  0.81811  0.24369  0.87134  1.0000
  H   H869      1.0  0.76195  0.01354  0.83330  1.0000
  C   C868      1.0  0.07517  0.03766  0.87509  1.0000
  Fe  Fe153     1.0  0.77665  0.05716  0.54629  1.0000
  H   H870      1.0  0.89135  0.05523  0.97880  1.0000
  H   H871      1.0  0.11894  0.14705  0.71681  1.0000
  S   S294      1.0  0.99824  0.16476  0.03632  1.0000
  C   C869      1.0  0.85668  0.13252  0.61945  1.0000
  H   H872      1.0  0.86003  0.02599  0.98281  1.0000
  C   C870      1.0  0.90935  0.24209  0.88077  1.0000
  H   H873      1.0  0.01803  0.07224  0.76924  1.0000
  C   C871      1.0  0.90943  0.14727  0.64387  1.0000
  H   H874      1.0  0.78050  0.06028  0.66875  1.0000
  H   H875      1.0  0.94150  0.20258  0.60217  1.0000
  C   C872      1.0  0.74779  0.15204  0.94101  1.0000
  C   C873      1.0  0.67620  0.04001  0.01311  1.0000
  C   C874      1.0  0.09641  0.03876  0.90112  1.0000
  S   S295      1.0  0.85821  0.06875  0.88432  1.0000
  H   H876      1.0  0.01721  0.23563  0.74558  1.0000
  H   H877      1.0  0.92970  0.15292  0.65442  1.0000
  H   H878      1.0  0.04630  0.24755  0.94458  1.0000
  H   H879      1.0  0.02272  0.10873  0.73996  1.0000
  H   H880      1.0  0.04734  0.05823  0.84446  1.0000
  H   H881      1.0  0.76117  0.18789  0.86659  1.0000
  H   H882      1.0  0.64161  0.22234  0.91152  1.0000
  C   C875      1.0  0.89911  0.01247  0.67425  1.0000
  H   H883      1.0  0.06572  0.09869  0.87016  1.0000
  C   C876      1.0  0.68248  0.01709  0.59582  1.0000
  S   S296      1.0  0.75176  0.01993  0.62559  1.0000
  C   C877      1.0  0.86128  0.11174  0.65740  1.0000
  S   S297      1.0  0.98181  0.01483  0.86664  1.0000
  H   H884      1.0  0.97170  0.23620  0.63125  1.0000
  H   H885      1.0  0.81261  0.02763  0.73108  1.0000
  H   H886      1.0  0.02010  0.06946  0.02649  1.0000
  C   C878      1.0  0.00930  0.08824  0.77548  1.0000
  S   S298      1.0  0.81307  0.16670  0.00704  1.0000
  H   H887      1.0  0.63792  0.01111  0.93597  1.0000
  H   H888      1.0  0.75551  0.09108  0.69097  1.0000
  C   C879      1.0  0.10580  0.06099  0.91758  1.0000
  S   S299      1.0  0.78358  0.04103  0.93991  1.0000
  C   C880      1.0  0.06861  0.10698  0.56300  1.0000
  H   H889      1.0  0.11086  0.05391  0.60407  1.0000
  H   H890      1.0  0.03959  0.03279  0.76839  1.0000
  H   H891      1.0  0.64986  0.09242  0.97658  1.0000
  H   H892      1.0  0.84367  0.14179  0.73933  1.0000
  S   S300      1.0  0.74644  0.09577  0.87645  1.0000
  C   C881      1.0  0.91475  0.01986  0.54123  1.0000
  C   C882      1.0  0.82675  0.22279  0.86111  1.0000
  S   S301      1.0  0.89616  0.14448  0.77312  1.0000
  C   C883      1.0  0.06958  0.02628  0.60114  1.0000
  C   C884      1.0  0.93130  0.04862  0.77820  1.0000
  H   H893      1.0  0.05986  0.14037  0.92672  1.0000
  C   C885      1.0  0.06418  0.05931  0.86378  1.0000
  C   C886      1.0  0.74381  0.06897  0.77576  1.0000
  C   C887      1.0  0.68758  0.24387  0.90655  1.0000
  C   C888      1.0  0.87411  0.25006  0.96160  1.0000
  C   C889      1.0  0.95748  0.09650  0.98387  1.0000
  H   H894      1.0  0.03587  0.23417  0.60866  1.0000
  H   H895      1.0  0.94972  0.11942  0.03249  1.0000
  N   N75       1.0  0.90477  0.16750  0.60664  1.0000
  N   N76       1.0  0.97691  0.07957  0.78212  1.0000
  S   S302      1.0  0.99333  0.18625  0.60221  1.0000
  C   C890      1.0  0.87592  0.02093  0.66399  1.0000
  C   C891      1.0  0.99259  0.23226  0.69156  1.0000
  C   C892      1.0  0.08296  0.09979  0.64175  1.0000
  C   C893      1.0  0.02455  0.18971  0.62454  1.0000
  H   H896      1.0  0.83630  0.12720  0.60904  1.0000
  C   C894      1.0  0.90309  0.21995  0.67213  1.0000
  H   H897      1.0  0.73832  0.22493  0.99619  1.0000
  H   H898      1.0  0.98482  0.20919  0.70582  1.0000
  H   H899      1.0  0.92903  0.20418  0.71745  1.0000
  H   H900      1.0  0.89849  0.02731  0.96345  1.0000
  C   C895      1.0  0.81430  0.19622  0.95568  1.0000
  C   C896      1.0  0.80452  0.21652  0.96630  1.0000
  H   H901      1.0  0.92307  0.23874  0.84932  1.0000
  C   C897      1.0  0.75657  0.07390  0.72249  1.0000
  H   H902      1.0  0.06441  0.01608  0.74898  1.0000
  S   S303      1.0  0.83462  0.06493  0.02617  1.0000
  C   C898      1.0  0.05975  0.17048  0.65438  1.0000
  H   H903      1.0  0.71849  0.04086  0.96815  1.0000
  H   H904      1.0  0.02031  0.14634  0.64196  1.0000
  H   H905      1.0  0.78958  0.10986  0.01111  1.0000
  H   H906      1.0  0.81852  0.21271  0.57074  1.0000
  C   C899      1.0  0.06317  0.13197  0.02407  1.0000
  H   H907      1.0  0.93703  0.02179  0.54356  1.0000
  S   S304      1.0  0.01625  0.13646  0.54739  1.0000
  H   H908      1.0  0.85961  0.25274  0.99298  1.0000
  S   S305      1.0  0.12956  0.01572  0.67678  1.0000
  C   C900      1.0  0.09729  0.01006  0.65774  1.0000
  H   H909      1.0  0.79923  0.25609  0.93246  1.0000
  H   H910      1.0  0.07224  0.15479  0.00037  1.0000
  H   H911      1.0  0.81579  0.01861  0.56634  1.0000
  C   C901      1.0  0.81046  0.22630  0.54496  1.0000
  H   H912      1.0  0.05143  0.10274  0.54489  1.0000
  H   H913      1.0  0.09410  0.25364  0.02320  1.0000
  H   H914      1.0  0.13271  0.18096  0.75869  1.0000
  H   H915      1.0  0.13435  0.10572  0.73669  1.0000
  N   N77       1.0  0.85748  0.01521  0.53684  1.0000
  Fe  Fe154     1.0  0.79106  0.17540  0.18539  1.0000
  H   H916      1.0  0.69376  0.12144  0.35428  1.0000
  H   H917      1.0  0.72425  0.01671  0.34732  1.0000
  C   C902      1.0  0.83450  0.23812  0.15421  1.0000
  C   C903      1.0  0.90433  0.22385  0.45462  1.0000
  H   H918      1.0  0.96227  0.17775  0.33940  1.0000
  H   H919      1.0  0.10547  0.13191  0.48771  1.0000
  Fe  Fe155     1.0  0.97054  0.17480  0.16656  1.0000
  C   C904      1.0  0.72797  0.17735  0.38695  1.0000
  H   H920      1.0  0.92574  0.06518  0.51328  1.0000
  C   C905      1.0  0.87269  0.20948  0.47339  1.0000
  S   S306      1.0  0.99452  0.14581  0.16116  1.0000
  C   C906      1.0  0.03992  0.07380  0.08581  1.0000
  C   C907      1.0  0.95357  0.24081  0.07579  1.0000
  H   H921      1.0  0.09545  0.19681  0.52144  1.0000
  H   H922      1.0  0.95115  0.22021  0.10238  1.0000
  H   H923      1.0  0.12489  0.19294  0.44203  1.0000
  C   C908      1.0  0.95367  0.05436  0.07684  1.0000
  C   C909      1.0  0.06540  0.20152  0.15341  1.0000
  H   H924      1.0  0.04408  0.20154  0.14920  1.0000
  C   C910      1.0  0.66188  0.06145  0.33529  1.0000
  H   H925      1.0  0.00237  0.20870  0.35941  1.0000
  C   C911      1.0  0.07040  0.11951  0.29361  1.0000
  S   S307      1.0  0.64071  0.14042  0.42444  1.0000
  N   N78       1.0  0.85782  0.21916  0.30978  1.0000
  H   H926      1.0  0.67000  0.01923  0.04389  1.0000
  H   H927      1.0  0.83191  0.15886  0.27714  1.0000
  C   C912      1.0  0.75740  0.06644  0.03909  1.0000
  H   H928      1.0  0.06327  0.08495  0.13755  1.0000
  S   S308      1.0  0.82062  0.16204  0.50821  1.0000
  S   S309      1.0  0.68384  0.14921  0.17613  1.0000
  C   C913      1.0  0.90846  0.04422  0.52457  1.0000
  H   H929      1.0  0.93959  0.23042  0.23466  1.0000
  H   H930      1.0  0.05625  0.20755  0.22644  1.0000
  C   C914      1.0  0.67982  0.10691  0.34145  1.0000
  H   H931      1.0  0.79938  0.10223  0.09611  1.0000
  S   S310      1.0  0.96217  0.22744  0.42054  1.0000
  C   C915      1.0  0.00629  0.22639  0.21313  1.0000
  C   C916      1.0  0.08574  0.19751  0.11614  1.0000
  C   C917      1.0  0.92957  0.08679  0.37587  1.0000
  S   S311      1.0  0.74635  0.13952  0.23879  1.0000
  C   C918      1.0  0.95104  0.07945  0.07783  1.0000
  C   C919      1.0  0.12525  0.01550  0.50615  1.0000
  C   C920      1.0  0.74209  0.13039  0.38868  1.0000
  C   C921      1.0  0.82979  0.09461  0.27956  1.0000
  H   H932      1.0  0.02951  0.23347  0.40757  1.0000
  S   S312      1.0  0.74805  0.10013  0.38739  1.0000
  Fe  Fe156     1.0  0.96518  0.13146  0.11650  1.0000
  H   H933      1.0  0.10897  0.20154  0.36231  1.0000
  C   C922      1.0  0.02767  0.23784  0.27748  1.0000
  Fe  Fe157     1.0  0.02602  0.18071  0.08224  1.0000
  H   H934      1.0  0.78941  0.23620  0.15918  1.0000
  Fe  Fe158     1.0  0.97308  0.19176  0.05252  1.0000
  C   C923      1.0  0.64777  0.24692  0.48441  1.0000
  C   C924      1.0  0.85980  0.18129  0.47890  1.0000
  S   S313      1.0  0.82510  0.08579  0.52708  1.0000
  C   C925      1.0  0.92293  0.21024  0.44038  1.0000
  H   H935      1.0  0.05061  0.20877  0.52022  1.0000
  H   H936      1.0  0.85842  0.21997  0.48509  1.0000
  Fe  Fe159     1.0  0.66568  0.18167  0.42825  1.0000
  H   H937      1.0  0.75142  0.25749  0.29958  1.0000
  N   N79       1.0  0.05995  0.13528  0.31696  1.0000
  C   C926      1.0  0.72026  0.12801  0.43296  1.0000
  S   S314      1.0  0.10617  0.20792  0.26121  1.0000
  H   H938      1.0  0.88178  0.24483  0.13728  1.0000
  C   C927      1.0  0.03826  0.12291  0.24019  1.0000
  C   C928      1.0  0.96228  0.11375  0.41138  1.0000
  H   H939      1.0  0.00721  0.23146  0.17244  1.0000
  H   H940      1.0  0.06877  0.10128  0.23534  1.0000
  H   H941      1.0  0.89284  0.11742  0.44142  1.0000
  C   C929      1.0  0.83986  0.14226  0.27513  1.0000
  N   N80       1.0  0.74900  0.03545  0.12840  1.0000
  C   C930      1.0  0.87846  0.16794  0.46334  1.0000
  C   C931      1.0  0.91675  0.22750  0.25589  1.0000
  C   C932      1.0  0.87927  0.01422  0.13117  1.0000
  C   C933      1.0  0.87941  0.04143  0.52341  1.0000
  H   H942      1.0  0.08731  0.11202  0.30453  1.0000
  C   C934      1.0  0.90169  0.20768  0.30871  1.0000
  C   C935      1.0  0.87084  0.07755  0.26479  1.0000
  H   H943      1.0  0.06271  0.21149  0.36402  1.0000
  H   H944      1.0  0.06396  0.15700  0.36857  1.0000
  H   H945      1.0  0.72203  0.21018  0.12842  1.0000
  H   H946      1.0  0.00775  0.19579  0.44708  1.0000
  H   H947      1.0  0.89440  0.08712  0.23556  1.0000
  C   C936      1.0  0.06999  0.20860  0.39852  1.0000
  C   C937      1.0  0.09968  0.20506  0.20377  1.0000
  C   C938      1.0  0.87050  0.14704  0.26571  1.0000
  S   S315      1.0  0.75962  0.06990  0.25609  1.0000
  H   H948      1.0  0.83073  0.04932  0.13408  1.0000
  C   C939      1.0  0.66211  0.11556  0.31275  1.0000
  S   S316      1.0  0.93806  0.15724  0.12909  1.0000
  C   C940      1.0  0.03892  0.14504  0.30268  1.0000
  H   H949      1.0  0.71458  0.19419  0.05683  1.0000
  C   C941      1.0  0.06322  0.20705  0.48568  1.0000
  C   C942      1.0  0.95780  0.09687  0.38237  1.0000
  C   C943      1.0  0.68014  0.07985  0.35207  1.0000
  H   H950      1.0  0.77502  0.15844  0.31054  1.0000
  S   S317      1.0  0.12030  0.10395  0.15573  1.0000
  H   H951      1.0  0.66543  0.02892  0.22554  1.0000
  S   S318      1.0  0.82140  0.20593  0.20943  1.0000
  C   C944      1.0  0.69994  0.20652  0.15378  1.0000
  C   C945      1.0  0.67789  0.17866  0.18345  1.0000
  C   C946      1.0  0.75790  0.15658  0.34455  1.0000
  S   S319      1.0  0.00418  0.21081  0.09088  1.0000
  C   C947      1.0  0.81345  0.24730  0.13591  1.0000
  C   C948      1.0  0.88017  0.12528  0.26341  1.0000
  S   S320      1.0  0.64543  0.16475  0.51690  1.0000
  H   H952      1.0  0.85625  0.06325  0.25094  1.0000
  C   C949      1.0  0.64227  0.19737  0.21718  1.0000
  H   H953      1.0  0.03107  0.15813  0.32015  1.0000
  C   C950      1.0  0.64954  0.17421  0.21642  1.0000
  C   C951      1.0  0.07076  0.14074  0.35876  1.0000
  H   H954      1.0  0.72805  0.02177  0.07696  1.0000
  H   H955      1.0  0.68924  0.05476  0.46866  1.0000
  S   S321      1.0  0.95324  0.17990  0.24185  1.0000
  C   C952      1.0  0.81639  0.03171  0.08030  1.0000
  Fe  Fe160     1.0  0.83276  0.08537  0.44554  1.0000
  C   C953      1.0  0.72350  0.04380  0.27315  1.0000
  H   H956      1.0  0.92463  0.17220  0.43220  1.0000
  H   H957      1.0  0.70892  0.25136  0.12846  1.0000
  H   H958      1.0  0.92577  0.07290  0.35506  1.0000
  C   C954      1.0  0.70674  0.04721  0.23915  1.0000
  H   H959      1.0  0.87443  0.06035  0.51187  1.0000
  C   C955      1.0  0.88359  0.02954  0.07786  1.0000
  C   C956      1.0  0.70274  0.25393  0.27076  1.0000
  Fe  Fe161     1.0  0.81018  0.12155  0.49600  1.0000
  Fe  Fe162     1.0  0.76394  0.11304  0.20329  1.0000
  H   H960      1.0  0.81399  0.19339  0.37032  1.0000
  C   C957      1.0  0.11315  0.19722  0.12274  1.0000
  Fe  Fe163     1.0  0.73108  0.15175  0.16864  1.0000
  C   C958      1.0  0.87204  0.20380  0.33523  1.0000
  C   C959      1.0  0.67827  0.02598  0.25188  1.0000
  C   C960      1.0  0.71145  0.01926  0.32060  1.0000
  H   H961      1.0  0.91287  0.19521  0.32872  1.0000
  C   C961      1.0  0.87270  0.23911  0.25842  1.0000
  C   C962      1.0  0.69264  0.22987  0.15431  1.0000
  N   N81       1.0  0.05387  0.21056  0.44253  1.0000
  H   H962      1.0  0.82821  0.23116  0.35641  1.0000
  S   S322      1.0  0.80984  0.14809  0.15439  1.0000
  H   H963      1.0  0.11062  0.01149  0.44103  1.0000
  C   C963      1.0  0.09919  0.12334  0.53063  1.0000
  H   H964      1.0  0.90389  0.12890  0.25733  1.0000
  H   H965      1.0  0.86144  0.25138  0.23835  1.0000
  H   H966      1.0  0.01688  0.21991  0.47881  1.0000
  C   C964      1.0  0.02574  0.21520  0.44418  1.0000
  C   C965      1.0  0.74324  0.03951  0.08171  1.0000
  C   C966      1.0  0.81927  0.11578  0.28276  1.0000
  C   C967      1.0  0.91009  0.18251  0.44378  1.0000
  H   H967      1.0  0.09599  0.14902  0.34524  1.0000
  C   C968      1.0  0.68607  0.03685  0.50385  1.0000
  S   S323      1.0  0.65204  0.25359  0.17960  1.0000
  H   H968      1.0  0.01072  0.14656  0.25410  1.0000
  S   S324      1.0  0.74536  0.12258  0.13690  1.0000
  C   C969      1.0  0.66351  0.22521  0.18522  1.0000
  H   H969      1.0  0.81399  0.21826  0.31084  1.0000
  C   C970      1.0  0.76837  0.05776  0.13418  1.0000
  C   C971      1.0  0.02894  0.24429  0.22467  1.0000
  H   H970      1.0  0.94288  0.13562  0.45186  1.0000
  H   H971      1.0  0.88469  0.02550  0.15607  1.0000
  C   C972      1.0  0.81821  0.03020  0.12996  1.0000
  H   H972      1.0  0.86036  0.18828  0.37610  1.0000
  H   H973      1.0  0.12861  0.19332  0.09488  1.0000
  C   C973      1.0  0.75079  0.18013  0.34359  1.0000
  H   H974      1.0  0.86858  0.14621  0.46737  1.0000
  H   H975      1.0  0.75873  0.19912  0.46499  1.0000
  S   S325      1.0  0.78532  0.05401  0.46722  1.0000
  H   H976      1.0  0.03016  0.11837  0.20975  1.0000
  C   C974      1.0  0.91089  0.11171  0.42484  1.0000
  C   C975      1.0  0.76120  0.22110  0.46041  1.0000
  H   H977      1.0  0.66242  0.13689  0.30299  1.0000
  H   H978      1.0  0.12015  0.03406  0.50418  1.0000
  C   C976      1.0  0.12021  0.20116  0.16645  1.0000
  H   H979      1.0  0.77334  0.05448  0.17075  1.0000
  S   S326      1.0  0.07633  0.19226  0.06222  1.0000
  C   C977      1.0  0.86551  0.25242  0.12413  1.0000
  C   C978      1.0  0.90591  0.09372  0.39814  1.0000
  C   C979      1.0  0.82702  0.21531  0.33842  1.0000
  S   S327      1.0  0.94549  0.08448  0.13705  1.0000
  C   C980      1.0  0.10517  0.19825  0.44189  1.0000
  H   H980      1.0  0.87076  0.06466  0.30436  1.0000
  H   H981      1.0  0.71587  0.06589  0.20245  1.0000
  C   C981      1.0  0.68024  0.00993  0.50311  1.0000
  N   N82       1.0  0.86004  0.09979  0.26869  1.0000
  C   C982      1.0  0.71310  0.15148  0.43198  1.0000
  C   C983      1.0  0.78312  0.08483  0.09221  1.0000
  C   C984      1.0  0.07238  0.20523  0.19699  1.0000
  H   H982      1.0  0.88678  0.16737  0.26022  1.0000
  C   C985      1.0  0.98084  0.19624  0.30722  1.0000
  S   S328      1.0  0.11332  0.06576  0.05940  1.0000
  C   C986      1.0  0.93906  0.12167  0.43146  1.0000
  H   H983      1.0  0.06064  0.12079  0.39567  1.0000
  H   H984      1.0  0.70802  0.10781  0.46718  1.0000
  H   H985      1.0  0.81354  0.07409  0.28559  1.0000
  S   S329      1.0  0.86953  0.07757  0.39670  1.0000
  H   H986      1.0  0.95209  0.03801  0.11283  1.0000
  Fe  Fe164     1.0  0.98350  0.11782  0.51151  1.0000
  H   H987      1.0  0.69552  0.14929  0.46570  1.0000
  H   H988      1.0  0.66179  0.04028  0.34487  1.0000
  C   C987      1.0  0.02745  0.13869  0.26475  1.0000
  H   H989      1.0  0.91437  0.24519  0.45247  1.0000
  H   H990      1.0  0.97565  0.09061  0.36686  1.0000
  C   C988      1.0  0.05989  0.11325  0.25462  1.0000
  H   H991      1.0  0.63635  0.05430  0.25005  1.0000
  N   N83       1.0  0.78136  0.23257  0.48685  1.0000
  H   H992      1.0  0.69440  0.07304  0.37305  1.0000
  S   S330      1.0  0.99560  0.12241  0.42713  1.0000
  C   C989      1.0  0.09607  0.20278  0.39737  1.0000
  S   S331      1.0  0.77436  0.18994  0.11750  1.0000
  H   H993      1.0  0.03068  0.05101  0.10963  1.0000
  H   H994      1.0  0.73818  0.22058  0.47708  1.0000
  S   S332      1.0  0.76134  0.09297  0.52146  1.0000
  H   H995      1.0  0.12375  0.14519  0.20048  1.0000
  C   C990      1.0  0.00363  0.21379  0.31855  1.0000
  H   H996      1.0  0.88776  0.22593  0.05022  1.0000
  S   S333      1.0  0.71559  0.20496  0.38328  1.0000
  C   C991      1.0  0.08873  0.20051  0.48637  1.0000
  C   C992      1.0  0.98228  0.20229  0.25456  1.0000
  S   S334      1.0  0.82214  0.12363  0.41308  1.0000
  Fe  Fe165     1.0  0.78985  0.15987  0.09061  1.0000
  H   H997      1.0  0.79527  0.11163  0.29100  1.0000
  H   H998      1.0  0.71612  0.15029  0.06264  1.0000
  H   H999      1.0  0.76191  0.19995  0.30829  1.0000
  H   H1000     1.0  0.85389  0.20035  0.05033  1.0000
  Fe  Fe166     1.0  0.77431  0.09233  0.44084  1.0000
  H   H1001     1.0  0.08418  0.13708  0.08239  1.0000
  C   C993      1.0  0.06987  0.12211  0.07057  1.0000
  H   H1002     1.0  0.77042  0.23474  0.41689  1.0000
  H   H1003     1.0  0.64376  0.24065  0.45299  1.0000
  C   C994      1.0  0.64443  0.09671  0.29591  1.0000
  N   N84       1.0  0.87706  0.01559  0.04595  1.0000
  C   C995      1.0  0.90228  0.24347  0.23060  1.0000
  C   C996      1.0  0.05809  0.09284  0.10159  1.0000
  H   H1004     1.0  0.89192  0.05266  0.06233  1.0000
  C   C997      1.0  0.82734  0.01312  0.53489  1.0000
  N   N85       1.0  0.64377  0.06973  0.30866  1.0000
  C   C998      1.0  0.03395  0.08438  0.03881  1.0000
  C   C999      1.0  0.79083  0.21523  0.52041  1.0000
  H   H1005     1.0  0.69583  0.23085  0.27925  1.0000
  H   H1006     1.0  0.78356  0.19277  0.52789  1.0000
  C   C1000     1.0  0.77758  0.08914  0.04441  1.0000
  H   H1007     1.0  0.82950  0.02802  0.49529  1.0000
  C   C1001     1.0  0.82049  0.25527  0.53479  1.0000
  H   H1008     1.0  0.79885  0.00808  0.03655  1.0000
  H   H1009     1.0  0.69946  0.25658  0.30898  1.0000
  C   C1002     1.0  0.69949  0.39384  0.63270  1.0000
  C   C1003     1.0  0.90834  0.39809  0.69291  1.0000
  H   H1010     1.0  0.85853  0.41817  0.68174  1.0000
  H   H1011     1.0  0.76234  0.46475  0.81014  1.0000
  Fe  Fe167     1.0  0.82828  0.31688  0.96445  1.0000
  C   C1004     1.0  0.70365  0.50398  0.74310  1.0000
  H   H1012     1.0  0.64735  0.46998  0.66179  1.0000
  C   C1005     1.0  0.70626  0.25917  0.92761  1.0000
  H   H1013     1.0  0.13264  0.30750  0.76963  1.0000
  H   H1014     1.0  0.07650  0.33804  0.80866  1.0000
  C   C1006     1.0  0.87609  0.41734  0.65044  1.0000
  H   H1015     1.0  0.92010  0.44295  0.81863  1.0000
  S   S335      1.0  0.05406  0.45192  0.55912  1.0000
  C   C1007     1.0  0.98877  0.36927  0.74547  1.0000
  S   S336      1.0  0.69228  0.43074  0.83558  1.0000
  C   C1008     1.0  0.08606  0.48853  0.78312  1.0000
  C   C1009     1.0  0.73902  0.32854  0.77720  1.0000
  H   H1016     1.0  0.88074  0.43419  0.61104  1.0000
  C   C1010     1.0  0.93849  0.43085  0.88102  1.0000
  H   H1017     1.0  0.76195  0.43390  0.91345  1.0000
  S   S337      1.0  0.05157  0.47409  0.67923  1.0000
  H   H1018     1.0  0.89287  0.34159  0.87314  1.0000
  C   C1011     1.0  0.75699  0.39465  0.97362  1.0000
  H   H1019     1.0  0.00435  0.32920  0.62915  1.0000
  S   S338      1.0  0.65092  0.40300  0.77218  1.0000
  H   H1020     1.0  0.95848  0.31381  0.98351  1.0000
  C   C1012     1.0  0.93487  0.40162  0.70571  1.0000
  C   C1013     1.0  0.04370  0.28170  0.99602  1.0000
  H   H1021     1.0  0.98835  0.28847  0.60053  1.0000
  H   H1022     1.0  0.77129  0.49067  0.86885  1.0000
  S   S339      1.0  0.96090  0.29044  0.74557  1.0000
  H   H1023     1.0  0.92406  0.33671  0.89241  1.0000
  C   C1014     1.0  0.69600  0.34857  0.62873  1.0000
  H   H1024     1.0  0.03488  0.28817  0.71162  1.0000
  H   H1025     1.0  0.69708  0.40638  0.65561  1.0000
  H   H1026     1.0  0.01816  0.39204  0.60161  1.0000
  C   C1015     1.0  0.11258  0.36136  0.62636  1.0000
  H   H1027     1.0  0.80276  0.49029  0.89063  1.0000
  C   C1016     1.0  0.94486  0.40923  0.91317  1.0000
  C   C1017     1.0  0.07817  0.26379  0.02718  1.0000
  H   H1028     1.0  0.03243  0.33089  0.66076  1.0000
  C   C1018     1.0  0.10279  0.38067  0.59608  1.0000
  H   H1029     1.0  0.71534  0.32242  0.78023  1.0000
  S   S340      1.0  0.67893  0.36538  0.84836  1.0000
  Fe  Fe168     1.0  0.82444  0.36381  0.87483  1.0000
  C   C1019     1.0  0.79842  0.43787  0.60472  1.0000
  H   H1030     1.0  0.96497  0.36474  0.61247  1.0000
  C   C1020     1.0  0.69317  0.36480  0.65840  1.0000
  C   C1021     1.0  0.87729  0.45961  0.76494  1.0000
  Fe  Fe169     1.0  0.86685  0.48627  0.02607  1.0000
  C   C1022     1.0  0.78757  0.45581  0.62262  1.0000
  C   C1023     1.0  0.78380  0.31911  0.76685  1.0000
  H   H1031     1.0  0.69091  0.32606  0.64868  1.0000
  C   C1024     1.0  0.84841  0.45741  0.86456  1.0000
  H   H1032     1.0  0.94299  0.36658  0.93249  1.0000
  H   H1033     1.0  0.02356  0.50027  0.78490  1.0000
  H   H1034     1.0  0.82029  0.43016  0.74036  1.0000
  H   H1035     1.0  0.93027  0.35578  0.82350  1.0000
  H   H1036     1.0  0.67859  0.46789  0.61743  1.0000
  H   H1037     1.0  0.81552  0.44576  0.99356  1.0000
  C   C1025     1.0  0.07504  0.41581  0.68720  1.0000
  S   S341      1.0  0.88352  0.25877  0.73334  1.0000
  Fe  Fe170     1.0  0.68193  0.38016  0.76319  1.0000
  C   C1026     1.0  0.02083  0.27680  0.69416  1.0000
  C   C1027     1.0  0.92496  0.42621  0.84415  1.0000
  H   H1038     1.0  0.64347  0.33871  0.58162  1.0000
  H   H1039     1.0  0.03200  0.44773  0.01271  1.0000
  H   H1040     1.0  0.10555  0.45711  0.67638  1.0000
  C   C1028     1.0  0.86596  0.48383  0.82176  1.0000
  S   S342      1.0  0.82682  0.32188  0.88321  1.0000
  H   H1041     1.0  0.74396  0.26737  0.78977  1.0000
  H   H1042     1.0  0.95507  0.27548  0.95075  1.0000
  C   C1029     1.0  0.06837  0.25912  0.94761  1.0000
  N   N86       1.0  0.92473  0.37899  0.87101  1.0000
  C   C1030     1.0  0.81427  0.44800  0.73939  1.0000
  S   S343      1.0  0.08601  0.45651  0.93287  1.0000
  H   H1043     1.0  0.64340  0.37373  0.56085  1.0000
  H   H1044     1.0  0.82958  0.41188  0.88943  1.0000
  C   C1031     1.0  0.67244  0.36354  0.98078  1.0000
  S   S344      1.0  0.74584  0.27190  0.89769  1.0000
  N   N87       1.0  0.66521  0.50121  0.58224  1.0000
  C   C1032     1.0  0.91823  0.40001  0.83966  1.0000
  N   N88       1.0  0.07953  0.37538  0.74725  1.0000
  H   H1045     1.0  0.04164  0.33217  0.59423  1.0000
  C   C1033     1.0  0.99732  0.46459  0.02286  1.0000
  S   S345      1.0  0.68150  0.34844  0.72760  1.0000
  S   S346      1.0  0.00903  0.39552  0.95048  1.0000
  C   C1034     1.0  0.91766  0.35193  0.86466  1.0000
  C   C1035     1.0  0.12165  0.34628  0.97135  1.0000
  H   H1046     1.0  0.13031  0.43693  0.73781  1.0000
  H   H1047     1.0  0.63624  0.49516  0.88829  1.0000
  Fe  Fe171     1.0  0.02466  0.50122  0.67375  1.0000
  Fe  Fe172     1.0  0.12637  0.30191  0.65353  1.0000
  C   C1036     1.0  0.97763  0.31383  0.81330  1.0000
  H   H1048     1.0  0.74203  0.36748  0.78710  1.0000
  C   C1037     1.0  0.72147  0.49924  0.77434  1.0000
  H   H1049     1.0  0.73480  0.48706  0.76823  1.0000
  N   N89       1.0  0.75392  0.31132  0.77069  1.0000
  H   H1050     1.0  0.93878  0.38317  0.72706  1.0000
  H   H1051     1.0  0.80996  0.42643  0.53829  1.0000
  H   H1052     1.0  0.94784  0.47853  0.01005  1.0000
  Fe  Fe173     1.0  0.02315  0.38513  0.87998  1.0000
  H   H1053     1.0  0.80496  0.42281  0.63052  1.0000
  H   H1054     1.0  0.04526  0.33315  0.78466  1.0000
  H   H1055     1.0  0.90177  0.27563  0.82655  1.0000
  S   S347      1.0  0.86618  0.30877  0.98969  1.0000
  H   H1056     1.0  0.95433  0.44307  0.54246  1.0000
  H   H1057     1.0  0.86732  0.39654  0.64710  1.0000
  H   H1058     1.0  0.03207  0.28545  0.96750  1.0000
  H   H1059     1.0  0.96732  0.47404  0.64985  1.0000
  Fe  Fe174     1.0  0.77856  0.33840  0.98689  1.0000
  C   C1038     1.0  0.71040  0.39013  0.54755  1.0000
  S   S348      1.0  0.72399  0.41948  0.73421  1.0000
  H   H1060     1.0  0.76424  0.48820  0.65242  1.0000
  C   C1039     1.0  0.02731  0.46675  0.00732  1.0000
  H   H1061     1.0  0.74536  0.28782  0.72367  1.0000
  H   H1062     1.0  0.88838  0.46061  0.72635  1.0000
  C   C1040     1.0  0.83086  0.47457  0.69598  1.0000
  Fe  Fe175     1.0  0.06979  0.36455  0.91777  1.0000
  C   C1041     1.0  0.96813  0.43191  0.55587  1.0000
  S   S349      1.0  0.09917  0.34317  0.89174  1.0000
  C   C1042     1.0  0.70823  0.40656  0.57710  1.0000
  C   C1043     1.0  0.88015  0.48494  0.77179  1.0000
  C   C1044     1.0  0.97895  0.34655  0.73031  1.0000
  H   H1063     1.0  0.92089  0.46670  0.62735  1.0000
  N   N90       1.0  0.65300  0.34917  0.03251  1.0000
  C   C1045     1.0  0.89756  0.26296  0.86790  1.0000
  H   H1064     1.0  0.83659  0.26428  0.55213  1.0000
  H   H1065     1.0  0.79545  0.30533  0.76206  1.0000
  C   C1046     1.0  0.97357  0.31888  0.76406  1.0000
  C   C1047     1.0  0.70472  0.36126  0.57325  1.0000
  S   S350      1.0  0.69960  0.48571  0.70165  1.0000
  H   H1066     1.0  0.11087  0.36073  0.97483  1.0000
  H   H1067     1.0  0.83138  0.40713  0.99849  1.0000
  C   C1048     1.0  0.92464  0.44827  0.64911  1.0000
  H   H1068     1.0  0.71124  0.36641  0.92165  1.0000
  H   H1069     1.0  0.04909  0.37223  0.70366  1.0000
  Fe  Fe176     1.0  0.90509  0.33598  0.63712  1.0000
  C   C1049     1.0  0.99480  0.27695  0.63227  1.0000
  Fe  Fe177     1.0  0.92713  0.29617  0.70568  1.0000
  H   H1070     1.0  0.89164  0.37673  0.70524  1.0000
  C   C1050     1.0  0.74945  0.41818  0.95398  1.0000
  C   C1051     1.0  0.78191  0.47703  0.53978  1.0000
  C   C1052     1.0  0.95763  0.29357  0.00901  1.0000
  H   H1071     1.0  0.71314  0.27766  0.78181  1.0000
  C   C1053     1.0  0.10229  0.39324  0.75640  1.0000
  H   H1072     1.0  0.65157  0.42534  0.98573  1.0000
  S   S351      1.0  0.91842  0.38235  0.58604  1.0000
  H   H1073     1.0  0.78567  0.45431  0.66249  1.0000
  C   C1054     1.0  0.85912  0.43314  0.80742  1.0000
  C   C1055     1.0  0.79775  0.43204  0.03170  1.0000
  Fe  Fe178     1.0  0.70303  0.46623  0.02759  1.0000
  H   H1074     1.0  0.74825  0.49487  0.60075  1.0000
  S   S352      1.0  0.93107  0.30976  0.61959  1.0000
  C   C1056     1.0  0.69654  0.33004  0.99543  1.0000
  C   C1057     1.0  0.79935  0.34435  0.77106  1.0000
  H   H1075     1.0  0.99373  0.39079  0.71858  1.0000
  S   S353      1.0  0.09551  0.32495  0.64016  1.0000
  C   C1058     1.0  0.69311  0.26325  0.97251  1.0000
  C   C1059     1.0  0.09792  0.43416  0.69689  1.0000
  H   H1076     1.0  0.10937  0.42473  0.55957  1.0000
  Fe  Fe179     1.0  0.77589  0.30312  0.92125  1.0000
  H   H1077     1.0  0.97693  0.43237  0.70027  1.0000
  C   C1060     1.0  0.69471  0.35430  0.96167  1.0000
  S   S354      1.0  0.82215  0.27430  0.81872  1.0000
  H   H1078     1.0  0.10430  0.26729  0.53772  1.0000
  C   C1061     1.0  0.97406  0.38774  0.59542  1.0000
  C   C1062     1.0  0.01610  0.43307  0.56759  1.0000
  C   C1063     1.0  0.98026  0.50118  0.78205  1.0000
  C   C1064     1.0  0.99252  0.36422  0.79502  1.0000
  S   S355      1.0  0.90416  0.32440  0.72136  1.0000
  S   S356      1.0  0.00359  0.39277  0.81411  1.0000
  S   S357      1.0  0.67891  0.49599  0.01822  1.0000
  C   C1065     1.0  0.80105  0.43979  0.55320  1.0000
  C   C1066     1.0  0.11189  0.42287  0.73125  1.0000
  C   C1067     1.0  0.95110  0.45256  0.66188  1.0000
  Fe  Fe180     1.0  0.88466  0.27466  0.64898  1.0000
  Fe  Fe181     1.0  0.86049  0.28760  0.74362  1.0000
  Fe  Fe182     1.0  0.00993  0.35382  0.99857  1.0000
  N   N91       1.0  0.06314  0.26815  0.99168  1.0000
  H   H1079     1.0  0.08232  0.27822  0.90960  1.0000
  H   H1080     1.0  0.84965  0.47707  0.66401  1.0000
  C   C1068     1.0  0.00483  0.50550  0.80064  1.0000
  H   H1081     1.0  0.83682  0.45651  0.90273  1.0000
  S   S358      1.0  0.90147  0.50514  0.56375  1.0000
  C   C1069     1.0  0.11679  0.40986  0.58362  1.0000
  C   C1070     1.0  0.06631  0.38631  0.71245  1.0000
  H   H1082     1.0  0.66531  0.46450  0.89852  1.0000
  C   C1071     1.0  0.12619  0.49974  0.83807  1.0000
  S   S359      1.0  0.89599  0.48656  0.95246  1.0000
  C   C1072     1.0  0.95583  0.50726  0.80328  1.0000
  H   H1083     1.0  0.71375  0.32274  0.98147  1.0000
  S   S360      1.0  0.05878  0.37263  0.99182  1.0000
  H   H1084     1.0  0.94421  0.45126  0.88429  1.0000
  H   H1085     1.0  0.08175  0.33715  0.74387  1.0000
  S   S361      1.0  0.71808  0.45179  0.96338  1.0000
  C   C1073     1.0  0.82230  0.49746  0.69337  1.0000
  H   H1086     1.0  0.87012  0.28288  0.89910  1.0000
  H   H1087     1.0  0.77514  0.39231  0.94805  1.0000
  C   C1074     1.0  0.95602  0.40199  0.57857  1.0000
  C   C1075     1.0  0.05118  0.49356  0.98542  1.0000
  H   H1088     1.0  0.08476  0.37334  0.58133  1.0000
  C   C1076     1.0  0.93773  0.38322  0.90772  1.0000
  Fe  Fe183     1.0  0.69315  0.44124  0.75152  1.0000
  Fe  Fe184     1.0  0.05914  0.48538  0.59227  1.0000
  Fe  Fe185     1.0  0.65146  0.39169  0.85574  1.0000
  C   C1077     1.0  0.99805  0.44746  0.55100  1.0000
  C   C1078     1.0  0.02332  0.32251  0.63356  1.0000
  C   C1079     1.0  0.07636  0.47374  0.83846  1.0000
  H   H1089     1.0  0.97303  0.29235  0.83993  1.0000
  S   S362      1.0  0.02135  0.34261  0.92866  1.0000
  S   S363      1.0  0.07295  0.40648  0.86341  1.0000
  S   S364      1.0  0.97896  0.48812  0.73264  1.0000
  C   C1080     1.0  0.72618  0.42153  0.98693  1.0000
  C   C1081     1.0  0.07030  0.34437  0.77233  1.0000
  C   C1082     1.0  0.64623  0.46046  0.93201  1.0000
  C   C1083     1.0  0.65766  0.47224  0.62049  1.0000
  C   C1084     1.0  0.76937  0.49456  0.60880  1.0000
  C   C1085     1.0  0.75399  0.35409  0.78097  1.0000
  S   S365      1.0  0.85450  0.40150  0.79794  1.0000
  C   C1086     1.0  0.87997  0.26713  0.90850  1.0000
  H   H1090     1.0  0.70747  0.27426  0.98992  1.0000
  C   C1087     1.0  0.63836  0.43833  0.98116  1.0000
  C   C1088     1.0  0.79810  0.49412  0.73520  1.0000
  H   H1091     1.0  0.95557  0.41269  0.94167  1.0000
  H   H1092     1.0  0.67123  0.38254  0.95436  1.0000
  S   S366      1.0  0.76481  0.41034  0.82903  1.0000
  H   H1093     1.0  0.05338  0.45777  0.85975  1.0000
  C   C1089     1.0  0.12076  0.33584  0.93184  1.0000
  N   N92       1.0  0.99129  0.48838  0.01799  1.0000
  H   H1094     1.0  0.90782  0.39662  0.81085  1.0000
  H   H1095     1.0  0.66272  0.27069  0.59623  1.0000
  C   C1090     1.0  0.95634  0.42911  0.69025  1.0000
  C   C1091     1.0  0.73828  0.28473  0.76606  1.0000
  S   S367      1.0  0.82930  0.36011  0.95373  1.0000
  C   C1092     1.0  0.78427  0.36189  0.77816  1.0000
  Fe  Fe186     1.0  0.05891  0.41355  0.93776  1.0000
  C   C1093     1.0  0.84453  0.43210  0.85711  1.0000
  C   C1094     1.0  0.78942  0.44443  0.78041  1.0000
  S   S368      1.0  0.85882  0.30170  0.66081  1.0000
  C   C1095     1.0  0.78159  0.46759  0.77848  1.0000
  N   N93       1.0  0.77941  0.47502  0.59034  1.0000
  C   C1096     1.0  0.09660  0.47887  0.86578  1.0000
  C   C1097     1.0  0.00417  0.40322  0.58920  1.0000
  H   H1096     1.0  0.79573  0.38102  0.78329  1.0000
  H   H1097     1.0  0.70594  0.34837  0.55064  1.0000
  N   N94       1.0  0.90388  0.42128  0.66386  1.0000
  C   C1098     1.0  0.95514  0.27174  0.99081  1.0000
  H   H1098     1.0  0.71299  0.42893  0.55728  1.0000
  H   H1099     1.0  0.98783  0.33196  0.86829  1.0000
  C   C1099     1.0  0.63666  0.35369  0.55442  1.0000
  C   C1100     1.0  0.98652  0.33640  0.82913  1.0000
  S   S369      1.0  0.77745  0.29442  0.00360  1.0000
  S   S370      1.0  0.77346  0.34568  0.90709  1.0000
  H   H1100     1.0  0.11325  0.38472  0.78322  1.0000
  C   C1101     1.0  0.74110  0.37442  0.02612  1.0000
  C   C1102     1.0  0.65852  0.26412  0.56495  1.0000
  H   H1101     1.0  0.06473  0.42439  0.65916  1.0000
  H   H1102     1.0  0.82264  0.34983  0.77036  1.0000
  H   H1103     1.0  0.07044  0.48406  0.76230  1.0000
  H   H1104     1.0  0.64078  0.45580  0.61381  1.0000
  N   N95       1.0  0.01258  0.29132  0.65422  1.0000
  H   H1105     1.0  0.97595  0.35044  0.69220  1.0000
  H   H1106     1.0  0.07457  0.49553  0.97354  1.0000
  Fe  Fe187     1.0  0.71987  0.40600  0.81977  1.0000
  C   C1103     1.0  0.79373  0.50454  0.86711  1.0000
  H   H1107     1.0  0.93662  0.50366  0.78959  1.0000
  H   H1108     1.0  0.73279  0.50264  0.84171  1.0000
  H   H1109     1.0  0.89348  0.50536  0.73843  1.0000
  S   S371      1.0  0.11252  0.26107  0.72439  1.0000
  C   C1104     1.0  0.65700  0.50545  0.53780  1.0000
  H   H1110     1.0  0.77470  0.46081  0.02530  1.0000
  C   C1105     1.0  0.13550  0.37121  0.64613  1.0000
  H   H1111     1.0  0.95797  0.50555  0.03531  1.0000
  C   C1106     1.0  0.95956  0.48518  0.03634  1.0000
  H   H1112     1.0  0.99766  0.27086  0.30647  1.0000
  H   H1113     1.0  0.09975  0.38054  0.24436  1.0000
  H   H1114     1.0  0.07409  0.27755  0.52725  1.0000
  C   C1107     1.0  0.79886  0.49035  0.28232  1.0000
  H   H1115     1.0  0.76590  0.33353  0.53235  1.0000
  S   S372      1.0  0.10269  0.31873  0.14154  1.0000
  C   C1108     1.0  0.07348  0.27265  0.06894  1.0000
  C   C1109     1.0  0.67764  0.32558  0.29376  1.0000
  H   H1116     1.0  0.64226  0.30830  0.19166  1.0000
  N   N96       1.0  0.83536  0.38831  0.47149  1.0000
  C   C1110     1.0  0.90832  0.45881  0.24054  1.0000
  S   S373      1.0  0.83187  0.41780  0.31671  1.0000
  S   S374      1.0  0.05477  0.26024  0.29374  1.0000
  H   H1117     1.0  0.12542  0.27809  0.31936  1.0000
  C   C1111     1.0  0.79086  0.42688  0.18922  1.0000
  S   S375      1.0  0.00097  0.34668  0.41545  1.0000
  C   C1112     1.0  0.97241  0.39060  0.22750  1.0000
  H   H1118     1.0  0.89187  0.49594  0.18484  1.0000
  C   C1113     1.0  0.77484  0.44078  0.04964  1.0000
  C   C1114     1.0  0.02008  0.30808  0.23168  1.0000
  C   C1115     1.0  0.65144  0.38216  0.45907  1.0000
  C   C1116     1.0  0.82325  0.26997  0.08628  1.0000
  H   H1119     1.0  0.00732  0.47056  0.53345  1.0000
  H   H1120     1.0  0.05899  0.41213  0.16344  1.0000
  H   H1121     1.0  0.68744  0.32998  0.32262  1.0000
  H   H1122     1.0  0.81338  0.37425  0.05641  1.0000
  C   C1117     1.0  0.99474  0.28567  0.27344  1.0000
  N   N97       1.0  0.10601  0.28146  0.45725  1.0000
  Fe  Fe188     1.0  0.00012  0.47909  0.15057  1.0000
  S   S376      1.0  0.87895  0.46128  0.47765  1.0000
  C   C1118     1.0  0.13104  0.27626  0.43854  1.0000
  C   C1119     1.0  0.11828  0.39956  0.40494  1.0000
  H   H1123     1.0  0.69635  0.31720  0.17759  1.0000
  C   C1120     1.0  0.78882  0.44014  0.30592  1.0000
  S   S377      1.0  0.96102  0.27910  0.49479  1.0000
  H   H1124     1.0  0.69091  0.28077  0.43335  1.0000
  H   H1125     1.0  0.77324  0.41884  0.31551  1.0000
  N   N98       1.0  0.89200  0.45392  0.20834  1.0000
  C   C1121     1.0  0.95715  0.26295  0.09327  1.0000
  H   H1126     1.0  0.69163  0.40310  0.06429  1.0000
  H   H1127     1.0  0.77582  0.36944  0.13502  1.0000
  C   C1122     1.0  0.10955  0.42519  0.22351  1.0000
  C   C1123     1.0  0.79273  0.45944  0.52045  1.0000
  C   C1124     1.0  0.92322  0.47298  0.38573  1.0000
  S   S378      1.0  0.82772  0.29052  0.34177  1.0000
  C   C1125     1.0  0.05942  0.42419  0.43529  1.0000
  S   S379      1.0  0.70495  0.46302  0.37728  1.0000
  C   C1126     1.0  0.09496  0.28500  0.37696  1.0000
  H   H1128     1.0  0.05327  0.49428  0.38278  1.0000
  H   H1129     1.0  0.98505  0.33979  0.15758  1.0000
  C   C1127     1.0  0.96211  0.30247  0.23123  1.0000
  S   S380      1.0  0.97352  0.31940  0.07445  1.0000
  H   H1130     1.0  0.74523  0.40662  0.24640  1.0000
  H   H1131     1.0  0.86174  0.47739  0.29168  1.0000
  H   H1132     1.0  0.11031  0.47132  0.30336  1.0000
  H   H1133     1.0  0.77615  0.49272  0.51379  1.0000
  H   H1134     1.0  0.86154  0.26384  0.39632  1.0000
  C   C1128     1.0  0.88976  0.49813  0.37725  1.0000
  H   H1135     1.0  0.88300  0.41197  0.42920  1.0000
  H   H1136     1.0  0.88097  0.38498  0.23459  1.0000
  C   C1129     1.0  0.81882  0.44548  0.30382  1.0000
  C   C1130     1.0  0.66422  0.38751  0.40541  1.0000
  C   C1131     1.0  0.01845  0.38315  0.23133  1.0000
  C   C1132     1.0  0.77524  0.37561  0.47678  1.0000
  C   C1133     1.0  0.98836  0.40741  0.37138  1.0000
  C   C1134     1.0  0.83874  0.47325  0.29187  1.0000
  H   H1137     1.0  0.85415  0.34508  0.34548  1.0000
  H   H1138     1.0  0.04751  0.26280  0.19295  1.0000
  H   H1139     1.0  0.73398  0.42967  0.11353  1.0000
  C   C1135     1.0  0.08840  0.28634  0.42677  1.0000
  H   H1140     1.0  0.91568  0.47934  0.24299  1.0000
  H   H1141     1.0  0.06511  0.43036  0.33465  1.0000
  Fe  Fe189     1.0  0.79857  0.37474  0.33079  1.0000
  C   C1136     1.0  0.86261  0.33068  0.36778  1.0000
  C   C1137     1.0  0.98713  0.37519  0.25393  1.0000
  H   H1142     1.0  0.95941  0.25978  0.13184  1.0000
  C   C1138     1.0  0.96562  0.28283  0.27307  1.0000
  S   S381      1.0  0.71516  0.44334  0.20888  1.0000
  H   H1143     1.0  0.79636  0.40860  0.20488  1.0000
  C   C1139     1.0  0.96042  0.28974  0.05901  1.0000
  S   S382      1.0  0.63754  0.48890  0.42373  1.0000
  H   H1144     1.0  0.87283  0.37579  0.47333  1.0000
  C   C1140     1.0  0.77877  0.46250  0.29560  1.0000
  H   H1145     1.0  0.92733  0.44094  0.29825  1.0000
  S   S383      1.0  0.11868  0.33353  0.23836  1.0000
  H   H1146     1.0  0.79114  0.41924  0.42113  1.0000
  C   C1141     1.0  0.07538  0.35923  0.41508  1.0000
  S   S384      1.0  0.79569  0.33797  0.39978  1.0000
  Fe  Fe190     1.0  0.71687  0.44798  0.45044  1.0000
  C   C1142     1.0  0.65215  0.31364  0.21961  1.0000
  C   C1143     1.0  0.11994  0.27901  0.35812  1.0000
  Fe  Fe191     1.0  0.73312  0.50608  0.45718  1.0000
  C   C1144     1.0  0.00551  0.40893  0.44495  1.0000
  Fe  Fe192     1.0  0.74572  0.32091  0.41572  1.0000
  C   C1145     1.0  0.75200  0.42332  0.09903  1.0000
  H   H1147     1.0  0.97889  0.44362  0.04068  1.0000
  S   S385      1.0  0.74872  0.29563  0.36590  1.0000
  H   H1148     1.0  0.06116  0.35926  0.16295  1.0000
  S   S386      1.0  0.12377  0.39849  0.11504  1.0000
  Fe  Fe193     1.0  0.04628  0.50238  0.19917  1.0000
  H   H1149     1.0  0.02346  0.30196  0.04002  1.0000
  H   H1150     1.0  0.02412  0.42092  0.29697  1.0000
  C   C1146     1.0  0.88639  0.29434  0.42234  1.0000
  H   H1151     1.0  0.66124  0.32223  0.51768  1.0000
  H   H1152     1.0  0.64175  0.31598  0.10822  1.0000
  H   H1153     1.0  0.68754  0.26190  0.25214  1.0000
  Fe  Fe194     1.0  0.00996  0.30948  0.46122  1.0000
  S   S387      1.0  0.67126  0.43615  0.11035  1.0000
  C   C1147     1.0  0.04180  0.42315  0.36014  1.0000
  S   S388      1.0  0.84417  0.44882  0.10518  1.0000
  C   C1148     1.0  0.13021  0.45107  0.21853  1.0000
  C   C1149     1.0  0.04335  0.35043  0.14722  1.0000
  H   H1154     1.0  0.79516  0.46135  0.48007  1.0000
  H   H1155     1.0  0.80545  0.28270  0.24208  1.0000
  C   C1150     1.0  0.69555  0.32442  0.24896  1.0000
  H   H1156     1.0  0.81972  0.34533  0.52784  1.0000
  H   H1157     1.0  0.87038  0.50204  0.39493  1.0000
  C   C1151     1.0  0.68289  0.48720  0.25936  1.0000
  Fe  Fe195     1.0  0.74749  0.50199  0.34957  1.0000
  H   H1158     1.0  0.00015  0.40491  0.48674  1.0000
  S   S389      1.0  0.80546  0.35394  0.27380  1.0000
  H   H1159     1.0  0.89909  0.28572  0.05045  1.0000
  C   C1152     1.0  0.02041  0.42231  0.15648  1.0000
  H   H1160     1.0  0.09175  0.34673  0.52938  1.0000
  H   H1161     1.0  0.97424  0.35743  0.29202  1.0000
  H   H1162     1.0  0.84461  0.43038  0.41706  1.0000
  H   H1163     1.0  0.68007  0.29841  0.07566  1.0000
  H   H1164     1.0  0.04984  0.29359  0.10556  1.0000
  C   C1153     1.0  0.09680  0.50550  0.26898  1.0000
  H   H1165     1.0  0.75211  0.37026  0.47668  1.0000
  S   S390      1.0  0.02227  0.29859  0.39126  1.0000
  H   H1166     1.0  0.08552  0.26911  0.09689  1.0000
  H   H1167     1.0  0.05577  0.43533  0.46198  1.0000
  H   H1168     1.0  0.03349  0.44077  0.11921  1.0000
  Fe  Fe196     1.0  0.64982  0.46790  0.10271  1.0000
  H   H1169     1.0  0.81909  0.30901  0.14429  1.0000
  C   C1154     1.0  0.75365  0.44832  0.18991  1.0000
  H   H1170     1.0  0.76962  0.49112  0.13054  1.0000
  H   H1171     1.0  0.73113  0.49703  0.23731  1.0000
  C   C1155     1.0  0.76190  0.42579  0.21285  1.0000
  H   H1172     1.0  0.70484  0.36168  0.09898  1.0000
  H   H1173     1.0  0.94593  0.26580  0.30600  1.0000
  H   H1174     1.0  0.96189  0.48747  0.31535  1.0000
  C   C1156     1.0  0.90502  0.41039  0.26995  1.0000
  H   H1175     1.0  0.94828  0.38446  0.24525  1.0000
  C   C1157     1.0  0.03490  0.40625  0.18186  1.0000
  H   H1176     1.0  0.08946  0.42427  0.21290  1.0000
  S   S391      1.0  0.71864  0.40498  0.47884  1.0000
  S   S392      1.0  0.73406  0.33043  0.23713  1.0000
  C   C1158     1.0  0.11619  0.38543  0.45748  1.0000
  C   C1159     1.0  0.09798  0.38640  0.38391  1.0000
  S   S393      1.0  0.97228  0.43727  0.15180  1.0000
  H   H1177     1.0  0.87124  0.40206  0.50013  1.0000
  C   C1160     1.0  0.07251  0.34525  0.46795  1.0000
  H   H1178     1.0  0.07677  0.50180  0.44980  1.0000
  S   S394      1.0  0.91710  0.33294  0.45613  1.0000
  Fe  Fe197     1.0  0.70360  0.46342  0.13713  1.0000
  S   S395      1.0  0.99569  0.47863  0.23145  1.0000
  Fe  Fe198     1.0  0.09640  0.29418  0.22632  1.0000
  Fe  Fe199     1.0  0.68216  0.48501  0.41830  1.0000
  H   H1179     1.0  0.93961  0.30087  0.23083  1.0000
  H   H1180     1.0  0.89512  0.28015  0.44440  1.0000
  C   C1161     1.0  0.09876  0.28293  0.50937  1.0000
  H   H1181     1.0  0.63934  0.43787  0.41131  1.0000
  C   C1162     1.0  0.74196  0.28428  0.18234  1.0000
  C   C1163     1.0  0.81150  0.45054  0.14281  1.0000
  H   H1182     1.0  0.91374  0.25902  0.18957  1.0000
  C   C1164     1.0  0.67470  0.26966  0.47330  1.0000
  H   H1183     1.0  0.95819  0.39395  0.45145  1.0000
  C   C1165     1.0  0.89306  0.32145  0.42291  1.0000
  C   C1166     1.0  0.79729  0.40306  0.44519  1.0000
  C   C1167     1.0  0.77569  0.38952  0.11085  1.0000
  C   C1168     1.0  0.85408  0.28352  0.05509  1.0000
  H   H1184     1.0  0.08221  0.43768  0.40392  1.0000
  Fe  Fe200     1.0  0.95297  0.31560  0.44249  1.0000
  Fe  Fe201     1.0  0.12917  0.35759  0.15147  1.0000
  S   S396      1.0  0.05092  0.49988  0.12012  1.0000
  H   H1185     1.0  0.05272  0.34245  0.11828  1.0000
  H   H1186     1.0  0.66510  0.40597  0.37401  1.0000
  C   C1169     1.0  0.78781  0.28319  0.22474  1.0000
  C   C1170     1.0  0.68271  0.31840  0.21206  1.0000
  H   H1187     1.0  0.86900  0.42385  0.18092  1.0000
  C   C1171     1.0  0.98920  0.41465  0.17949  1.0000
  C   C1172     1.0  0.77541  0.47313  0.14691  1.0000
  H   H1188     1.0  0.90967  0.39330  0.29462  1.0000
  N   N99       1.0  0.65103  0.35927  0.49861  1.0000
  H   H1189     1.0  0.73478  0.38394  0.16853  1.0000
  H   H1190     1.0  0.72423  0.28544  0.16554  1.0000
  Fe  Fe202     1.0  0.97302  0.27053  0.42146  1.0000
  C   C1173     1.0  0.66239  0.34082  0.48631  1.0000
  C   C1174     1.0  0.67610  0.36894  0.39251  1.0000
  C   C1175     1.0  0.75715  0.26892  0.25718  1.0000
  H   H1191     1.0  0.80679  0.27623  0.07164  1.0000
  C   C1176     1.0  0.87528  0.27526  0.07464  1.0000
  S   S397      1.0  0.04142  0.31295  0.50785  1.0000
  C   C1177     1.0  0.81016  0.27264  0.50148  1.0000
  H   H1192     1.0  0.09903  0.39760  0.34395  1.0000
  S   S398      1.0  0.03757  0.36489  0.26449  1.0000
  C   C1178     1.0  0.88894  0.40573  0.23619  1.0000
  C   C1179     1.0  0.91492  0.43710  0.27205  1.0000
  C   C1180     1.0  0.78318  0.35488  0.50754  1.0000
  C   C1181     1.0  0.89765  0.47740  0.40851  1.0000
  C   C1182     1.0  0.77239  0.29862  0.14864  1.0000
  H   H1193     1.0  0.05988  0.40348  0.45884  1.0000
  C   C1183     1.0  0.98169  0.40289  0.42501  1.0000
  H   H1194     1.0  0.03795  0.36855  0.12590  1.0000
  H   H1195     1.0  0.88671  0.36078  0.39530  1.0000
  C   C1184     1.0  0.81356  0.36165  0.50448  1.0000
  H   H1196     1.0  0.63669  0.48373  0.28061  1.0000
  C   C1185     1.0  0.67493  0.34527  0.43322  1.0000
  C   C1186     1.0  0.88252  0.42788  0.20552  1.0000
  C   C1187     1.0  0.94139  0.48995  0.33201  1.0000
  C   C1188     1.0  0.86747  0.28519  0.39508  1.0000
  C   C1189     1.0  0.82889  0.49573  0.28055  1.0000
  C   C1190     1.0  0.01861  0.41770  0.33860  1.0000
  Fe  Fe203     1.0  0.88827  0.50044  0.49461  1.0000
  H   H1197     1.0  0.13187  0.39571  0.47389  1.0000
  H   H1198     1.0  0.84064  0.40511  0.05819  1.0000
  H   H1199     1.0  0.85848  0.46846  0.18968  1.0000
  C   C1191     1.0  0.85514  0.30322  0.36859  1.0000
  N   N100      1.0  0.03511  0.41914  0.41254  1.0000
  C   C1192     1.0  0.71319  0.50442  0.24770  1.0000
  H   H1200     1.0  0.97009  0.40212  0.35569  1.0000
  C   C1193     1.0  0.88371  0.47627  0.17765  1.0000
  H   H1201     1.0  0.93001  0.45772  0.41032  1.0000
  H   H1202     1.0  0.77797  0.31017  0.10628  1.0000
  C   C1194     1.0  0.82747  0.40913  0.44299  1.0000
  C   C1195     1.0  0.86712  0.39481  0.46844  1.0000
  C   C1196     1.0  0.80445  0.47436  0.12383  1.0000
  S   S399      1.0  0.67918  0.49246  0.13679  1.0000
  N   N101      1.0  0.79767  0.40649  0.06187  1.0000
  H   H1203     1.0  0.06913  0.29130  0.44089  1.0000
  Fe  Fe204     1.0  0.00919  0.33324  0.34799  1.0000
  S   S400      1.0  0.71539  0.30491  0.50036  1.0000
  C   C1197     1.0  0.79542  0.29807  0.17007  1.0000
  Fe  Fe205     1.0  0.79907  0.31609  0.34410  1.0000
  C   C1198     1.0  0.11164  0.49243  0.29903  1.0000
  C   C1199     1.0  0.65617  0.32659  0.06672  1.0000
  S   S401      1.0  0.74797  0.35911  0.35024  1.0000
  S   S402      1.0  0.73698  0.49157  0.05439  1.0000
  C   C1200     1.0  0.98795  0.32462  0.19003  1.0000
  H   H1204     1.0  0.75549  0.45818  0.29731  1.0000
  S   S403      1.0  0.76039  0.48569  0.42077  1.0000
  S   S404      1.0  0.07537  0.48599  0.24068  1.0000
  H   H1205     1.0  0.89331  0.48167  0.13448  1.0000
  C   C1201     1.0  0.64700  0.32130  0.30077  1.0000
  H   H1206     1.0  0.06010  0.34934  0.39794  1.0000
  S   S405      1.0  0.69036  0.46647  0.49422  1.0000
  H   H1207     1.0  0.08090  0.28882  0.35295  1.0000
  H   H1208     1.0  0.68620  0.37290  0.35108  1.0000
  H   H1209     1.0  0.67711  0.46631  0.25825  1.0000
  C   C1202     1.0  0.09344  0.35791  0.48887  1.0000
  Fe  Fe206     1.0  0.75446  0.33507  0.29917  1.0000
  C   C1203     1.0  0.88118  0.33965  0.39562  1.0000
  H   H1210     1.0  0.82093  0.49344  0.09032  1.0000
  C   C1204     1.0  0.79030  0.26080  0.47805  1.0000
  H   H1211     1.0  0.11157  0.30486  0.50532  1.0000
  S   S406      1.0  0.96074  0.30411  0.37209  1.0000
  C   C1205     1.0  0.75235  0.39753  0.12989  1.0000
  C   C1206     1.0  0.11525  0.40056  0.24151  1.0000
  N   N102      1.0  0.01646  0.32733  0.19091  1.0000
  H   H1212     1.0  0.04263  0.31039  0.23286  1.0000
  H   H1213     1.0  0.68357  0.33035  0.42405  1.0000
  C   C1207     1.0  0.71732  0.37742  0.05850  1.0000
  C   C1208     1.0  0.05362  0.28642  0.07369  1.0000
  C   C1209     1.0  0.68056  0.27775  0.51380  1.0000
  H   H1214     1.0  0.78271  0.27447  0.45155  1.0000
  S   S407      1.0  0.75028  0.34505  0.05178  1.0000
  C   C1210     1.0  0.66016  0.49720  0.27204  1.0000
  H   H1215     1.0  0.94761  0.46892  0.07806  1.0000
  C   C1211     1.0  0.12820  0.50629  0.32423  1.0000
  C   C1212     1.0  0.67756  0.31634  0.04851  1.0000
  N   N103      1.0  0.73469  0.26969  0.23592  1.0000
  H   H1216     1.0  0.81825  0.29529  0.49250  1.0000
  C   C1213     1.0  0.82211  0.39785  0.04276  1.0000
  C   C1214     1.0  0.70988  0.40094  0.03893  1.0000
  H   H1217     1.0  0.64218  0.39652  0.46918  1.0000
  H   H1218     1.0  0.63846  0.37287  0.07251  1.0000
  H   H1219     1.0  0.12587  0.47021  0.20385  1.0000
  H   H1220     1.0  0.13542  0.45804  0.07327  1.0000
  H   H1221     1.0  0.64358  0.48744  0.53156  1.0000
  S   S408      1.0  0.13491  0.47487  0.45372  1.0000
  C   C1215     1.0  0.03871  0.29108  0.03697  1.0000
  H   H1222     1.0  0.75312  0.56063  0.70291  1.0000
  H   H1223     1.0  0.12730  0.65646  0.71337  1.0000
  H   H1224     1.0  0.70083  0.71645  0.72930  1.0000
  H   H1225     1.0  0.09337  0.65411  0.86973  1.0000
  S   S409      1.0  0.65233  0.73359  0.62840  1.0000
  C   C1216     1.0  0.01459  0.51482  0.99583  1.0000
  S   S410      1.0  0.86972  0.51558  0.83000  1.0000
  S   S411      1.0  0.03773  0.71112  0.84668  1.0000
  H   H1226     1.0  0.12190  0.58955  0.56672  1.0000
  C   C1217     1.0  0.95647  0.51899  0.84091  1.0000
  C   C1218     1.0  0.09575  0.60973  0.01043  1.0000
  S   S412      1.0  0.12946  0.52442  0.68532  1.0000
  C   C1219     1.0  0.09663  0.73393  0.65663  1.0000
  Fe  Fe207     1.0  0.66871  0.60518  0.78897  1.0000
  H   H1227     1.0  0.77908  0.57799  0.60536  1.0000
  N   N104      1.0  0.86580  0.64978  0.90420  1.0000
  C   C1220     1.0  0.09775  0.56985  0.77259  1.0000
  C   C1221     1.0  0.66779  0.73499  0.78592  1.0000
  H   H1228     1.0  0.79194  0.63701  0.96106  1.0000
  H   H1229     1.0  0.78098  0.75649  0.66580  1.0000
  S   S413      1.0  0.93190  0.72720  0.77721  1.0000
  C   C1222     1.0  0.87421  0.60169  0.62118  1.0000
  C   C1223     1.0  0.68700  0.53088  0.78992  1.0000
  H   H1230     1.0  0.00494  0.55297  0.62144  1.0000
  H   H1231     1.0  0.94160  0.75695  0.84597  1.0000
  Fe  Fe208     1.0  0.92948  0.52807  0.94414  1.0000
  H   H1232     1.0  0.94963  0.63520  0.76029  1.0000
  Fe  Fe209     1.0  0.01591  0.69350  0.79536  1.0000
  S   S414      1.0  0.90098  0.67789  0.59126  1.0000
  H   H1233     1.0  0.75578  0.68208  0.93175  1.0000
  C   C1224     1.0  0.13345  0.65842  0.95905  1.0000
  H   H1234     1.0  0.71002  0.73925  0.86649  1.0000
  C   C1225     1.0  0.70293  0.52380  0.82430  1.0000
  C   C1226     1.0  0.76381  0.70389  0.92856  1.0000
  Fe  Fe210     1.0  0.86159  0.66457  0.66446  1.0000
  S   S415      1.0  0.01828  0.73555  0.74174  1.0000
  C   C1227     1.0  0.12162  0.61062  0.55193  1.0000
  H   H1235     1.0  0.85485  0.68232  0.76137  1.0000
  C   C1228     1.0  0.70271  0.74588  0.83273  1.0000
  H   H1236     1.0  0.03327  0.58195  0.80515  1.0000
  C   C1229     1.0  0.73279  0.69678  0.73709  1.0000
  H   H1237     1.0  0.88127  0.58360  0.62377  1.0000
  C   C1230     1.0  0.81571  0.56397  0.91209  1.0000
  H   H1238     1.0  0.08190  0.66120  0.69579  1.0000
  H   H1239     1.0  0.89505  0.62999  0.88295  1.0000
  H   H1240     1.0  0.05725  0.65047  0.58476  1.0000
  Fe  Fe211     1.0  0.68128  0.56546  0.87595  1.0000
  H   H1241     1.0  0.83071  0.71001  0.88690  1.0000
  S   S416      1.0  0.82663  0.65881  0.62452  1.0000
  H   H1242     1.0  0.74009  0.70549  0.76430  1.0000
  S   S417      1.0  0.96745  0.68393  0.98434  1.0000
  C   C1231     1.0  0.75000  0.65028  0.66975  1.0000
  H   H1243     1.0  0.83926  0.54422  0.87252  1.0000
  H   H1244     1.0  0.76597  0.66298  0.62809  1.0000
  N   N105      1.0  0.79152  0.52578  0.88858  1.0000
  C   C1232     1.0  0.68159  0.52403  0.59046  1.0000
  C   C1233     1.0  0.76391  0.52656  0.90884  1.0000
  H   H1245     1.0  0.86713  0.70797  0.81317  1.0000
  C   C1234     1.0  0.00446  0.51557  0.84130  1.0000
  H   H1246     1.0  0.02314  0.72553  0.62697  1.0000
  C   C1235     1.0  0.79501  0.56973  0.71948  1.0000
  H   H1247     1.0  0.68426  0.69605  0.66754  1.0000
  S   S418      1.0  0.66706  0.60280  0.71124  1.0000
  H   H1248     1.0  0.09350  0.72167  0.73879  1.0000
  H   H1249     1.0  0.87287  0.63601  0.84034  1.0000
  H   H1250     1.0  0.83603  0.57797  0.91441  1.0000
  H   H1251     1.0  0.88303  0.61689  0.57866  1.0000
  C   C1236     1.0  0.91753  0.74640  0.85516  1.0000
  C   C1237     1.0  0.86026  0.66760  0.97260  1.0000
  H   H1252     1.0  0.91146  0.67871  0.71402  1.0000
  S   S419      1.0  0.10205  0.52423  0.56539  1.0000
  C   C1238     1.0  0.06522  0.65916  0.82111  1.0000
  C   C1239     1.0  0.05465  0.58023  0.80626  1.0000
  H   H1253     1.0  0.69050  0.60752  0.03293  1.0000
  S   S420      1.0  0.86264  0.57932  0.99747  1.0000
  H   H1254     1.0  0.79145  0.51178  0.73327  1.0000
  C   C1240     1.0  0.09097  0.65588  0.83159  1.0000
  Fe  Fe212     1.0  0.87201  0.53006  0.56587  1.0000
  C   C1241     1.0  0.82676  0.58042  0.69733  1.0000
  N   N106      1.0  0.73602  0.66789  0.68753  1.0000
  C   C1242     1.0  0.64841  0.62174  0.67901  1.0000
  H   H1255     1.0  0.82497  0.62963  0.89183  1.0000
  C   C1243     1.0  0.72067  0.50853  0.81548  1.0000
  Fe  Fe213     1.0  0.64089  0.59603  0.90463  1.0000
  C   C1244     1.0  0.90954  0.64292  0.03185  1.0000
  H   H1256     1.0  0.90432  0.66560  0.83489  1.0000
  H   H1257     1.0  0.78383  0.56177  0.76218  1.0000
  C   C1245     1.0  0.79690  0.61690  0.81589  1.0000
  H   H1258     1.0  0.06319  0.53870  0.96186  1.0000
  C   C1246     1.0  0.98110  0.73165  0.64034  1.0000
  H   H1259     1.0  0.83535  0.59727  0.56796  1.0000
  H   H1260     1.0  0.78572  0.57933  0.95166  1.0000
  S   S421      1.0  0.85306  0.63202  0.74502  1.0000
  Fe  Fe214     1.0  0.07136  0.54764  0.56852  1.0000
  C   C1247     1.0  0.96364  0.58279  0.56730  1.0000
  C   C1248     1.0  0.75999  0.70939  0.97434  1.0000
  H   H1261     1.0  0.12078  0.62709  0.92635  1.0000
  H   H1262     1.0  0.96911  0.63976  0.94875  1.0000
  C   C1249     1.0  0.77356  0.62378  0.83973  1.0000
  C   C1250     1.0  0.98963  0.62896  0.56676  1.0000
  H   H1263     1.0  0.68794  0.52082  0.62556  1.0000
  C   C1251     1.0  0.77874  0.72674  0.87846  1.0000
  Fe  Fe215     1.0  0.83601  0.70507  0.60542  1.0000
  C   C1252     1.0  0.11618  0.50801  0.75493  1.0000
  H   H1264     1.0  0.95809  0.57084  0.74644  1.0000
  S   S422      1.0  0.07621  0.57557  0.01334  1.0000
  H   H1265     1.0  0.81473  0.66172  0.01341  1.0000
  S   S423      1.0  0.90999  0.55556  0.89712  1.0000
  S   S424      1.0  0.90199  0.52530  0.02216  1.0000
  H   H1266     1.0  0.04761  0.59944  0.58968  1.0000
  Fe  Fe216     1.0  0.09186  0.51527  0.65218  1.0000
  C   C1253     1.0  0.86577  0.73475  0.90794  1.0000
  C   C1254     1.0  0.09372  0.58322  0.84598  1.0000
  C   C1255     1.0  0.94592  0.63402  0.97293  1.0000
  H   H1267     1.0  0.70384  0.56983  0.56009  1.0000
  C   C1256     1.0  0.87849  0.66334  0.93266  1.0000
  H   H1268     1.0  0.00169  0.61746  0.71341  1.0000
  H   H1269     1.0  0.73226  0.63100  0.67180  1.0000
  H   H1270     1.0  0.76875  0.74186  0.00510  1.0000
  Fe  Fe217     1.0  0.99014  0.70154  0.89583  1.0000
  Fe  Fe218     1.0  0.86640  0.67521  0.55018  1.0000
  H   H1271     1.0  0.65457  0.60788  0.61473  1.0000
  H   H1272     1.0  0.84005  0.58039  0.72349  1.0000
  C   C1257     1.0  0.98029  0.52261  0.86106  1.0000
  H   H1273     1.0  0.88186  0.71905  0.02537  1.0000
  N   N107      1.0  0.95337  0.67302  0.70032  1.0000
  C   C1258     1.0  0.09988  0.73930  0.70092  1.0000
  S   S425      1.0  0.98969  0.65484  0.59181  1.0000
  C   C1259     1.0  0.94070  0.74104  0.00603  1.0000
  H   H1274     1.0  0.99810  0.67350  0.68018  1.0000
  H   H1275     1.0  0.07329  0.63649  0.63364  1.0000
  C   C1260     1.0  0.80881  0.67295  0.80646  1.0000
  C   C1261     1.0  0.90675  0.73151  0.82574  1.0000
  H   H1276     1.0  0.75093  0.60731  0.86189  1.0000
  Fe  Fe219     1.0  0.87888  0.54842  0.97549  1.0000
  C   C1262     1.0  0.79233  0.57898  0.63141  1.0000
  C   C1263     1.0  0.69056  0.55191  0.55353  1.0000
  C   C1264     1.0  0.06612  0.58541  0.84494  1.0000
  C   C1265     1.0  0.77776  0.56907  0.68618  1.0000
  C   C1266     1.0  0.08409  0.65947  0.73391  1.0000
  C   C1267     1.0  0.11001  0.65684  0.74389  1.0000
  C   C1268     1.0  0.85493  0.72041  0.87781  1.0000
  C   C1269     1.0  0.12914  0.66396  0.00499  1.0000
  Fe  Fe220     1.0  0.70819  0.62902  0.84973  1.0000
  C   C1270     1.0  0.92234  0.61080  0.97503  1.0000
  C   C1271     1.0  0.82594  0.63830  0.78601  1.0000
  C   C1272     1.0  0.98433  0.68600  0.67660  1.0000
  C   C1273     1.0  0.83217  0.66597  0.78326  1.0000
  S   S426      1.0  0.63804  0.56616  0.86289  1.0000
  C   C1274     1.0  0.96402  0.60337  0.58806  1.0000
  C   C1275     1.0  0.93942  0.65070  0.99968  1.0000
  H   H1277     1.0  0.13382  0.55397  0.84576  1.0000
  N   N108      1.0  0.84093  0.59085  0.64340  1.0000
  C   C1276     1.0  0.81624  0.64445  0.95357  1.0000
  C   C1277     1.0  0.77921  0.65211  0.83265  1.0000
  H   H1278     1.0  0.74929  0.69190  0.01350  1.0000
  H   H1279     1.0  0.10975  0.56337  0.74447  1.0000
  S   S427      1.0  0.03075  0.66659  0.75673  1.0000
  C   C1278     1.0  0.76164  0.54645  0.93006  1.0000
  H   H1280     1.0  0.93578  0.73077  0.66158  1.0000
  C   C1279     1.0  0.74522  0.67903  0.72170  1.0000
  H   H1281     1.0  0.66690  0.62996  0.97190  1.0000
  H   H1282     1.0  0.92740  0.59878  0.95232  1.0000
  S   S428      1.0  0.72665  0.56653  0.02623  1.0000
  S   S429      1.0  0.63702  0.70981  0.78180  1.0000
  C   C1280     1.0  0.97862  0.55898  0.68583  1.0000
  H   H1283     1.0  0.90283  0.67073  0.92482  1.0000
  H   H1284     1.0  0.81339  0.69484  0.80119  1.0000
  H   H1285     1.0  0.73967  0.54724  0.94486  1.0000
  H   H1286     1.0  0.94226  0.63151  0.70187  1.0000
  H   H1287     1.0  0.95940  0.53894  0.69877  1.0000
  C   C1281     1.0  0.06178  0.66095  0.77217  1.0000
  C   C1282     1.0  0.82896  0.65815  0.98299  1.0000
  C   C1283     1.0  0.89224  0.60453  0.00342  1.0000
  H   H1288     1.0  0.70770  0.66557  0.64009  1.0000
  H   H1289     1.0  0.88496  0.61315  0.64331  1.0000
  N   N109      1.0  0.02713  0.61119  0.64939  1.0000
  S   S430      1.0  0.74890  0.66220  0.84963  1.0000
  C   C1284     1.0  0.64310  0.64250  0.02801  1.0000
  S   S431      1.0  0.68088  0.59078  0.92601  1.0000
  H   H1290     1.0  0.04700  0.65312  0.64732  1.0000
  C   C1285     1.0  0.83510  0.64033  0.91427  1.0000
  Fe  Fe221     1.0  0.03686  0.75231  0.79645  1.0000
  C   C1286     1.0  0.93908  0.64192  0.73001  1.0000
  S   S432      1.0  0.84024  0.73512  0.96146  1.0000
  C   C1287     1.0  0.88543  0.64502  0.86354  1.0000
  C   C1288     1.0  0.11696  0.63133  0.96185  1.0000
  H   H1291     1.0  0.04776  0.65968  0.85136  1.0000
  C   C1289     1.0  0.81733  0.54458  0.88901  1.0000
  H   H1292     1.0  0.74326  0.51159  0.90956  1.0000
  C   C1290     1.0  0.78758  0.56474  0.93300  1.0000
  H   H1293     1.0  0.93833  0.52528  0.85396  1.0000
  H   H1294     1.0  0.10294  0.58818  0.87523  1.0000
  C   C1291     1.0  0.67774  0.72654  0.82889  1.0000
  S   S433      1.0  0.86743  0.70938  0.65180  1.0000
  C   C1292     1.0  0.11343  0.65475  0.79284  1.0000
  S   S434      1.0  0.99128  0.74428  0.84972  1.0000
  H   H1295     1.0  0.05398  0.59158  0.87339  1.0000
  H   H1296     1.0  0.91424  0.63429  0.75089  1.0000
  C   C1293     1.0  0.93598  0.68878  0.69510  1.0000
  C   C1294     1.0  0.87547  0.71919  0.83619  1.0000
  N   N110      1.0  0.10936  0.57592  0.80962  1.0000
  H   H1297     1.0  0.78208  0.72222  0.84309  1.0000
  C   C1295     1.0  0.07041  0.57222  0.76999  1.0000
  S   S435      1.0  0.96837  0.68071  0.84812  1.0000
  N   N111      1.0  0.78938  0.75429  0.87416  1.0000
  H   H1298     1.0  0.67315  0.52442  0.72531  1.0000
  H   H1299     1.0  0.79192  0.59544  0.81809  1.0000
  C   C1296     1.0  0.00255  0.60328  0.69333  1.0000
  Fe  Fe222     1.0  0.97243  0.72418  0.79910  1.0000
  S   S436      1.0  0.97856  0.53493  0.91211  1.0000
  H   H1300     1.0  0.63891  0.63899  0.73730  1.0000
  S   S437      1.0  0.69904  0.53145  0.88110  1.0000
  C   C1297     1.0  0.97784  0.57707  0.71211  1.0000
  S   S438      1.0  0.71152  0.60340  0.80137  1.0000
  H   H1301     1.0  0.12970  0.74951  0.80676  1.0000
  C   C1298     1.0  0.05242  0.63915  0.62808  1.0000
  H   H1302     1.0  0.76283  0.67482  0.73618  1.0000
  S   S439      1.0  0.83953  0.52958  0.63640  1.0000
  C   C1299     1.0  0.71084  0.70302  0.71734  1.0000
  C   C1300     1.0  0.70168  0.69169  0.68242  1.0000
  H   H1303     1.0  0.06129  0.56746  0.74055  1.0000
  C   C1301     1.0  0.71479  0.67425  0.66748  1.0000
  C   C1302     1.0  0.02838  0.59311  0.62465  1.0000
  S   S440      1.0  0.06405  0.54150  0.65332  1.0000
  C   C1303     1.0  0.94959  0.71829  0.66520  1.0000
  C   C1304     1.0  0.82414  0.58988  0.61052  1.0000
  C   C1305     1.0  0.00422  0.56679  0.64239  1.0000
  H   H1304     1.0  0.94372  0.56304  0.58363  1.0000
  C   C1306     1.0  0.88584  0.61987  0.03342  1.0000
  H   H1305     1.0  0.80922  0.51518  0.82490  1.0000
  C   C1307     1.0  0.99864  0.71544  0.64617  1.0000
  H   H1306     1.0  0.08801  0.71221  0.65957  1.0000
  H   H1307     1.0  0.00996  0.53384  0.99111  1.0000
  H   H1308     1.0  0.76278  0.64284  0.69526  1.0000
  H   H1309     1.0  0.94435  0.59959  0.62004  1.0000
  H   H1310     1.0  0.93397  0.72309  0.99487  1.0000
  C   C1308     1.0  0.89707  0.74834  0.89585  1.0000
  S   S441      1.0  0.80074  0.72350  0.61367  1.0000
  H   H1311     1.0  0.66599  0.70501  0.85949  1.0000
  H   H1312     1.0  0.67328  0.54280  0.79622  1.0000
  S   S442      1.0  0.66843  0.63548  0.82923  1.0000
  C   C1309     1.0  0.68712  0.52070  0.74944  1.0000
  H   H1313     1.0  0.02271  0.51773  0.85747  1.0000
  Fe  Fe223     1.0  0.87590  0.51409  0.90719  1.0000
  H   H1314     1.0  0.87036  0.67822  0.99523  1.0000
  S   S443      1.0  0.02929  0.50972  0.58863  1.0000
  S   S444      1.0  0.84278  0.50929  0.98159  1.0000
  C   C1310     1.0  0.63715  0.63848  0.69991  1.0000
  C   C1311     1.0  0.04483  0.51778  0.97904  1.0000
  C   C1312     1.0  0.10459  0.75670  0.60832  1.0000
  H   H1315     1.0  0.99185  0.75447  0.61602  1.0000
  H   H1316     1.0  0.10274  0.75285  0.57333  1.0000
  H   H1317     1.0  0.78749  0.51647  0.58800  1.0000
  C   C1313     1.0  0.66242  0.63002  0.01137  1.0000
  C   C1314     1.0  0.77074  0.73753  0.96959  1.0000
  Fe  Fe224     1.0  0.90425  0.72248  0.57531  1.0000
  C   C1315     1.0  0.64592  0.62097  0.63081  1.0000
  H   H1318     1.0  0.98855  0.75353  0.96536  1.0000
  H   H1319     1.0  0.08354  0.75763  0.85002  1.0000
  N   N112      1.0  0.91932  0.74675  0.03616  1.0000
  C   C1316     1.0  0.11648  0.54733  0.28781  1.0000
  C   C1317     1.0  0.78221  0.58850  0.12773  1.0000
  H   H1320     1.0  0.65040  0.55630  0.26106  1.0000
  H   H1321     1.0  0.68852  0.58678  0.12448  1.0000
  C   C1318     1.0  0.68286  0.55636  0.50771  1.0000
  H   H1322     1.0  0.86248  0.61462  0.05616  1.0000
  S   S445      1.0  0.92732  0.54025  0.43286  1.0000
  C   C1319     1.0  0.72030  0.53098  0.25046  1.0000
  H   H1323     1.0  0.93951  0.57092  0.15274  1.0000
  H   H1324     1.0  0.74351  0.62834  0.45351  1.0000
  H   H1325     1.0  0.93706  0.66914  0.34146  1.0000
  H   H1326     1.0  0.75669  0.53670  0.08457  1.0000
  N   N113      1.0  0.66955  0.61708  0.09621  1.0000
  S   S446      1.0  0.78553  0.51776  0.27342  1.0000
  Fe  Fe225     1.0  0.07987  0.73406  0.43369  1.0000
  S   S447      1.0  0.74500  0.69569  0.11550  1.0000
  Fe  Fe226     1.0  0.78569  0.62470  0.19903  1.0000
  H   H1327     1.0  0.08988  0.64821  0.47753  1.0000
  H   H1328     1.0  0.07389  0.59953  0.09313  1.0000
  Fe  Fe227     1.0  0.99360  0.52144  0.19810  1.0000
  C   C1320     1.0  0.67182  0.60300  0.38014  1.0000
  C   C1321     1.0  0.95706  0.70091  0.44059  1.0000
  C   C1322     1.0  0.11805  0.71181  0.35496  1.0000
  C   C1323     1.0  0.76741  0.63355  0.43431  1.0000
  C   C1324     1.0  0.95273  0.64306  0.39456  1.0000
  H   H1329     1.0  0.85372  0.60498  0.20586  1.0000
  C   C1325     1.0  0.75392  0.60110  0.07011  1.0000
  H   H1330     1.0  0.82409  0.72266  0.16175  1.0000
  H   H1331     1.0  0.74490  0.61580  0.05036  1.0000
  C   C1326     1.0  0.98902  0.58765  0.52586  1.0000
  C   C1327     1.0  0.65344  0.60249  0.42638  1.0000
  C   C1328     1.0  0.63702  0.64207  0.07916  1.0000
  C   C1329     1.0  0.10386  0.64384  0.50114  1.0000
  C   C1330     1.0  0.76317  0.74807  0.18388  1.0000
  C   C1331     1.0  0.87192  0.55423  0.13155  1.0000
  H   H1332     1.0  0.90175  0.53118  0.29991  1.0000
  H   H1333     1.0  0.02586  0.66080  0.38971  1.0000
  S   S448      1.0  0.88918  0.59436  0.38122  1.0000
  Fe  Fe228     1.0  0.93813  0.54658  0.50230  1.0000
  C   C1332     1.0  0.10403  0.61659  0.52040  1.0000
  S   S449      1.0  0.76349  0.67745  0.24808  1.0000
  H   H1334     1.0  0.98834  0.70813  0.29127  1.0000
  C   C1333     1.0  0.06685  0.51616  0.43150  1.0000
  S   S450      1.0  0.90979  0.57205  0.50991  1.0000
  C   C1334     1.0  0.04155  0.53105  0.37008  1.0000
  H   H1335     1.0  0.70260  0.56044  0.26765  1.0000
  H   H1336     1.0  0.91408  0.55123  0.09749  1.0000
  H   H1337     1.0  0.03159  0.52777  0.34057  1.0000
  C   C1335     1.0  0.66216  0.66200  0.22868  1.0000
  C   C1336     1.0  0.11002  0.67305  0.30666  1.0000
  C   C1337     1.0  0.96373  0.72393  0.39323  1.0000
  C   C1338     1.0  0.64345  0.53367  0.28796  1.0000
  H   H1338     1.0  0.78668  0.54842  0.14019  1.0000
  N   N114      1.0  0.87146  0.57478  0.19617  1.0000
  C   C1339     1.0  0.90771  0.51484  0.32356  1.0000
  C   C1340     1.0  0.86075  0.65465  0.35551  1.0000
  C   C1341     1.0  0.83728  0.58234  0.45913  1.0000
  H   H1339     1.0  0.05883  0.70355  0.31470  1.0000
  H   H1340     1.0  0.83256  0.56922  0.25618  1.0000
  C   C1342     1.0  0.77769  0.56321  0.12046  1.0000
  H   H1341     1.0  0.05472  0.57504  0.43273  1.0000
  H   H1342     1.0  0.91214  0.58632  0.21494  1.0000
  C   C1343     1.0  0.84105  0.74066  0.16210  1.0000
  C   C1344     1.0  0.70635  0.68603  0.14779  1.0000
  S   S451      1.0  0.71025  0.61004  0.37178  1.0000
  H   H1343     1.0  0.12231  0.55036  0.13839  1.0000
  H   H1344     1.0  0.03476  0.61650  0.47392  1.0000
  S   S452      1.0  0.10499  0.64896  0.27637  1.0000
  S   S453      1.0  0.06562  0.72254  0.52139  1.0000
  S   S454      1.0  0.12367  0.73612  0.38474  1.0000
  S   S455      1.0  0.80127  0.59563  0.17039  1.0000
  C   C1345     1.0  0.09923  0.53310  0.26299  1.0000
  Fe  Fe229     1.0  0.80856  0.67397  0.23000  1.0000
  Fe  Fe230     1.0  0.70994  0.51893  0.05223  1.0000
  C   C1346     1.0  0.97783  0.64069  0.40802  1.0000
  C   C1347     1.0  0.67565  0.61740  0.04609  1.0000
  H   H1345     1.0  0.84418  0.51699  0.27236  1.0000
  S   S456      1.0  0.87322  0.72105  0.52789  1.0000
  C   C1348     1.0  0.85585  0.58550  0.23070  1.0000
  H   H1346     1.0  0.02852  0.57327  0.31953  1.0000
  H   H1347     1.0  0.69016  0.57781  0.47853  1.0000
  H   H1348     1.0  0.06906  0.64628  0.37455  1.0000
  H   H1349     1.0  0.66017  0.53647  0.46360  1.0000
  H   H1350     1.0  0.07759  0.54261  0.47421  1.0000
  C   C1349     1.0  0.65062  0.62928  0.11286  1.0000
  H   H1351     1.0  0.88018  0.71099  0.09388  1.0000
  H   H1352     1.0  0.83801  0.68135  0.40836  1.0000
  H   H1353     1.0  0.11842  0.56863  0.28339  1.0000
  H   H1354     1.0  0.12018  0.53136  0.06858  1.0000
  C   C1350     1.0  0.12176  0.66542  0.51242  1.0000
  H   H1355     1.0  0.69893  0.70759  0.07627  1.0000
  C   C1351     1.0  0.90066  0.57740  0.19155  1.0000
  C   C1352     1.0  0.80583  0.56819  0.48645  1.0000
  Fe  Fe231     1.0  0.02319  0.74381  0.42471  1.0000
  H   H1356     1.0  0.74380  0.54427  0.24237  1.0000
  C   C1353     1.0  0.01520  0.63371  0.52574  1.0000
  H   H1357     1.0  0.07615  0.68070  0.41724  1.0000
  C   C1354     1.0  0.95660  0.66716  0.35172  1.0000
  S   S457      1.0  0.84694  0.70226  0.24433  1.0000
  C   C1355     1.0  0.82057  0.66344  0.40798  1.0000
  Fe  Fe232     1.0  0.74336  0.62982  0.28859  1.0000
  C   C1356     1.0  0.76058  0.55651  0.08914  1.0000
  C   C1357     1.0  0.01503  0.61288  0.50564  1.0000
  C   C1358     1.0  0.85699  0.56316  0.16707  1.0000
  C   C1359     1.0  0.06743  0.53911  0.44514  1.0000
  H   H1358     1.0  0.89416  0.70505  0.37966  1.0000
  S   S458      1.0  0.78872  0.62676  0.27563  1.0000
  S   S459      1.0  0.99498  0.52048  0.11857  1.0000
  H   H1359     1.0  0.00657  0.56778  0.38544  1.0000
  H   H1360     1.0  0.74773  0.72679  0.19178  1.0000
  C   C1360     1.0  0.09240  0.68604  0.37918  1.0000
  H   H1361     1.0  0.64372  0.66478  0.39199  1.0000
  H   H1362     1.0  0.87156  0.64874  0.38575  1.0000
  C   C1361     1.0  0.84991  0.58227  0.40947  1.0000
  S   S460      1.0  0.85608  0.52215  0.50120  1.0000
  H   H1363     1.0  0.70682  0.62175  0.12403  1.0000
  H   H1364     1.0  0.87258  0.67784  0.32956  1.0000
  C   C1362     1.0  0.79979  0.55457  0.41385  1.0000
  H   H1365     1.0  0.70625  0.66189  0.22523  1.0000
  C   C1363     1.0  0.77580  0.61701  0.40915  1.0000
  S   S461      1.0  0.08160  0.58999  0.50583  1.0000
  H   H1366     1.0  0.04475  0.71737  0.26327  1.0000
  N   N115      1.0  0.82851  0.64749  0.38228  1.0000
  Fe  Fe233     1.0  0.89627  0.56248  0.44496  1.0000
  H   H1367     1.0  0.08789  0.54343  0.23952  1.0000
  H   H1368     1.0  0.67322  0.59734  0.30719  1.0000
  H   H1369     1.0  0.10315  0.64695  0.08850  1.0000
  C   C1364     1.0  0.80660  0.62449  0.38287  1.0000
  H   H1370     1.0  0.84095  0.56746  0.34949  1.0000
  C   C1365     1.0  0.65790  0.68776  0.14503  1.0000
  C   C1366     1.0  0.10752  0.64256  0.05327  1.0000
  H   H1371     1.0  0.66312  0.60749  0.45495  1.0000
  H   H1372     1.0  0.77393  0.62710  0.10826  1.0000
  S   S462      1.0  0.95664  0.53342  0.23439  1.0000
  H   H1373     1.0  0.04428  0.59590  0.35010  1.0000
  H   H1374     1.0  0.85195  0.59245  0.47725  1.0000
  H   H1375     1.0  0.03533  0.65318  0.51020  1.0000
  C   C1367     1.0  0.65907  0.59695  0.34300  1.0000
  Fe  Fe234     1.0  0.04576  0.54171  0.09514  1.0000
  H   H1376     1.0  0.64427  0.69404  0.12233  1.0000
  C   C1368     1.0  0.13076  0.53369  0.31903  1.0000
  H   H1377     1.0  0.92275  0.66218  0.50353  1.0000
  S   S463      1.0  0.86733  0.65939  0.48542  1.0000
  H   H1378     1.0  0.64558  0.62880  0.15280  1.0000
  H   H1379     1.0  0.64103  0.51697  0.08171  1.0000
  S   S464      1.0  0.00408  0.73332  0.51190  1.0000
  C   C1369     1.0  0.68467  0.60501  0.13124  1.0000
  H   H1380     1.0  0.97391  0.70010  0.45927  1.0000
  C   C1370     1.0  0.85589  0.73684  0.19916  1.0000
  N   N116      1.0  0.01021  0.68643  0.33655  1.0000
  H   H1381     1.0  0.94658  0.74240  0.33286  1.0000
  Fe  Fe235     1.0  0.76194  0.67105  0.17363  1.0000
  H   H1382     1.0  0.63872  0.53187  0.32962  1.0000
  C   C1371     1.0  0.74871  0.57541  0.06400  1.0000
  Fe  Fe236     1.0  0.01941  0.69731  0.52487  1.0000
  C   C1372     1.0  0.09081  0.61558  0.05593  1.0000
  H   H1383     1.0  0.13031  0.59013  0.38041  1.0000
  H   H1384     1.0  0.97499  0.62202  0.44141  1.0000
  H   H1385     1.0  0.75859  0.59866  0.40933  1.0000
  H   H1386     1.0  0.86035  0.54543  0.10809  1.0000
  H   H1387     1.0  0.83370  0.56072  0.17125  1.0000
  H   H1388     1.0  0.12189  0.68668  0.49680  1.0000
  C   C1373     1.0  0.91630  0.56871  0.15637  1.0000
  C   C1374     1.0  0.04019  0.71000  0.30685  1.0000
  H   H1389     1.0  0.86384  0.64305  0.32955  1.0000
  C   C1375     1.0  0.69696  0.54009  0.26431  1.0000
  H   H1390     1.0  0.90448  0.65571  0.05278  1.0000
  C   C1376     1.0  0.78992  0.65686  0.43409  1.0000
  C   C1377     1.0  0.66597  0.53310  0.49956  1.0000
  C   C1378     1.0  0.94147  0.72459  0.36961  1.0000
  S   S465      1.0  0.98679  0.56340  0.49622  1.0000
  C   C1379     1.0  0.68879  0.69511  0.11885  1.0000
  C   C1380     1.0  0.00660  0.66270  0.37840  1.0000
  C   C1381     1.0  0.08851  0.66652  0.35525  1.0000
  C   C1382     1.0  0.98564  0.68894  0.32332  1.0000
  C   C1383     1.0  0.05481  0.55759  0.42102  1.0000
  H   H1391     1.0  0.93020  0.62644  0.41761  1.0000
  C   C1384     1.0  0.77031  0.60746  0.10273  1.0000
  S   S466      1.0  0.72379  0.52570  0.38328  1.0000
  C   C1385     1.0  0.91192  0.70319  0.39563  1.0000
  S   S467      1.0  0.03476  0.70558  0.43836  1.0000
  H   H1392     1.0  0.04105  0.72817  0.31840  1.0000
  H   H1393     1.0  0.78375  0.66976  0.45391  1.0000
  C   C1386     1.0  0.90505  0.68084  0.44440  1.0000
  H   H1394     1.0  0.65198  0.64919  0.27116  1.0000
  C   C1387     1.0  0.78722  0.55376  0.46423  1.0000
  C   C1388     1.0  0.92787  0.67933  0.46588  1.0000
  C   C1389     1.0  0.69295  0.66919  0.20256  1.0000
  H   H1395     1.0  0.81282  0.61196  0.36234  1.0000
  H   H1396     1.0  0.78550  0.54421  0.39573  1.0000
  C   C1390     1.0  0.05359  0.51190  0.39405  1.0000
  S   S468      1.0  0.73830  0.62335  0.21560  1.0000
  C   C1391     1.0  0.83118  0.56849  0.38679  1.0000
  C   C1392     1.0  0.64469  0.67163  0.20015  1.0000
  H   H1397     1.0  0.77529  0.73438  0.25366  1.0000
  C   C1393     1.0  0.90191  0.55739  0.12575  1.0000
  H   H1398     1.0  0.67036  0.59660  0.17377  1.0000
  H   H1399     1.0  0.86821  0.59081  0.25723  1.0000
  S   S469      1.0  0.04419  0.54550  0.17294  1.0000
  H   H1400     1.0  0.79614  0.56749  0.52545  1.0000
  S   S470      1.0  0.74870  0.53293  0.50062  1.0000
  N   N117      1.0  0.04269  0.55377  0.38317  1.0000
  S   S471      1.0  0.80898  0.67170  0.15148  1.0000
  C   C1394     1.0  0.02980  0.57358  0.35831  1.0000
  N   N118      1.0  0.66742  0.52350  0.27383  1.0000
  C   C1395     1.0  0.93381  0.51112  0.30107  1.0000
  S   S472      1.0  0.99908  0.75272  0.36624  1.0000
  H   H1401     1.0  0.64355  0.55672  0.10886  1.0000
  C   C1396     1.0  0.77882  0.75249  0.21857  1.0000
  C   C1397     1.0  0.13408  0.55360  0.05755  1.0000
  H   H1402     1.0  0.69500  0.75549  0.09583  1.0000
  C   C1398     1.0  0.88694  0.72840  0.05409  1.0000
  H   H1403     1.0  0.87257  0.74081  0.05708  1.0000
  H   H1404     1.0  0.88860  0.75774  0.22909  1.0000
  C   C1399     1.0  0.13524  0.56426  0.09670  1.0000
  H   H1405     1.0  0.94209  0.75720  0.44649  1.0000
  H   H1406     1.0  0.89296  0.80142  0.64425  1.0000
  N   N119      1.0  0.79512  0.92570  0.86171  1.0000
  H   H1407     1.0  0.70273  0.78118  0.90822  1.0000
  C   C1400     1.0  0.09777  0.82820  0.81284  1.0000
  C   C1401     1.0  0.82594  0.91706  0.91553  1.0000
  H   H1408     1.0  0.03701  0.80367  0.69886  1.0000
  S   S473      1.0  0.09585  0.89904  0.02020  1.0000
  C   C1402     1.0  0.00076  0.86100  0.88760  1.0000
  Fe  Fe237     1.0  0.94320  0.97236  0.91410  1.0000
  H   H1409     1.0  0.89656  0.76786  0.60225  1.0000
  Fe  Fe238     1.0  0.01887  0.94460  0.60098  1.0000
  C   C1403     1.0  0.81235  0.92793  0.94852  1.0000
  H   H1410     1.0  0.13522  0.90961  0.80626  1.0000
  Fe  Fe239     1.0  0.86658  0.82092  0.01039  1.0000
  Fe  Fe240     1.0  0.06485  0.86578  0.00283  1.0000
  C   C1404     1.0  0.67861  0.94776  0.98062  1.0000
  C   C1405     1.0  0.75651  0.85750  0.94078  1.0000
  S   S474      1.0  0.95459  0.86379  0.84772  1.0000
  S   S475      1.0  0.97211  0.95153  0.94817  1.0000
  N   N120      1.0  0.01833  0.99613  0.75530  1.0000
  C   C1406     1.0  0.12857  0.91089  0.77171  1.0000
  H   H1411     1.0  0.66766  0.78711  0.83645  1.0000
  N   N121      1.0  0.05826  0.94113  0.90642  1.0000
  S   S476      1.0  0.86259  0.92718  0.71835  1.0000
  H   H1412     1.0  0.95975  0.86379  0.01922  1.0000
  S   S477      1.0  0.91464  0.95687  0.86920  1.0000
  C   C1407     1.0  0.08844  0.80111  0.81211  1.0000
  S   S478      1.0  0.71125  0.96161  0.87705  1.0000
  C   C1408     1.0  0.07211  0.83383  0.56288  1.0000
  H   H1413     1.0  0.74174  0.99964  0.54483  1.0000
  H   H1414     1.0  0.84560  0.97029  0.56553  1.0000
  C   C1409     1.0  0.91909  0.91158  0.58648  1.0000
  H   H1415     1.0  0.77879  0.94544  0.96397  1.0000
  S   S479      1.0  0.77931  0.84725  0.64823  1.0000
  C   C1410     1.0  0.04081  0.93490  0.96112  1.0000
  H   H1416     1.0  0.81882  0.92855  0.98269  1.0000
  Fe  Fe241     1.0  0.85525  0.77999  0.95498  1.0000
  H   H1417     1.0  0.67595  0.76911  0.71223  1.0000
  H   H1418     1.0  0.76607  0.93043  0.67387  1.0000
  H   H1419     1.0  0.01687  0.91958  0.97396  1.0000
  C   C1411     1.0  0.71814  0.77370  0.79330  1.0000
  C   C1412     1.0  0.68583  0.81088  0.98130  1.0000
  H   H1420     1.0  0.76044  0.97155  0.69019  1.0000
  S   S480      1.0  0.09735  0.87982  0.92084  1.0000
  C   C1413     1.0  0.86762  0.96324  0.69492  1.0000
  C   C1414     1.0  0.78153  0.93621  0.89408  1.0000
  S   S481      1.0  0.76246  0.91338  0.58672  1.0000
  Fe  Fe242     1.0  0.77724  0.83969  0.73190  1.0000
  H   H1421     1.0  0.70687  0.90668  0.55512  1.0000
  S   S482      1.0  0.01584  0.85997  0.02453  1.0000
  C   C1415     1.0  0.75367  0.83320  0.55367  1.0000
  C   C1416     1.0  0.97257  0.86336  0.89554  1.0000
  H   H1422     1.0  0.03347  0.95516  0.67859  1.0000
  H   H1423     1.0  0.71036  0.86486  0.66528  1.0000
  C   C1417     1.0  0.91706  0.78327  0.60068  1.0000
  C   C1418     1.0  0.12939  0.81929  0.64415  1.0000
  C   C1419     1.0  0.68877  0.88637  0.56567  1.0000
  S   S483      1.0  0.89588  0.80337  0.97031  1.0000
  H   H1424     1.0  0.03736  0.83017  0.75739  1.0000
  Fe  Fe243     1.0  0.64078  0.77166  0.60119  1.0000
  H   H1425     1.0  0.79705  0.77385  0.79118  1.0000
  S   S484      1.0  0.94840  0.75989  0.54709  1.0000
  H   H1426     1.0  0.88264  0.96095  0.79638  1.0000
  H   H1427     1.0  0.11005  0.82608  0.64925  1.0000
  C   C1420     1.0  0.81817  0.75911  0.60446  1.0000
  C   C1421     1.0  0.86333  0.99115  0.55332  1.0000
  S   S485      1.0  0.05822  0.00689  0.86553  1.0000
  C   C1422     1.0  0.63646  0.98883  0.95198  1.0000
  H   H1428     1.0  0.01204  0.85982  0.85132  1.0000
  C   C1423     1.0  0.98537  0.94725  0.81280  1.0000
  C   C1424     1.0  0.98076  0.78106  0.00403  1.0000
  C   C1425     1.0  0.86010  0.80562  0.55666  1.0000
  H   H1429     1.0  0.72503  0.87512  0.96736  1.0000
  C   C1426     1.0  0.92952  0.92412  0.67088  1.0000
  C   C1427     1.0  0.93778  0.81871  0.78213  1.0000
  C   C1428     1.0  0.68852  0.86013  0.69314  1.0000
  C   C1429     1.0  0.95798  0.86434  0.94317  1.0000
  C   C1430     1.0  0.75116  0.86844  0.01887  1.0000
  H   H1430     1.0  0.89186  0.98984  0.92001  1.0000
  H   H1431     1.0  0.71641  0.81926  0.88577  1.0000
  C   C1431     1.0  0.75141  0.98872  0.61791  1.0000
  S   S486      1.0  0.06327  0.93965  0.59386  1.0000
  H   H1432     1.0  0.93216  0.81198  0.82585  1.0000
  C   C1432     1.0  0.84690  0.77676  0.56562  1.0000
  H   H1433     1.0  0.04050  0.95495  0.96419  1.0000
  H   H1434     1.0  0.64606  0.89308  0.73840  1.0000
  C   C1433     1.0  0.97138  0.86304  0.98252  1.0000
  C   C1434     1.0  0.68109  0.88226  0.69973  1.0000
  H   H1435     1.0  0.97953  0.92791  0.84747  1.0000
  H   H1436     1.0  0.00471  0.79469  0.99114  1.0000
  H   H1437     1.0  0.07230  0.82253  0.60198  1.0000
  H   H1438     1.0  0.93328  0.92919  0.70385  1.0000
  Fe  Fe244     1.0  0.78417  0.89150  0.63861  1.0000
  H   H1439     1.0  0.10541  0.95821  0.76246  1.0000
  H   H1440     1.0  0.03575  0.85742  0.92096  1.0000
  C   C1435     1.0  0.75690  0.94153  0.60033  1.0000
  C   C1436     1.0  0.97383  0.97289  0.73808  1.0000
  S   S487      1.0  0.65972  0.88203  0.94104  1.0000
  C   C1437     1.0  0.81664  0.79879  0.62737  1.0000
  C   C1438     1.0  0.07491  0.98248  0.67938  1.0000
  C   C1439     1.0  0.93782  0.93926  0.57681  1.0000
  Fe  Fe245     1.0  0.95897  0.96525  0.01438  1.0000
  C   C1440     1.0  0.84730  0.99831  0.84428  1.0000
  H   H1441     1.0  0.95706  0.96721  0.61242  1.0000
  C   C1441     1.0  0.77375  0.85884  0.02876  1.0000
  C   C1442     1.0  0.10561  0.96552  0.83313  1.0000
  H   H1442     1.0  0.94613  0.92910  0.79353  1.0000
  H   H1443     1.0  0.79926  0.91653  0.79225  1.0000
  H   H1444     1.0  0.64572  0.98672  0.98510  1.0000
  H   H1445     1.0  0.11604  0.85362  0.85298  1.0000
  Fe  Fe246     1.0  0.82896  0.89775  0.69699  1.0000
  H   H1446     1.0  0.72242  0.77953  0.62603  1.0000
  C   C1443     1.0  0.99993  0.99696  0.72515  1.0000
  S   S488      1.0  0.00611  0.91981  0.55247  1.0000
  S   S489      1.0  0.12821  0.81645  0.93676  1.0000
  S   S490      1.0  0.65022  0.90763  0.60821  1.0000
  C   C1444     1.0  0.84491  0.81672  0.58728  1.0000
  C   C1445     1.0  0.94153  0.82371  0.61957  1.0000
  C   C1446     1.0  0.78995  0.93751  0.93790  1.0000
  H   H1447     1.0  0.99406  0.80671  0.54995  1.0000
  H   H1448     1.0  0.83091  0.77997  0.80963  1.0000
  S   S491      1.0  0.77807  0.88288  0.72464  1.0000
  C   C1447     1.0  0.88218  0.98865  0.88960  1.0000
  H   H1449     1.0  0.11380  0.77164  0.73037  1.0000
  H   H1450     1.0  0.80512  0.80694  0.65212  1.0000
  C   C1448     1.0  0.84456  0.97167  0.68353  1.0000
  H   H1451     1.0  0.93626  0.86619  0.94992  1.0000
  C   C1449     1.0  0.01686  0.82124  0.74910  1.0000
  H   H1452     1.0  0.05125  0.92503  0.98888  1.0000
  C   C1450     1.0  0.96996  0.82555  0.59171  1.0000
  Fe  Fe247     1.0  0.11522  0.84826  0.96163  1.0000
  N   N122      1.0  0.70249  0.79570  0.97027  1.0000
  C   C1451     1.0  0.78587  0.92476  0.81597  1.0000
  S   S492      1.0  0.83503  0.90895  0.61082  1.0000
  C   C1452     1.0  0.70857  0.78211  0.74963  1.0000
  C   C1453     1.0  0.99032  0.79541  0.70539  1.0000
  C   C1454     1.0  0.09772  0.90025  0.77758  1.0000
  H   H1453     1.0  0.12096  0.80217  0.56754  1.0000
  C   C1455     1.0  0.01419  0.85956  0.92721  1.0000
  C   C1456     1.0  0.73548  0.78118  0.58671  1.0000
  H   H1454     1.0  0.89622  0.97386  0.57081  1.0000
  N   N123      1.0  0.91190  0.89687  0.67982  1.0000
  C   C1457     1.0  0.71600  0.79959  0.91525  1.0000
  H   H1455     1.0  0.67072  0.96605  0.54857  1.0000
  S   S493      1.0  0.93876  0.84671  0.65132  1.0000
  Fe  Fe248     1.0  0.65496  0.86863  0.87434  1.0000
  Fe  Fe249     1.0  0.12978  0.91072  0.94128  1.0000
  C   C1458     1.0  0.66710  0.83199  0.72132  1.0000
  C   C1459     1.0  0.05028  0.97670  0.66173  1.0000
  H   H1456     1.0  0.09942  0.96786  0.90919  1.0000
  C   C1460     1.0  0.11208  0.81042  0.88981  1.0000
  S   S494      1.0  0.92725  0.98287  0.98350  1.0000
  H   H1457     1.0  0.74001  0.80174  0.90657  1.0000
  H   H1458     1.0  0.12950  0.97959  0.81658  1.0000
  H   H1459     1.0  0.84344  0.90960  0.92331  1.0000
  N   N124      1.0  0.63947  0.82600  0.75639  1.0000
  C   C1461     1.0  0.10307  0.78337  0.88873  1.0000
  C   C1462     1.0  0.99956  0.86081  0.97459  1.0000
  H   H1460     1.0  0.89198  0.86905  0.64543  1.0000
  S   S495      1.0  0.99267  0.90677  0.67904  1.0000
  Fe  Fe250     1.0  0.98399  0.88138  0.63031  1.0000
  Fe  Fe251     1.0  0.67134  0.92608  0.88167  1.0000
  H   H1461     1.0  0.95934  0.97382  0.71417  1.0000
  H   H1462     1.0  0.94238  0.84175  0.76357  1.0000
  H   H1463     1.0  0.82341  0.95596  0.68733  1.0000
  C   C1463     1.0  0.67554  0.98695  0.54928  1.0000
  H   H1464     1.0  0.99050  0.84220  0.58663  1.0000
  H   H1465     1.0  0.80692  0.84339  0.99953  1.0000
  H   H1466     1.0  0.81279  0.99135  0.54078  1.0000
  H   H1467     1.0  0.10439  0.91614  0.64767  1.0000
  C   C1464     1.0  0.08847  0.95871  0.88555  1.0000
  S   S496      1.0  0.87730  0.85915  0.93675  1.0000
  Fe  Fe252     1.0  0.83791  0.83056  0.92474  1.0000
  H   H1468     1.0  0.76141  0.91053  0.82997  1.0000
  C   C1465     1.0  0.89858  0.87465  0.73429  1.0000
  H   H1469     1.0  0.83091  0.00701  0.65944  1.0000
  C   C1466     1.0  0.09084  0.77861  0.85028  1.0000
  C   C1467     1.0  0.90600  0.89063  0.63860  1.0000
  C   C1468     1.0  0.89502  0.98377  0.68934  1.0000
  S   S497      1.0  0.80010  0.84014  0.90209  1.0000
  Fe  Fe253     1.0  0.90497  0.84042  0.89601  1.0000
  S   S498      1.0  0.82454  0.79379  0.00229  1.0000
  C   C1469     1.0  0.84870  0.00051  0.66825  1.0000
  Fe  Fe254     1.0  0.00923  0.99528  0.90658  1.0000
  C   C1470     1.0  0.10892  0.83268  0.85250  1.0000
  H   H1470     1.0  0.05014  0.92626  0.80074  1.0000
  H   H1471     1.0  0.69699  0.90425  0.67659  1.0000
  C   C1471     1.0  0.89003  0.97425  0.85852  1.0000
  C   C1472     1.0  0.76066  0.94536  0.64579  1.0000
  C   C1473     1.0  0.74219  0.86729  0.97544  1.0000
  S   S499      1.0  0.86666  0.81539  0.87646  1.0000
  H   H1472     1.0  0.74457  0.76419  0.59452  1.0000
  C   C1474     1.0  0.11118  0.76756  0.69598  1.0000
  C   C1475     1.0  0.81699  0.91607  0.87200  1.0000
  C   C1476     1.0  0.04441  0.92995  0.87624  1.0000
  H   H1473     1.0  0.02037  0.91646  0.89235  1.0000
  C   C1477     1.0  0.96660  0.94786  0.78214  1.0000
  C   C1478     1.0  0.01668  0.80640  0.71624  1.0000
  H   H1474     1.0  0.82775  0.90760  0.84653  1.0000
  C   C1479     1.0  0.91506  0.80264  0.62369  1.0000
  C   C1480     1.0  0.09191  0.95369  0.80257  1.0000
  C   C1481     1.0  0.74712  0.98462  0.57296  1.0000
  C   C1482     1.0  0.65075  0.78167  0.87402  1.0000
  C   C1483     1.0  0.85590  0.98474  0.81220  1.0000
  C   C1484     1.0  0.80303  0.77015  0.63530  1.0000
  H   H1475     1.0  0.94395  0.79062  0.71925  1.0000
  C   C1485     1.0  0.06104  0.93580  0.82408  1.0000
  C   C1486     1.0  0.78821  0.84915  0.99380  1.0000
  C   C1487     1.0  0.67146  0.83970  0.56291  1.0000
  H   H1476     1.0  0.91529  0.87680  0.75538  1.0000
  H   H1477     1.0  0.79444  0.78168  0.91550  1.0000
  S   S500      1.0  0.05008  0.89002  0.74202  1.0000
  C   C1488     1.0  0.77982  0.84882  0.94947  1.0000
  C   C1489     1.0  0.75742  0.96868  0.65504  1.0000
  C   C1490     1.0  0.86062  0.00048  0.88279  1.0000
  H   H1478     1.0  0.75564  0.98128  0.92350  1.0000
  C   C1491     1.0  0.87710  0.97261  0.81952  1.0000
  H   H1479     1.0  0.76410  0.94373  0.88612  1.0000
  H   H1480     1.0  0.08058  0.89043  0.81688  1.0000
  H   H1481     1.0  0.07715  0.96509  0.70796  1.0000
  C   C1492     1.0  0.74945  0.96083  0.56454  1.0000
  H   H1482     1.0  0.89191  0.85295  0.73429  1.0000
  H   H1483     1.0  0.02540  0.97150  0.82334  1.0000
  S   S501      1.0  0.82768  0.85380  0.71174  1.0000
  C   C1493     1.0  0.64803  0.80329  0.88993  1.0000
  H   H1484     1.0  0.84548  0.98284  0.78271  1.0000
  N   N125      1.0  0.67690  0.99076  0.59474  1.0000
  Fe  Fe255     1.0  0.03655  0.90081  0.66976  1.0000
  H   H1485     1.0  0.09589  0.84559  0.78328  1.0000
  H   H1486     1.0  0.75028  0.97863  0.01490  1.0000
  H   H1487     1.0  0.75049  0.85793  0.90586  1.0000
  C   C1494     1.0  0.96441  0.79943  0.72765  1.0000
  C   C1495     1.0  0.73025  0.97049  0.00507  1.0000
  C   C1496     1.0  0.65889  0.88096  0.59390  1.0000
  C   C1497     1.0  0.99062  0.82510  0.77029  1.0000
  C   C1498     1.0  0.01116  0.97183  0.79896  1.0000
  H   H1488     1.0  0.87815  0.87654  0.75675  1.0000
  H   H1489     1.0  0.78958  0.94659  0.78930  1.0000
  S   S502      1.0  0.86033  0.85338  0.57246  1.0000
  S   S503      1.0  0.67254  0.83891  0.84987  1.0000
  H   H1490     1.0  0.99114  0.83730  0.79469  1.0000
  S   S504      1.0  0.07409  0.79565  0.76306  1.0000
  C   C1499     1.0  0.67094  0.96614  0.64307  1.0000
  N   N126      1.0  0.96480  0.81408  0.75970  1.0000
  H   H1491     1.0  0.67262  0.81502  0.71474  1.0000
  H   H1492     1.0  0.80629  0.79833  0.82161  1.0000
  C   C1500     1.0  0.04818  0.99816  0.62103  1.0000
  S   S505      1.0  0.74887  0.79730  0.80067  1.0000
  C   C1501     1.0  0.08895  0.90247  0.73287  1.0000
  S   S506      1.0  0.66993  0.91307  0.81374  1.0000
  H   H1493     1.0  0.68288  0.95280  0.63329  1.0000
  C   C1502     1.0  0.73326  0.97185  0.95348  1.0000
  C   C1503     1.0  0.70745  0.96033  0.94130  1.0000
  H   H1494     1.0  0.91280  0.97732  0.69837  1.0000
  H   H1495     1.0  0.98983  0.78382  0.67995  1.0000
  H   H1496     1.0  0.91496  0.90604  0.55402  1.0000
  H   H1497     1.0  0.91763  0.80642  0.77492  1.0000
  C   C1504     1.0  0.11521  0.78464  0.60511  1.0000
  H   H1498     1.0  0.72025  0.80364  0.71939  1.0000
  C   C1505     1.0  0.11113  0.91461  0.68221  1.0000
  N   N127      1.0  0.11870  0.78980  0.64844  1.0000
  C   C1506     1.0  0.69503  0.86581  0.54967  1.0000
  C   C1507     1.0  0.67555  0.94776  0.03136  1.0000
  H   H1499     1.0  0.65869  0.93820  0.97178  1.0000
  H   H1500     1.0  0.68334  0.82666  0.94937  1.0000
  S   S507      1.0  0.02102  0.98827  0.59166  1.0000
  Fe  Fe256     1.0  0.82978  0.86396  0.62753  1.0000
  S   S508      1.0  0.02551  0.87204  0.62807  1.0000
  H   H1501     1.0  0.67929  0.97282  0.67264  1.0000
  H   H1502     1.0  0.09399  0.99963  0.01473  1.0000
  C   C1508     1.0  0.65257  0.87601  0.73454  1.0000
  C   C1509     1.0  0.94278  0.94571  0.61932  1.0000
  C   C1510     1.0  0.80688  0.77776  0.82154  1.0000
  H   H1503     1.0  0.65113  0.98540  0.92050  1.0000
  H   H1504     1.0  0.64610  0.95271  0.66183  1.0000
  C   C1511     1.0  0.70587  0.77601  0.01063  1.0000
  C   C1512     1.0  0.94549  0.78430  0.57509  1.0000
  C   C1513     1.0  0.64173  0.83430  0.59155  1.0000
  H   H1505     1.0  0.71884  0.76384  0.00174  1.0000
  C   C1514     1.0  0.89200  0.99307  0.55606  1.0000
  C   C1515     1.0  0.07726  0.86273  0.54549  1.0000
  S   S509      1.0  0.99848  0.00767  0.97495  1.0000
  H   H1506     1.0  0.08171  0.87366  0.57108  1.0000
  H   H1507     1.0  0.90552  0.75982  0.91859  1.0000
  H   H1508     1.0  0.77824  0.99567  0.76831  1.0000
  C   C1516     1.0  0.67210  0.80659  0.03388  1.0000
  C   C1517     1.0  0.78553  0.75988  0.91888  1.0000
  H   H1509     1.0  0.10486  0.76597  0.91839  1.0000
  H   H1510     1.0  0.73111  0.83069  0.57515  1.0000
  C   C1518     1.0  0.97197  0.80553  0.57047  1.0000
  N   N128      1.0  0.75989  0.80971  0.55608  1.0000
  S   S510      1.0  0.05992  0.78334  0.55427  1.0000
  C   C1519     1.0  0.68335  0.76271  0.74591  1.0000
  S   S511      1.0  0.67883  0.81353  0.54439  1.0000
  Fe  Fe257     1.0  0.04839  0.91165  0.55221  1.0000
  H   H1511     1.0  0.71969  0.77720  0.56440  1.0000
  H   H1512     1.0  0.11947  0.92223  0.54147  1.0000
  H   H1513     1.0  0.85869  0.76833  0.54176  1.0000
  C   C1520     1.0  0.95885  0.78618  0.03602  1.0000
  C   C1521     1.0  0.97170  0.75819  0.98926  1.0000
  H   H1514     1.0  0.94864  0.95561  0.53647  1.0000
  C   C1522     1.0  0.13434  0.84561  0.36190  1.0000
  H   H1515     1.0  0.83588  0.77055  0.09735  1.0000
  C   C1523     1.0  0.69228  0.88932  0.36112  1.0000
  C   C1524     1.0  0.69913  0.93796  0.33591  1.0000
  S   S512      1.0  0.71730  0.88980  0.18759  1.0000
  Fe  Fe258     1.0  0.71142  0.84800  0.24721  1.0000
  S   S513      1.0  0.07775  0.91203  0.47835  1.0000
  H   H1516     1.0  0.67865  0.00678  0.46734  1.0000
  C   C1525     1.0  0.92808  0.76864  0.05202  1.0000
  H   H1517     1.0  0.69852  0.95705  0.30874  1.0000
  H   H1518     1.0  0.84324  0.89169  0.12129  1.0000
  Fe  Fe259     1.0  0.65435  0.96096  0.14548  1.0000
  C   C1526     1.0  0.91310  0.91302  0.13386  1.0000
  S   S514      1.0  0.74922  0.86837  0.27258  1.0000
  C   C1527     1.0  0.67563  0.78673  0.07526  1.0000
  H   H1519     1.0  0.65923  0.82841  0.12197  1.0000
  C   C1528     1.0  0.80313  0.80216  0.16388  1.0000
  S   S515      1.0  0.95074  0.93834  0.09909  1.0000
  H   H1520     1.0  0.82156  0.76487  0.26056  1.0000
  C   C1529     1.0  0.89054  0.91236  0.11057  1.0000
  H   H1521     1.0  0.86406  0.97224  0.19330  1.0000
  H   H1522     1.0  0.12163  0.96863  0.44765  1.0000
  H   H1523     1.0  0.81919  0.82337  0.15500  1.0000
  H   H1524     1.0  0.12155  0.79535  0.47636  1.0000
  C   C1530     1.0  0.66622  0.00142  0.29907  1.0000
  H   H1525     1.0  0.01782  0.96123  0.06324  1.0000
  H   H1526     1.0  0.80125  0.78612  0.27705  1.0000
  H   H1527     1.0  0.71803  0.87029  0.52691  1.0000
  H   H1528     1.0  0.02921  0.84305  0.40874  1.0000
  H   H1529     1.0  0.13543  0.79964  0.04385  1.0000
  C   C1531     1.0  0.13490  0.81832  0.44962  1.0000
  C   C1532     1.0  0.80342  0.00419  0.17455  1.0000
  C   C1533     1.0  0.64541  0.80842  0.25484  1.0000
  H   H1530     1.0  0.65872  0.81853  0.04244  1.0000
  C   C1534     1.0  0.64698  0.81664  0.16433  1.0000
  H   H1531     1.0  0.78118  0.86040  0.06159  1.0000
  C   C1535     1.0  0.98887  0.84768  0.44654  1.0000
  H   H1532     1.0  0.89630  0.92692  0.07001  1.0000
  N   N129      1.0  0.69198  0.91368  0.32667  1.0000
  C   C1536     1.0  0.07167  0.86324  0.46183  1.0000
  C   C1537     1.0  0.70138  0.95895  0.04372  1.0000
  C   C1538     1.0  0.70665  0.93830  0.38090  1.0000
  C   C1539     1.0  0.07495  0.99245  0.05227  1.0000
  C   C1540     1.0  0.94128  0.77661  0.41826  1.0000
  S   S516      1.0  0.12381  0.86240  0.12956  1.0000
  H   H1533     1.0  0.07126  0.87470  0.42300  1.0000
  H   H1534     1.0  0.85193  0.94723  0.13513  1.0000
  H   H1535     1.0  0.79204  0.81675  0.09327  1.0000
  C   C1541     1.0  0.68259  0.91382  0.28067  1.0000
  H   H1536     1.0  0.00111  0.86513  0.45555  1.0000
  H   H1537     1.0  0.07337  0.90236  0.12832  1.0000
  Fe  Fe260     1.0  0.11450  0.86690  0.05314  1.0000
  C   C1542     1.0  0.12622  0.97864  0.47472  1.0000
  H   H1538     1.0  0.66374  0.89785  0.18181  1.0000
  C   C1543     1.0  0.81541  0.78327  0.24415  1.0000
  C   C1544     1.0  0.80035  0.00697  0.07488  1.0000
  C   C1545     1.0  0.87712  0.76062  0.20028  1.0000
  C   C1546     1.0  0.06617  0.81941  0.53032  1.0000
  H   H1539     1.0  0.70064  0.93101  0.24334  1.0000
  C   C1547     1.0  0.06093  0.91515  0.11442  1.0000
  H   H1540     1.0  0.00086  0.80165  0.39300  1.0000
  H   H1541     1.0  0.95224  0.77932  0.37697  1.0000
  H   H1542     1.0  0.74623  0.95780  0.52958  1.0000
  C   C1548     1.0  0.86041  0.89246  0.13975  1.0000
  H   H1543     1.0  0.74560  0.00485  0.20220  1.0000
  H   H1544     1.0  0.02086  0.87889  0.12946  1.0000
  C   C1549     1.0  0.07622  0.87727  0.49565  1.0000
  C   C1550     1.0  0.77650  0.86072  0.52482  1.0000
  H   H1545     1.0  0.73279  0.99008  0.15821  1.0000
  S   S517      1.0  0.78996  0.90519  0.14374  1.0000
  H   H1546     1.0  0.86000  0.97534  0.04096  1.0000
  H   H1547     1.0  0.65333  0.93803  0.06166  1.0000
  Fe  Fe261     1.0  0.05136  0.75940  0.50317  1.0000
  H   H1548     1.0  0.82395  0.88520  0.47718  1.0000
  C   C1551     1.0  0.95715  0.83677  0.46287  1.0000
  C   C1552     1.0  0.03148  0.90199  0.11527  1.0000
  H   H1549     1.0  0.89914  0.80677  0.16559  1.0000
  C   C1553     1.0  0.64581  0.88519  0.17222  1.0000
  H   H1550     1.0  0.12827  0.86015  0.37723  1.0000
  C   C1554     1.0  0.78836  0.81283  0.52897  1.0000
  H   H1551     1.0  0.99282  0.90866  0.09805  1.0000
  H   H1552     1.0  0.06215  0.82289  0.45405  1.0000
  H   H1553     1.0  0.91711  0.77315  0.42414  1.0000
  C   C1555     1.0  0.80580  0.86406  0.49834  1.0000
  C   C1556     1.0  0.73362  0.00719  0.17288  1.0000
  S   S518      1.0  0.66350  0.81716  0.29839  1.0000
  C   C1557     1.0  0.07468  0.94498  0.09393  1.0000
  C   C1558     1.0  0.78597  0.98070  0.11953  1.0000
  H   H1554     1.0  0.68637  0.87002  0.35392  1.0000
  C   C1559     1.0  0.94171  0.81345  0.45298  1.0000
  C   C1560     1.0  0.87563  0.87324  0.21468  1.0000
  S   S519      1.0  0.65976  0.00079  0.15844  1.0000
  C   C1561     1.0  0.88307  0.78823  0.16453  1.0000
  C   C1562     1.0  0.78720  0.97947  0.16949  1.0000
  H   H1555     1.0  0.91704  0.80428  0.46787  1.0000
  S   S520      1.0  0.08059  0.83233  0.04266  1.0000
  C   C1563     1.0  0.98853  0.81186  0.41162  1.0000
  C   C1564     1.0  0.90558  0.89338  0.18589  1.0000
  S   S521      1.0  0.74118  0.83835  0.18893  1.0000
  S   S522      1.0  0.81539  0.84813  0.22972  1.0000
  H   H1556     1.0  0.05948  0.00327  0.04302  1.0000
  H   H1557     1.0  0.65816  0.80715  0.41781  1.0000
  N   N130      1.0  0.95749  0.80156  0.42710  1.0000
  H   H1558     1.0  0.67526  0.89451  0.09421  1.0000
  H   H1559     1.0  0.71016  0.00382  0.19406  1.0000
  H   H1560     1.0  0.09778  0.95508  0.09257  1.0000
  C   C1565     1.0  0.66098  0.82253  0.19993  1.0000
  H   H1561     1.0  0.80431  0.00327  0.21315  1.0000
  C   C1566     1.0  0.69259  0.77128  0.06373  1.0000
  H   H1562     1.0  0.92294  0.89369  0.20394  1.0000
  C   C1567     1.0  0.78788  0.79852  0.12848  1.0000
  H   H1563     1.0  0.08464  0.99959  0.08029  1.0000
  C   C1568     1.0  0.03021  0.94849  0.07736  1.0000
  H   H1564     1.0  0.96560  0.80363  0.04844  1.0000
  H   H1565     1.0  0.66481  0.78296  0.11629  1.0000
  H   H1566     1.0  0.12312  0.83078  0.46341  1.0000
  Fe  Fe262     1.0  0.75760  0.90948  0.20750  1.0000
  C   C1569     1.0  0.06636  0.83408  0.47939  1.0000
  C   C1570     1.0  0.70680  0.91356  0.41650  1.0000
  H   H1567     1.0  0.71226  0.91355  0.45177  1.0000
  H   H1568     1.0  0.77297  0.96165  0.11571  1.0000
  H   H1569     1.0  0.77167  0.87926  0.52427  1.0000
  H   H1570     1.0  0.94454  0.84546  0.48519  1.0000
  C   C1571     1.0  0.86827  0.79176  0.12716  1.0000
  C   C1572     1.0  0.76795  0.77128  0.13836  1.0000
  H   H1571     1.0  0.66126  0.91754  0.28580  1.0000
  H   H1572     1.0  0.67824  0.89321  0.27663  1.0000
  H   H1573     1.0  0.91125  0.77285  0.07683  1.0000
  H   H1574     1.0  0.68381  0.83845  0.18428  1.0000
  C   C1573     1.0  0.84765  0.76796  0.12555  1.0000
  C   C1574     1.0  0.86559  0.98640  0.06607  1.0000
  H   H1575     1.0  0.71191  0.95750  0.38841  1.0000
  H   H1576     1.0  0.83461  0.84239  0.48033  1.0000
  H   H1577     1.0  0.79339  0.79427  0.53066  1.0000
  C   C1575     1.0  0.68253  0.99830  0.33399  1.0000
  C   C1576     1.0  0.69967  0.88888  0.40663  1.0000
  S   S523      1.0  0.73637  0.88501  0.05629  1.0000
  Fe  Fe263     1.0  0.74837  0.88106  0.12993  1.0000
  H   H1578     1.0  0.67290  0.97953  0.37096  1.0000
  H   H1579     1.0  0.86997  0.85810  0.25488  1.0000
  S   S524      1.0  0.87473  0.82562  0.08270  1.0000
  S   S525      1.0  0.69784  0.95840  0.10745  1.0000
  C   C1577     1.0  0.00467  0.83518  0.42069  1.0000
  H   H1580     1.0  0.75640  0.76809  0.11066  1.0000
  H   H1581     1.0  0.64043  0.82768  0.48015  1.0000
  S   S526      1.0  0.76692  0.94784  0.22683  1.0000
  N   N131      1.0  0.05937  0.96123  0.07550  1.0000
  N   N132      1.0  0.79895  0.77920  0.20770  1.0000
  S   S527      1.0  0.06943  0.77327  0.41463  1.0000
  C   C1578     1.0  0.86090  0.97039  0.11925  1.0000
  C   C1579     1.0  0.11995  0.00287  0.47077  1.0000
  C   C1580     1.0  0.81176  0.84002  0.50001  1.0000
  H   H1582     1.0  0.69957  0.86950  0.43430  1.0000
  C   C1581     1.0  0.86781  0.98445  0.15191  1.0000
  H   H1583     1.0  0.83706  0.80266  0.22307  1.0000
  C   C1582     1.0  0.65212  0.88373  0.12262  1.0000
  Fe  Fe264     1.0  0.77987  0.86292  0.20823  1.0000
  C   C1583     1.0  0.01586  0.91870  0.09716  1.0000
  S   S528      1.0  0.63781  0.93883  0.48069  1.0000
  C   C1584     1.0  0.85292  0.87300  0.19198  1.0000
  H   H1584     1.0  0.88205  0.81938  0.52600  1.0000
