data_image0
_chemical_formula_structural       FeSHFeS2FeSFeCS2H2C4H3C2HC6H4CH3NC5H4SCH3CH2C2H3C2HNS2HCFeS2FeSNFeSFeCS2HC8H5CHC2H3CHC2H3C2H3C2NCH3CHC2H2CHSHC4HNH2CH2CSHCHSHC2HCFeS2FeSCFeSFeHS2CHC7H3CSH2CSCSHC4H4NCNC2SCHCH2CH6CH2CHC2HC4H2NCHCHC2HCHC4FeSNFeS2FeSFeCS2H2C4HC2H2C7H2CH3CHC2H2C3HSCH2C2HC3HCH3CH2SC2HCH2NHC2H3CSFeS2FeCFeSHSFeHFeS2FeCFeS2H2CSHCHCH2C7H4NHC5FeH5SH2C3SCH3NCHCHNCH2C2HSCHC2H2FeSHFeS2FeHFeHS2C2FeS2FeSFeSFeCHCH2CH3C7SC3NCHCH4CH3SCH2C2HCSH3SHNH2C2H3CS2H3NFeSHFeS2FeHFeCS2C2FeS2Fe2NSC2HCH2CH3C7H3SH3NHC3NSHC2HCSC2SFeH3C2HC3HSHSH2NH2C2H3C3H3C4HCH5CFeSHFeS2FeHFeSCSFeHFeS2CFe2SH3C2HNHCHC7H3CH2SHCSHCHSNC3H3CSHCHC2H3C3HC2HCS3HC2FeSNFeS2FeSFeS3C4H2CHC4H2C7H7CNCHCH6C2H3C2NHCSHC2H6CH2C2HCSCSFeS2FeSCFeSFeHS2C2HC2HC2H2SHC9H4NC5H5NH2CH3C2H2C2H4C5S2C3H2FeS2FeSHFeSFeCS2HCH6CHCHCSHC6H5C2HC2H5SNC6H3C3HCHC2H2C2HCHFeSCFeS2FeSFeS3CH5C4HC2HC7H5C2H4C3HCH2NC2HNCH4NC2H2CH3C2H3CH3C2H2NCSH2
_chemical_formula_sum              "Fe64 S128 H384 C384 N32"
_cell_length_a       33.9462
_cell_length_b       31.1215
_cell_length_c       31.0895
_cell_angle_alpha    89.555
_cell_angle_beta     89.629
_cell_angle_gamma    90.282

_space_group_name_H-M_alt    "P 1"
_space_group_IT_number       1

loop_
  _space_group_symop_operation_xyz
  'x, y, z'

loop_
  _atom_site_type_symbol
  _atom_site_label
  _atom_site_symmetry_multiplicity
  _atom_site_fract_x
  _atom_site_fract_y
  _atom_site_fract_z
  _atom_site_occupancy
  Fe  Fe1       1.0  0.05839  0.17855  0.10900  1.0000
  S   S1        1.0  0.06280  0.21282  0.04550  1.0000
  H   H1        1.0  0.04681  0.42823  0.05583  1.0000
  Fe  Fe2       1.0  0.12126  0.11287  0.08332  1.0000
  S   S2        1.0  0.13091  0.14297  0.01797  1.0000
  S   S3        1.0  0.14937  0.04976  0.10311  1.0000
  Fe  Fe3       1.0  0.12816  0.20549  0.05354  1.0000
  S   S4        1.0  0.16410  0.26584  0.04216  1.0000
  Fe  Fe4       1.0  0.06478  0.14713  0.01541  1.0000
  C   C1        1.0  0.25710  0.08032  0.15177  1.0000
  S   S5        1.0  0.12380  0.17519  0.11919  1.0000
  S   S6        1.0  0.05502  0.11307  0.07850  1.0000
  H   H2        1.0  0.21346  0.39397  0.09917  1.0000
  H   H3        1.0  0.06764  0.50242  0.07550  1.0000
  C   C2        1.0  0.21570  0.26118  0.03782  1.0000
  C   C3        1.0  0.23380  0.22109  0.03415  1.0000
  C   C4        1.0  0.27499  0.21854  0.02967  1.0000
  C   C5        1.0  0.29827  0.25595  0.02982  1.0000
  H   H4        1.0  0.09747  0.08694  0.16833  1.0000
  H   H5        1.0  0.03075  0.05321  0.99799  1.0000
  H   H6        1.0  0.21609  0.19208  0.03426  1.0000
  C   C6        1.0  0.23896  0.29857  0.03754  1.0000
  C   C7        1.0  0.08266  0.50824  0.37457  1.0000
  H   H7        1.0  0.22517  0.32972  0.03979  1.0000
  C   C8        1.0  0.19874  0.04741  0.12089  1.0000
  C   C9        1.0  0.21870  0.08397  0.13525  1.0000
  C   C10       1.0  0.04877  0.49729  0.04812  1.0000
  C   C11       1.0  0.30707  0.48007  0.09469  1.0000
  C   C12       1.0  0.29149  0.45368  0.12730  1.0000
  C   C13       1.0  0.25653  0.46556  0.14875  1.0000
  H   H8        1.0  0.29788  0.32498  0.03409  1.0000
  H   H9        1.0  0.27206  0.10859  0.16362  1.0000
  H   H10       1.0  0.30700  0.42487  0.13680  1.0000
  H   H11       1.0  0.24515  0.44562  0.17469  1.0000
  C   C14       1.0  0.11809  0.41798  0.12206  1.0000
  H   H12       1.0  0.20429  0.11489  0.13446  1.0000
  H   H13       1.0  0.09295  0.29778  0.16349  1.0000
  H   H14       1.0  0.04297  0.04286  0.45492  1.0000
  N   N1        1.0  0.12934  0.34198  0.12825  1.0000
  C   C15       1.0  0.27605  0.04030  0.15335  1.0000
  C   C16       1.0  0.03687  0.45539  0.03698  1.0000
  C   C17       1.0  0.16804  0.34798  0.11691  1.0000
  C   C18       1.0  0.28017  0.29596  0.03414  1.0000
  C   C19       1.0  0.10434  0.37627  0.13060  1.0000
  H   H15       1.0  0.07460  0.47490  0.38066  1.0000
  H   H16       1.0  0.07357  0.37144  0.13916  1.0000
  H   H17       1.0  0.08507  0.10815  0.22012  1.0000
  H   H18       1.0  0.02279  0.27571  0.11480  1.0000
  S   S7        1.0  0.32383  0.03670  0.17547  1.0000
  C   C20       1.0  0.18272  0.38923  0.10803  1.0000
  H   H19       1.0  0.28876  0.18750  0.02612  1.0000
  H   H20       1.0  0.13782  0.27534  0.14301  1.0000
  H   H21       1.0  0.16846  0.45648  0.10353  1.0000
  C   C21       1.0  0.04405  0.01744  0.47885  1.0000
  H   H22       1.0  0.09844  0.44525  0.12432  1.0000
  H   H23       1.0  0.09841  0.28716  0.10657  1.0000
  C   C22       1.0  0.11386  0.29848  0.13580  1.0000
  C   C23       1.0  0.15748  0.42435  0.11053  1.0000
  H   H24       1.0  0.18775  0.32076  0.11433  1.0000
  H   H25       1.0  0.32949  0.08775  0.08751  1.0000
  H   H26       1.0  0.05588  0.51028  0.31202  1.0000
  C   C24       1.0  0.23669  0.50347  0.13732  1.0000
  C   C25       1.0  0.07332  0.08980  0.19246  1.0000
  H   H27       1.0  0.04919  0.10862  0.17749  1.0000
  N   N2        1.0  0.05848  0.04772  0.20683  1.0000
  S   S8        1.0  0.35267  0.46922  0.06932  1.0000
  S   S9        1.0  0.34980  0.25209  0.02385  1.0000
  H   H28       1.0  0.02067  0.49983  0.47691  1.0000
  C   C26       1.0  0.02907  0.04591  0.23711  1.0000
  Fe  Fe5       1.0  0.11162  0.13462  0.67962  1.0000
  S   S10       1.0  0.10182  0.16610  0.61552  1.0000
  S   S11       1.0  0.07032  0.14479  0.73680  1.0000
  Fe  Fe6       1.0  0.18212  0.08336  0.64525  1.0000
  S   S12       1.0  0.17772  0.11203  0.57915  1.0000
  N   N3        1.0  0.05583  0.03492  0.81463  1.0000
  Fe  Fe7       1.0  0.16765  0.17435  0.61367  1.0000
  S   S13       1.0  0.19181  0.23763  0.58796  1.0000
  Fe  Fe8       1.0  0.11261  0.10088  0.58709  1.0000
  C   C27       1.0  0.11167  0.28063  0.94115  1.0000
  S   S14       1.0  0.17713  0.14670  0.67980  1.0000
  S   S15       1.0  0.11732  0.06830  0.65128  1.0000
  H   H29       1.0  0.03672  0.27853  0.87124  1.0000
  C   C28       1.0  0.02844  0.27997  0.77541  1.0000
  C   C29       1.0  0.23600  0.25994  0.60714  1.0000
  C   C30       1.0  0.25174  0.29671  0.58678  1.0000
  C   C31       1.0  0.28748  0.31474  0.60067  1.0000
  C   C32       1.0  0.30766  0.29586  0.63489  1.0000
  C   C33       1.0  0.29131  0.25990  0.65607  1.0000
  C   C34       1.0  0.25551  0.24203  0.64234  1.0000
  C   C35       1.0  0.10114  0.20848  0.91566  1.0000
  H   H30       1.0  0.23657  0.31079  0.55963  1.0000
  H   H31       1.0  0.24470  0.32876  0.71242  1.0000
  H   H32       1.0  0.30685  0.24517  0.68260  1.0000
  H   H33       1.0  0.24342  0.21395  0.65846  1.0000
  H   H34       1.0  0.31039  0.03263  0.53391  1.0000
  C   C36       1.0  0.06916  0.07753  0.82833  1.0000
  H   H35       1.0  0.14421  0.32105  0.63003  1.0000
  C   C37       1.0  0.16947  0.33882  0.64195  1.0000
  C   C38       1.0  0.34131  0.21108  0.58165  1.0000
  H   H36       1.0  0.05719  0.35112  0.88613  1.0000
  H   H37       1.0  0.29388  0.21288  0.53557  1.0000
  H   H38       1.0  0.22662  0.49984  0.56991  1.0000
  C   C39       1.0  0.07027  0.22345  0.89034  1.0000
  H   H39       1.0  0.30013  0.34212  0.58383  1.0000
  C   C40       1.0  0.06094  0.02554  0.51905  1.0000
  C   C41       1.0  0.04811  0.02817  0.77206  1.0000
  H   H40       1.0  0.09511  0.23067  0.70911  1.0000
  H   H41       1.0  0.10819  0.17450  0.91624  1.0000
  H   H42       1.0  0.28707  0.48361  0.61138  1.0000
  C   C42       1.0  0.27200  0.03171  0.58956  1.0000
  C   C43       1.0  0.27276  0.40384  0.68286  1.0000
  H   H43       1.0  0.26918  0.43938  0.68301  1.0000
  H   H44       1.0  0.09581  0.36161  0.92374  1.0000
  H   H45       1.0  0.18489  0.29016  0.68834  1.0000
  C   C44       1.0  0.18009  0.37827  0.62352  1.0000
  C   C45       1.0  0.07155  0.23393  0.73246  1.0000
  N   N4        1.0  0.23620  0.38225  0.67015  1.0000
  C   C46       1.0  0.21378  0.39967  0.63808  1.0000
  H   H46       1.0  0.28192  0.39417  0.71578  1.0000
  H   H47       1.0  0.22213  0.43004  0.62322  1.0000
  H   H48       1.0  0.16273  0.39183  0.59760  1.0000
  C   C47       1.0  0.05402  0.19713  0.75044  1.0000
  H   H49       1.0  0.07303  0.30326  0.73125  1.0000
  C   C48       1.0  0.05895  0.27507  0.74507  1.0000
  C   C49       1.0  0.28749  0.16014  0.58039  1.0000
  H   H50       1.0  0.14601  0.22585  0.96118  1.0000
  H   H51       1.0  0.28817  0.11224  0.63097  1.0000
  C   C50       1.0  0.22609  0.34347  0.68826  1.0000
  H   H52       1.0  0.05325  0.20117  0.87115  1.0000
  S   S16       1.0  0.07699  0.07835  0.52997  1.0000
  H   H53       1.0  0.29678  0.39535  0.66006  1.0000
  C   C51       1.0  0.19233  0.32146  0.67483  1.0000
  C   C52       1.0  0.30316  0.13976  0.61654  1.0000
  C   C53       1.0  0.12215  0.23721  0.94108  1.0000
  C   C54       1.0  0.06091  0.26716  0.89074  1.0000
  H   H54       1.0  0.26006  0.14887  0.56663  1.0000
  N   N5        1.0  0.08173  0.29516  0.91568  1.0000
  H   H55       1.0  0.04788  0.34485  0.94311  1.0000
  H   H56       1.0  0.04641  0.10191  0.82052  1.0000
  C   C55       1.0  0.07014  0.34042  0.91721  1.0000
  H   H57       1.0  0.25443  0.05839  0.57849  1.0000
  H   H58       1.0  0.09682  0.08661  0.81109  1.0000
  C   C56       1.0  0.33797  0.15562  0.63451  1.0000
  S   S17       1.0  0.22523  0.03074  0.66314  1.0000
  H   H59       1.0  0.07465  0.07889  0.86352  1.0000
  C   C57       1.0  0.26957  0.51132  0.61947  1.0000
  H   H60       1.0  0.05220  0.05400  0.74872  1.0000
  S   S18       1.0  0.03206  0.13556  0.95260  1.0000
  H   H61       1.0  0.12750  0.30248  0.96199  1.0000
  C   C58       1.0  0.30665  0.19596  0.56273  1.0000
  C   C59       1.0  0.02341  0.20198  0.78074  1.0000
  H   H62       1.0  0.34973  0.13989  0.66289  1.0000
  C   C60       1.0  0.30368  0.01697  0.56428  1.0000
  Fe  Fe9       1.0  0.09926  0.64175  0.18185  1.0000
  S   S19       1.0  0.09012  0.67180  0.11709  1.0000
  S   S20       1.0  0.06799  0.66163  0.24356  1.0000
  Fe  Fe10      1.0  0.15924  0.57761  0.14610  1.0000
  S   S21       1.0  0.15522  0.60387  0.07871  1.0000
  C   C61       1.0  0.27677  0.68652  0.04261  1.0000
  Fe  Fe11      1.0  0.15606  0.66875  0.11056  1.0000
  S   S22       1.0  0.18559  0.72818  0.08193  1.0000
  Fe  Fe12      1.0  0.08990  0.60432  0.09119  1.0000
  H   H63       1.0  0.06191  0.73701  0.18687  1.0000
  S   S23       1.0  0.16547  0.64250  0.17721  1.0000
  S   S24       1.0  0.09361  0.57428  0.15677  1.0000
  C   C62       1.0  0.03552  0.78676  0.22572  1.0000
  H   H64       1.0  0.07164  0.58735  0.30000  1.0000
  C   C63       1.0  0.22804  0.75222  0.10382  1.0000
  C   C64       1.0  0.24295  0.79022  0.08505  1.0000
  C   C65       1.0  0.27707  0.81002  0.10130  1.0000
  C   C66       1.0  0.29665  0.79154  0.13617  1.0000
  C   C67       1.0  0.28183  0.75342  0.15476  1.0000
  C   C68       1.0  0.24750  0.73394  0.13887  1.0000
  C   C69       1.0  0.30966  0.71257  0.05030  1.0000
  H   H65       1.0  0.28855  0.83909  0.08644  1.0000
  H   H66       1.0  0.29716  0.73873  0.18149  1.0000
  H   H67       1.0  0.23654  0.70442  0.15322  1.0000
  C   C70       1.0  0.03471  0.72557  0.29172  1.0000
  S   S25       1.0  0.04464  0.58609  0.04081  1.0000
  H   H68       1.0  0.25476  0.69622  0.01931  1.0000
  H   H69       1.0  0.03423  0.70210  0.31755  1.0000
  C   C71       1.0  0.25647  0.00395  0.13799  1.0000
  S   S26       1.0  0.19345  0.51817  0.16548  1.0000
  C   C72       1.0  0.10216  0.53189  0.40596  1.0000
  S   S27       1.0  0.04242  0.65316  0.44469  1.0000
  H   H70       1.0  0.27100  0.97313  0.13885  1.0000
  C   C73       1.0  0.05958  0.97053  0.20393  1.0000
  C   C74       1.0  0.05019  0.71447  0.25134  1.0000
  C   C75       1.0  0.03504  0.53265  0.02465  1.0000
  C   C76       1.0  0.11016  0.57550  0.39863  1.0000
  H   H71       1.0  0.23605  0.55769  0.09431  1.0000
  H   H72       1.0  0.16889  0.88059  0.10013  1.0000
  H   H73       1.0  0.10946  0.51705  0.43657  1.0000
  H   H74       1.0  0.20259  0.97918  0.11089  1.0000
  N   N6        1.0  0.09973  0.59476  0.36067  1.0000
  C   C77       1.0  0.17973  0.86335  0.12810  1.0000
  N   N7        1.0  0.17551  0.80292  0.17660  1.0000
  C   C78       1.0  0.16124  0.82537  0.14207  1.0000
  C   C79       1.0  0.20770  0.81771  0.19839  1.0000
  S   S28       1.0  0.34115  0.81280  0.15589  1.0000
  C   C80       1.0  0.22706  0.85540  0.18513  1.0000
  H   H75       1.0  0.22811  0.80435  0.05770  1.0000
  C   C81       1.0  0.15535  0.76367  0.19139  1.0000
  H   H76       1.0  0.13605  0.81331  0.12444  1.0000
  H   H77       1.0  0.21916  0.79984  0.22562  1.0000
  C   C82       1.0  0.10664  0.64086  0.35400  1.0000
  H   H78       1.0  0.25343  0.86623  0.20152  1.0000
  H   H79       1.0  0.24568  0.62884  0.06128  1.0000
  H   H80       1.0  0.13990  0.74754  0.16444  1.0000
  H   H81       1.0  0.17673  0.74000  0.20429  1.0000
  H   H82       1.0  0.13347  0.77146  0.21686  1.0000
  H   H83       1.0  0.22810  0.90712  0.13871  1.0000
  C   C83       1.0  0.21291  0.87829  0.14976  1.0000
  H   H84       1.0  0.07872  0.65853  0.35926  1.0000
  H   H85       1.0  0.12885  0.65371  0.37670  1.0000
  C   C84       1.0  0.05054  0.74527  0.21828  1.0000
  H   H86       1.0  0.29554  0.60786  0.11600  1.0000
  C   C85       1.0  0.02835  0.56769  0.46464  1.0000
  C   C86       1.0  0.27149  0.64879  0.06648  1.0000
  H   H87       1.0  0.12357  0.59412  0.42407  1.0000
  C   C87       1.0  0.25156  0.52899  0.10379  1.0000
  C   C88       1.0  0.21780  0.00745  0.12225  1.0000
  C   C89       1.0  0.29928  0.63724  0.09731  1.0000
  C   C90       1.0  0.28681  0.51758  0.08290  1.0000
  H   H88       1.0  0.11733  0.64744  0.32070  1.0000
  H   H89       1.0  0.07161  0.94123  0.19063  1.0000
  N   N8        1.0  0.33642  0.70139  0.08113  1.0000
  C   C91       1.0  0.08069  0.57178  0.32966  1.0000
  H   H90       1.0  0.31305  0.74232  0.03222  1.0000
  C   C92       1.0  0.07187  0.52821  0.33612  1.0000
  H   H91       1.0  0.29855  0.53788  0.05743  1.0000
  C   C93       1.0  0.33188  0.66397  0.10409  1.0000
  C   C94       1.0  0.02795  0.97697  0.46949  1.0000
  H   H92       1.0  0.03563  0.81029  0.19992  1.0000
  C   C95       1.0  0.07371  0.01072  0.19009  1.0000
  H   H93       1.0  0.09689  0.01208  0.16587  1.0000
  C   C96       1.0  0.01970  0.79771  0.26607  1.0000
  C   C97       1.0  0.01952  0.76686  0.29904  1.0000
  C   C98       1.0  0.02166  0.60168  0.43602  1.0000
  C   C99       1.0  0.02974  0.96837  0.23499  1.0000
  Fe  Fe13      1.0  0.07689  0.69794  0.59782  1.0000
  S   S29       1.0  0.07992  0.73202  0.53424  1.0000
  N   N9        1.0  0.16471  0.94735  0.56983  1.0000
  Fe  Fe14      1.0  0.13735  0.62982  0.56928  1.0000
  S   S30       1.0  0.14467  0.66033  0.50381  1.0000
  S   S31       1.0  0.16889  0.56578  0.57606  1.0000
  Fe  Fe15      1.0  0.14529  0.72241  0.53980  1.0000
  S   S32       1.0  0.18483  0.77954  0.52704  1.0000
  Fe  Fe16      1.0  0.07880  0.66622  0.50454  1.0000
  C   C100      1.0  0.31475  0.60715  0.57546  1.0000
  S   S33       1.0  0.14274  0.69198  0.60556  1.0000
  S   S34       1.0  0.07091  0.63227  0.56778  1.0000
  H   H94       1.0  0.13050  0.93581  0.51361  1.0000
  H   H95       1.0  0.33544  0.93523  0.62824  1.0000
  C   C101      1.0  0.23592  0.77037  0.52455  1.0000
  C   C102      1.0  0.26191  0.80503  0.52991  1.0000
  C   C103      1.0  0.30283  0.79874  0.52818  1.0000
  C   C104      1.0  0.31795  0.75785  0.52023  1.0000
  H   H96       1.0  0.27081  0.67388  0.59390  1.0000
  C   C105      1.0  0.25103  0.72937  0.51673  1.0000
  C   C106      1.0  0.03684  0.96210  0.83129  1.0000
  H   H97       1.0  0.32260  0.82563  0.53295  1.0000
  H   H98       1.0  0.28355  0.59968  0.57614  1.0000
  C   C107      1.0  0.14295  0.92229  0.54276  1.0000
  C   C108      1.0  0.21231  0.55668  0.60578  1.0000
  C   C109      1.0  0.22387  0.58356  0.63933  1.0000
  C   C110      1.0  0.25780  0.57380  0.66337  1.0000
  C   C111      1.0  0.06245  0.99241  0.54971  1.0000
  C   C112      1.0  0.31780  0.96198  0.61725  1.0000
  C   C113      1.0  0.28652  0.97719  0.64286  1.0000
  H   H99       1.0  0.20618  0.61122  0.64739  1.0000
  H   H100      1.0  0.26616  0.59422  0.68984  1.0000
  C   C114      1.0  0.01989  0.77198  0.66324  1.0000
  H   H101      1.0  0.28027  0.96190  0.67355  1.0000
  H   H102      1.0  0.30354  0.69165  0.50738  1.0000
  H   H103      1.0  0.04528  0.57298  0.49347  1.0000
  C   C115      1.0  0.02898  0.95489  0.78796  1.0000
  H   H104      1.0  0.20105  0.99564  0.54187  1.0000
  C   C116      1.0  0.30033  0.67633  0.60906  1.0000
  C   C117      1.0  0.17233  0.99256  0.55898  1.0000
  H   H105      1.0  0.33040  0.54507  0.55003  1.0000
  H   H106      1.0  0.19943  0.94942  0.62680  1.0000
  C   C118      1.0  0.15264  0.86093  0.58936  1.0000
  C   C119      1.0  0.18133  0.92987  0.60590  1.0000
  C   C120      1.0  0.03469  0.98804  0.75807  1.0000
  H   H107      1.0  0.11954  0.85873  0.53055  1.0000
  S   S35       1.0  0.03347  0.71849  0.65007  1.0000
  C   C121      1.0  0.03652  0.80808  0.64276  1.0000
  H   H108      1.0  0.14828  0.82704  0.59666  1.0000
  H   H109      1.0  0.18891  0.87262  0.64471  1.0000
  C   C122      1.0  0.17545  0.88648  0.61628  1.0000
  C   C123      1.0  0.04601  0.95185  0.54041  1.0000
  H   H110      1.0  0.23111  0.70258  0.51218  1.0000
  C   C124      1.0  0.29200  0.72327  0.51395  1.0000
  C   C125      1.0  0.02337  0.84978  0.65329  1.0000
  C   C126      1.0  0.32681  0.98215  0.57803  1.0000
  H   H111      1.0  0.14873  0.00621  0.53837  1.0000
  C   C127      1.0  0.28075  0.53764  0.65357  1.0000
  H   H112      1.0  0.25040  0.83682  0.53581  1.0000
  H   H113      1.0  0.03159  0.93684  0.85499  1.0000
  H   H114      1.0  0.04623  0.92667  0.56461  1.0000
  C   C128      1.0  0.26369  0.01227  0.62931  1.0000
  H   H115      1.0  0.05934  0.80385  0.61873  1.0000
  H   H116      1.0  0.17342  0.01233  0.58856  1.0000
  S   S36       1.0  0.32298  0.52632  0.68464  1.0000
  C   C129      1.0  0.05066  0.00242  0.84411  1.0000
  C   C130      1.0  0.13641  0.87879  0.55223  1.0000
  H   H117      1.0  0.03635  0.87744  0.63726  1.0000
  C   C131      1.0  0.34111  0.57622  0.56038  1.0000
  H   H118      1.0  0.07512  0.99841  0.58095  1.0000
  H   H119      1.0  0.29712  0.66933  0.64400  1.0000
  N   N10       1.0  0.32812  0.64601  0.58976  1.0000
  H   H120      1.0  0.31056  0.71012  0.60457  1.0000
  C   C132      1.0  0.23532  0.52060  0.59599  1.0000
  C   C133      1.0  0.02821  0.94423  0.50045  1.0000
  H   H121      1.0  0.02838  0.98267  0.72435  1.0000
  H   H122      1.0  0.05632  0.00774  0.87797  1.0000
  H   H123      1.0  0.56816  0.06479  0.08075  1.0000
  C   C134      1.0  0.59448  0.28873  0.01410  1.0000
  S   S37       1.0  0.52662  0.15102  0.99974  1.0000
  Fe  Fe17      1.0  0.59734  0.12715  0.25778  1.0000
  S   S38       1.0  0.59126  0.16228  0.31995  1.0000
  S   S39       1.0  0.55491  0.13670  0.20191  1.0000
  Fe  Fe18      1.0  0.65675  0.17299  0.31416  1.0000
  C   C135      1.0  0.50789  0.09901  0.01246  1.0000
  Fe  Fe19      1.0  0.60613  0.09927  0.35206  1.0000
  S   S40       1.0  0.57347  0.07532  0.41184  1.0000
  H   H124      1.0  0.45861  0.07578  0.43032  1.0000
  S   S41       1.0  0.60734  0.06293  0.29019  1.0000
  Fe  Fe20      1.0  0.38508  0.40545  0.06802  1.0000
  H   H125      1.0  0.64917  0.01994  0.42526  1.0000
  Fe  Fe21      1.0  0.44468  0.34086  0.10498  1.0000
  S   S42       1.0  0.44980  0.30595  0.04270  1.0000
  S   S43       1.0  0.48068  0.32117  0.16336  1.0000
  Fe  Fe22      1.0  0.45096  0.37124  0.01093  1.0000
  C   C136      1.0  0.39919  0.11593  0.14717  1.0000
  Fe  Fe23      1.0  0.38389  0.31186  0.04113  1.0000
  S   S44       1.0  0.45138  0.40623  0.07358  1.0000
  S   S45       1.0  0.37827  0.34345  0.10555  1.0000
  H   H126      1.0  0.54591  0.38158  0.02758  1.0000
  H   H127      1.0  0.55760  0.21811  0.24784  1.0000
  C   C137      1.0  0.38462  0.19994  0.12177  1.0000
  S   S46       1.0  0.38539  0.37341  0.00331  1.0000
  H   H128      1.0  0.52761  0.28898  0.23242  1.0000
  C   C138      1.0  0.55861  0.35052  0.03518  1.0000
  H   H129      1.0  0.47881  0.24002  0.11540  1.0000
  C   C139      1.0  0.58893  0.27019  0.05482  1.0000
  H   H130      1.0  0.50822  0.16866  0.13129  1.0000
  H   H131      1.0  0.47531  0.12092  0.06782  1.0000
  C   C140      1.0  0.53480  0.18822  0.19095  1.0000
  C   C141      1.0  0.51240  0.19482  0.15354  1.0000
  C   C142      1.0  0.49559  0.23528  0.14450  1.0000
  C   C143      1.0  0.50065  0.26940  0.17311  1.0000
  C   C144      1.0  0.52322  0.26277  0.21026  1.0000
  C   C145      1.0  0.54032  0.22254  0.21907  1.0000
  C   C146      1.0  0.67686  0.35325  0.37645  1.0000
  H   H132      1.0  0.60033  0.23839  0.06188  1.0000
  H   H133      1.0  0.44964  0.04833  0.08799  1.0000
  H   H134      1.0  0.53647  0.35075  0.10052  1.0000
  H   H135      1.0  0.65096  0.35972  0.35721  1.0000
  N   N11       1.0  0.37781  0.12389  0.11080  1.0000
  H   H136      1.0  0.53802  0.08919  0.12136  1.0000
  C   C147      1.0  0.67939  0.31500  0.39991  1.0000
  C   C148      1.0  0.55634  0.02202  0.42001  1.0000
  C   C149      1.0  0.55299  0.33319  0.07642  1.0000
  C   C150      1.0  0.56849  0.29289  0.08628  1.0000
  C   C151      1.0  0.41433  0.14992  0.17137  1.0000
  Fe  Fe24      1.0  0.67187  0.08023  0.28963  1.0000
  H   H137      1.0  0.65567  0.29148  0.39855  1.0000
  H   H138      1.0  0.47747  0.46623  0.99658  1.0000
  H   H139      1.0  0.55164  0.04697  0.19868  1.0000
  H   H140      1.0  0.40439  0.08320  0.15785  1.0000
  H   H141      1.0  0.58926  0.07897  0.13176  1.0000
  S   S47       1.0  0.67137  0.11386  0.35322  1.0000
  H   H142      1.0  0.43180  0.14359  0.19983  1.0000
  H   H143      1.0  0.56455  0.27918  0.11819  1.0000
  C   C152      1.0  0.54697  0.01972  0.17779  1.0000
  C   C153      1.0  0.48290  0.09341  0.04843  1.0000
  C   C154      1.0  0.45284  0.04391  0.41785  1.0000
  S   S48       1.0  0.66215  0.14019  0.25037  1.0000
  C   C155      1.0  0.46817  0.05234  0.05985  1.0000
  H   H144      1.0  0.37145  0.09185  0.05108  1.0000
  H   H145      1.0  0.48484  0.05527  0.35869  1.0000
  H   H146      1.0  0.53481  0.03550  0.48383  1.0000
  N   N12       1.0  0.57980  0.32862  0.00490  1.0000
  C   C156      1.0  0.56242  0.06613  0.11597  1.0000
  H   H147      1.0  0.41819  0.21888  0.17717  1.0000
  C   C157      1.0  0.40678  0.19216  0.15862  1.0000
  H   H148      1.0  0.37860  0.23267  0.11150  1.0000
  N   N13       1.0  0.55180  0.02401  0.13422  1.0000
  C   C158      1.0  0.37027  0.16520  0.09812  1.0000
  H   H149      1.0  0.37287  0.05658  0.09695  1.0000
  H   H150      1.0  0.61073  0.27105  0.98996  1.0000
  C   C159      1.0  0.47786  0.01651  0.03499  1.0000
  C   C160      1.0  0.36220  0.08830  0.08527  1.0000
  H   H151      1.0  0.42037  0.02209  0.47406  1.0000
  S   S49       1.0  0.67794  0.24224  0.31448  1.0000
  C   C161      1.0  0.51762  0.06318  0.98778  1.0000
  H   H152      1.0  0.49870  0.51089  0.46578  1.0000
  C   C162      1.0  0.46753  0.03241  0.37753  1.0000
  C   C163      1.0  0.50257  0.02226  0.99892  1.0000
  H   H153      1.0  0.35294  0.17151  0.06959  1.0000
  H   H154      1.0  0.42451  0.21155  0.98814  1.0000
  Fe  Fe25      1.0  0.63249  0.12999  0.88301  1.0000
  S   S50       1.0  0.63431  0.15957  0.94890  1.0000
  H   H155      1.0  0.56479  0.33181  0.93899  1.0000
  Fe  Fe26      1.0  0.57379  0.19765  0.84999  1.0000
  S   S51       1.0  0.57115  0.23039  0.91359  1.0000
  S   S52       1.0  0.53742  0.22128  0.79329  1.0000
  Fe  Fe27      1.0  0.63691  0.22229  0.91292  1.0000
  H   H156      1.0  0.41353  0.18206  0.64395  1.0000
  Fe  Fe28      1.0  0.56847  0.16397  0.94318  1.0000
  H   H157      1.0  0.40656  0.23332  0.61810  1.0000
  S   S53       1.0  0.63999  0.19288  0.84734  1.0000
  S   S54       1.0  0.56605  0.13134  0.87918  1.0000
  C   C164      1.0  0.39182  0.20799  0.63798  1.0000
  C   C165      1.0  0.51147  0.51366  0.96108  1.0000
  Fe  Fe29      1.0  0.44151  0.42599  0.69559  1.0000
  S   S55       1.0  0.44450  0.38972  0.63377  1.0000
  S   S56       1.0  0.48487  0.41365  0.75022  1.0000
  Fe  Fe30      1.0  0.42934  0.45270  0.60147  1.0000
  S   S57       1.0  0.37688  0.41481  0.70619  1.0000
  Fe  Fe31      1.0  0.37920  0.38048  0.64305  1.0000
  S   S58       1.0  0.43125  0.49006  0.66271  1.0000
  Fe  Fe32      1.0  0.36649  0.47427  0.66644  1.0000
  C   C166      1.0  0.65808  0.32140  0.82362  1.0000
  H   H158      1.0  0.54715  0.30240  0.84032  1.0000
  C   C167      1.0  0.53389  0.44583  0.90835  1.0000
  H   H159      1.0  0.61628  0.34185  0.95043  1.0000
  H   H160      1.0  0.52539  0.37684  0.82300  1.0000
  C   C168      1.0  0.43537  0.31774  0.88389  1.0000
  H   H161      1.0  0.47339  0.33228  0.70592  1.0000
  H   H162      1.0  0.56767  0.49363  0.87271  1.0000
  H   H163      1.0  0.49529  0.25827  0.72294  1.0000
  C   C169      1.0  0.43451  0.22054  0.95606  1.0000
  C   C170      1.0  0.52333  0.27519  0.78247  1.0000
  C   C171      1.0  0.50205  0.28407  0.74488  1.0000
  C   C172      1.0  0.48947  0.32608  0.73521  1.0000
  C   C173      1.0  0.49815  0.35990  0.76297  1.0000
  C   C174      1.0  0.51886  0.35100  0.80106  1.0000
  C   C175      1.0  0.53134  0.30883  0.81088  1.0000
  S   S59       1.0  0.45776  0.47639  0.53908  1.0000
  C   C176      1.0  0.60927  0.43905  0.77954  1.0000
  C   C177      1.0  0.45978  0.24467  0.87448  1.0000
  C   C178      1.0  0.61347  0.36038  0.77768  1.0000
  N   N14       1.0  0.44089  0.27376  0.89996  1.0000
  C   C179      1.0  0.42772  0.26200  0.94006  1.0000
  H   H164      1.0  0.58042  0.38224  0.96136  1.0000
  C   C180      1.0  0.45446  0.19095  0.93054  1.0000
  H   H165      1.0  0.48269  0.18033  0.86912  1.0000
  H   H166      1.0  0.59091  0.36001  0.75307  1.0000
  H   H167      1.0  0.41994  0.33832  0.90770  1.0000
  H   H168      1.0  0.67037  0.29135  0.83525  1.0000
  C   C181      1.0  0.46706  0.20296  0.88936  1.0000
  H   H169      1.0  0.49778  0.50698  0.72997  1.0000
  H   H170      1.0  0.62795  0.45246  0.75312  1.0000
  H   H171      1.0  0.66577  0.42914  0.83787  1.0000
  S   S60       1.0  0.36388  0.43921  0.60379  1.0000
  C   C182      1.0  0.54816  0.48770  0.89975  1.0000
  H   H172      1.0  0.46934  0.25365  0.84240  1.0000
  H   H173      1.0  0.54269  0.41964  0.88783  1.0000
  C   C183      1.0  0.49719  0.47189  0.96963  1.0000
  C   C184      1.0  0.50842  0.43773  0.94340  1.0000
  H   H174      1.0  0.57858  0.43466  0.76783  1.0000
  C   C185      1.0  0.62899  0.32128  0.79212  1.0000
  S   S61       1.0  0.35550  0.31239  0.64868  1.0000
  H   H175      1.0  0.66834  0.02443  0.76058  1.0000
  H   H176      1.0  0.41804  0.31756  0.85371  1.0000
  H   H177      1.0  0.46023  0.15881  0.94271  1.0000
  S   S62       1.0  0.49177  0.38456  0.95398  1.0000
  H   H178      1.0  0.60821  0.46305  0.80582  1.0000
  N   N15       1.0  0.62591  0.39840  0.79492  1.0000
  H   H179      1.0  0.61822  0.29107  0.77927  1.0000
  H   H180      1.0  0.46451  0.33302  0.87733  1.0000
  C   C186      1.0  0.65503  0.39887  0.82517  1.0000
  C   C187      1.0  0.67138  0.36039  0.84014  1.0000
  H   H181      1.0  0.45241  0.50326  0.87167  1.0000
  H   H182      1.0  0.38349  0.22304  0.66904  1.0000
  H   H183      1.0  0.46899  0.48748  0.79604  1.0000
  C   C188      1.0  0.58562  0.34702  0.96178  1.0000
  S   S63       1.0  0.67364  0.28064  0.92882  1.0000
  S   S64       1.0  0.66472  0.06629  0.87672  1.0000
  H   H184      1.0  0.53684  0.06693  0.96008  1.0000
  H   H185      1.0  0.35510  0.24005  0.56881  1.0000
  H   H186      1.0  0.41186  0.28460  0.95997  1.0000
  N   N16       1.0  0.35656  0.19083  0.61703  1.0000
  Fe  Fe33      1.0  0.63544  0.63452  0.37653  1.0000
  S   S65       1.0  0.64477  0.66432  0.44145  1.0000
  H   H187      1.0  0.59820  0.88396  0.45828  1.0000
  Fe  Fe34      1.0  0.57415  0.70263  0.35021  1.0000
  S   S66       1.0  0.57931  0.73605  0.41323  1.0000
  S   S67       1.0  0.52921  0.72147  0.29950  1.0000
  Fe  Fe35      1.0  0.64442  0.72680  0.40453  1.0000
  H   H188      1.0  0.54420  0.57074  0.30695  1.0000
  Fe  Fe36      1.0  0.57873  0.67009  0.44348  1.0000
  C   C189      1.0  0.59982  0.66308  0.24055  1.0000
  S   S68       1.0  0.63957  0.69675  0.33919  1.0000
  S   S69       1.0  0.56916  0.63701  0.38085  1.0000
  C   C190      1.0  0.41334  0.73239  0.42170  1.0000
  C   C191      1.0  0.45036  0.78888  0.38607  1.0000
  Fe  Fe37      1.0  0.42868  0.92371  0.20389  1.0000
  S   S70       1.0  0.43285  0.88412  0.14434  1.0000
  S   S71       1.0  0.47015  0.91241  0.26030  1.0000
  Fe  Fe38      1.0  0.42426  0.94607  0.10745  1.0000
  Fe  Fe39      1.0  0.36665  0.88031  0.14902  1.0000
  N   N17       1.0  0.44525  0.72279  0.44664  1.0000
  S   S72       1.0  0.42553  0.98614  0.16676  1.0000
  C   C192      1.0  0.41540  0.76558  0.39108  1.0000
  C   C193      1.0  0.65697  0.61739  0.24280  1.0000
  H   H189      1.0  0.55289  0.80535  0.33385  1.0000
  C   C194      1.0  0.54646  0.94828  0.39672  1.0000
  H   H190      1.0  0.53199  0.58066  0.45103  1.0000
  H   H191      1.0  0.52935  0.87920  0.31756  1.0000
  C   C195      1.0  0.63775  0.95201  0.43409  1.0000
  H   H192      1.0  0.44680  0.82864  0.22683  1.0000
  H   H193      1.0  0.55026  0.92391  0.37255  1.0000
  H   H194      1.0  0.47040  0.75496  0.24280  1.0000
  C   C196      1.0  0.57775  0.63032  0.26039  1.0000
  C   C197      1.0  0.51331  0.77491  0.28950  1.0000
  C   C198      1.0  0.48336  0.78200  0.25929  1.0000
  C   C199      1.0  0.46999  0.82386  0.25007  1.0000
  C   C200      1.0  0.48646  0.85921  0.27099  1.0000
  C   C201      1.0  0.51626  0.85213  0.30141  1.0000
  C   C202      1.0  0.52969  0.81023  0.31065  1.0000
  H   H195      1.0  0.61821  0.95715  0.46131  1.0000
  H   H196      1.0  0.58611  0.69364  0.23288  1.0000
  H   H197      1.0  0.57442  0.99813  0.35818  1.0000
  S   S73       1.0  0.36295  0.91833  0.21019  1.0000
  H   H198      1.0  0.67443  0.87279  0.37308  1.0000
  H   H199      1.0  0.64594  0.85839  0.46163  1.0000
  H   H200      1.0  0.58870  0.54295  0.31888  1.0000
  N   N18       1.0  0.59503  0.59222  0.27150  1.0000
  H   H201      1.0  0.39008  0.77311  0.37137  1.0000
  C   C203      1.0  0.53418  0.94975  0.12501  1.0000
  C   C204      1.0  0.47952  0.74564  0.44209  1.0000
  C   C205      1.0  0.56032  0.99036  0.38856  1.0000
  N   N19       1.0  0.64385  0.91149  0.41866  1.0000
  S   S74       1.0  0.68150  0.78628  0.41472  1.0000
  H   H202      1.0  0.38593  0.71474  0.42577  1.0000
  C   C206      1.0  0.52359  0.96943  0.46712  1.0000
  C   C207      1.0  0.52924  0.94509  0.16936  1.0000
  H   H203      1.0  0.35336  0.65477  0.12810  1.0000
  C   C208      1.0  0.52774  0.93770  0.43588  1.0000
  S   S75       1.0  0.51047  0.88452  0.44483  1.0000
  C   C209      1.0  0.62481  0.87446  0.43969  1.0000
  C   C210      1.0  0.63390  0.58518  0.26213  1.0000
  S   S76       1.0  0.46187  0.96368  0.04892  1.0000
  Fe  Fe40      1.0  0.35977  0.97621  0.16655  1.0000
  H   H204      1.0  0.41722  0.91773  0.34192  1.0000
  H   H205      1.0  0.50467  0.73804  0.46205  1.0000
  H   H206      1.0  0.54687  0.63600  0.26750  1.0000
  C   C211      1.0  0.43614  0.91741  0.37097  1.0000
  C   C212      1.0  0.44367  0.68668  0.47719  1.0000
  H   H207      1.0  0.50971  0.79736  0.40844  1.0000
  C   C213      1.0  0.51882  0.57456  0.48223  1.0000
  C   C214      1.0  0.42602  0.97243  0.42645  1.0000
  C   C215      1.0  0.66873  0.90510  0.38450  1.0000
  H   H208      1.0  0.51995  0.91443  0.18304  1.0000
  S   S77       1.0  0.35817  0.93806  0.10551  1.0000
  H   H209      1.0  0.45267  0.81437  0.36216  1.0000
  S   S78       1.0  0.66106  0.56887  0.36183  1.0000
  H   H210      1.0  0.53161  0.97693  0.23054  1.0000
  H   H211      1.0  0.37723  0.73080  0.12370  1.0000
  N   N20       1.0  0.44115  0.96118  0.38720  1.0000
  H   H212      1.0  0.46533  0.90395  0.36204  1.0000
  H   H213      1.0  0.36602  0.76228  0.07750  1.0000
  C   C216      1.0  0.67980  0.98160  0.37836  1.0000
  C   C217      1.0  0.48255  0.77911  0.41191  1.0000
  H   H214      1.0  0.40987  0.94934  0.44609  1.0000
  H   H215      1.0  0.52818  0.92301  0.10376  1.0000
  H   H216      1.0  0.42293  0.89556  0.39557  1.0000
  C   C218      1.0  0.65529  0.98769  0.41393  1.0000
  C   C219      1.0  0.37098  0.72869  0.08868  1.0000
  C   C220      1.0  0.57171  0.55805  0.29230  1.0000
  H   H217      1.0  0.65738  0.68215  0.21759  1.0000
  H   H218      1.0  0.64759  0.55492  0.27087  1.0000
  H   H219      1.0  0.46052  0.65910  0.46415  1.0000
  C   C221      1.0  0.63975  0.65661  0.23201  1.0000
  C   C222      1.0  0.54576  0.98960  0.10790  1.0000
  C   C223      1.0  0.53574  0.98022  0.19601  1.0000
  C   C224      1.0  0.53806  0.01124  0.45931  1.0000
  H   H220      1.0  0.61494  0.85071  0.41541  1.0000
  C   C225      1.0  0.46126  0.99065  0.36255  1.0000
  H   H221      1.0  0.47343  0.98151  0.33156  1.0000
  H   H222      1.0  0.54914  0.99289  0.07333  1.0000
  H   H223      1.0  0.39710  0.71556  0.07171  1.0000
  H   H224      1.0  0.56388  0.53310  0.26844  1.0000
  H   H225      1.0  0.41291  0.67619  0.48391  1.0000
  C   C226      1.0  0.43172  0.01385  0.44243  1.0000
  Fe  Fe41      1.0  0.66255  0.57007  0.80405  1.0000
  S   S79       1.0  0.65913  0.60087  0.86913  1.0000
  H   H226      1.0  0.51040  0.99479  0.97957  1.0000
  Fe  Fe42      1.0  0.59679  0.62726  0.76719  1.0000
  S   S80       1.0  0.58791  0.66025  0.83010  1.0000
  S   S81       1.0  0.55870  0.64039  0.70842  1.0000
  Fe  Fe43      1.0  0.65412  0.66320  0.83207  1.0000
  H   H227      1.0  0.52926  0.55336  0.72952  1.0000
  Fe  Fe44      1.0  0.59362  0.59500  0.86112  1.0000
  S   S82       1.0  0.55329  0.57528  0.91649  1.0000
  C   C227      1.0  0.62333  0.75303  0.66200  1.0000
  S   S83       1.0  0.59689  0.56144  0.79793  1.0000
  Fe  Fe45      1.0  0.40248  0.90457  0.55509  1.0000
  H   H228      1.0  0.63654  0.76135  0.69251  1.0000
  Fe  Fe46      1.0  0.46284  0.84372  0.59748  1.0000
  S   S84       1.0  0.47050  0.80527  0.53738  1.0000
  S   S85       1.0  0.49930  0.82770  0.65681  1.0000
  C   C228      1.0  0.48351  0.60226  0.83897  1.0000
  Fe  Fe47      1.0  0.47097  0.86906  0.50247  1.0000
  Fe  Fe48      1.0  0.40446  0.80891  0.53419  1.0000
  S   S86       1.0  0.46844  0.90770  0.56278  1.0000
  H   H229      1.0  0.62457  0.63403  0.61504  1.0000
  H   H230      1.0  0.56968  0.79662  0.58094  1.0000
  H   H231      1.0  0.50858  0.67034  0.64037  1.0000
  C   C229      1.0  0.48261  0.52619  0.53101  1.0000
  C   C230      1.0  0.38135  0.58539  0.55956  1.0000
  H   H232      1.0  0.48504  0.74294  0.61917  1.0000
  N   N21       1.0  0.48823  0.55142  0.78143  1.0000
  H   H233      1.0  0.54064  0.79593  0.73062  1.0000
  C   C231      1.0  0.60440  0.78436  0.63742  1.0000
  H   H234      1.0  0.56448  0.72344  0.75160  1.0000
  C   C232      1.0  0.50287  0.59749  0.55429  1.0000
  C   C233      1.0  0.53851  0.69182  0.69728  1.0000
  C   C234      1.0  0.54683  0.72736  0.72301  1.0000
  C   C235      1.0  0.53333  0.76849  0.71099  1.0000
  C   C236      1.0  0.51141  0.77459  0.67321  1.0000
  C   C237      1.0  0.50194  0.73878  0.64826  1.0000
  C   C238      1.0  0.51541  0.69763  0.66031  1.0000
  H   H235      1.0  0.46211  0.57712  0.89958  1.0000
  H   H236      1.0  0.40204  0.56138  0.54826  1.0000
  H   H237      1.0  0.57291  0.64108  0.60507  1.0000
  C   C239      1.0  0.48446  0.55758  0.56299  1.0000
  H   H238      1.0  0.60255  0.81720  0.64875  1.0000
  H   H239      1.0  0.57099  0.72098  0.55733  1.0000
  S   S87       1.0  0.67836  0.72734  0.85453  1.0000
  H   H240      1.0  0.50376  0.62166  0.57903  1.0000
  C   C240      1.0  0.46837  0.57019  0.86606  1.0000
  S   S88       1.0  0.39630  0.84459  0.59608  1.0000
  H   H241      1.0  0.48879  0.63429  0.85126  1.0000
  C   C241      1.0  0.49993  0.53496  0.49069  1.0000
  H   H242      1.0  0.63596  0.68581  0.66867  1.0000
  S   S89       1.0  0.66300  0.63302  0.76706  1.0000
  N   N22       1.0  0.60486  0.69929  0.61069  1.0000
  C   C242      1.0  0.66613  0.93894  0.82909  1.0000
  C   C243      1.0  0.62299  0.71032  0.64825  1.0000
  C   C244      1.0  0.58640  0.72987  0.58634  1.0000
  H   H243      1.0  0.50260  0.53983  0.98165  1.0000
  H   H244      1.0  0.60853  0.65098  0.56268  1.0000
  H   H245      1.0  0.45678  0.69622  0.50841  1.0000
  C   C245      1.0  0.58585  0.77280  0.59931  1.0000
  S   S90       1.0  0.54170  0.65736  0.50368  1.0000
  H   H246      1.0  0.47144  0.55125  0.59424  1.0000
  C   C246      1.0  0.60275  0.65414  0.59776  1.0000
  H   H247      1.0  0.50940  0.96183  0.49746  1.0000
  C   C247      1.0  0.65434  0.97705  0.80919  1.0000
  C   C248      1.0  0.52019  0.60614  0.51391  1.0000
  H   H248      1.0  0.47828  0.55868  0.71454  1.0000
  H   H249      1.0  0.42595  0.63286  0.57318  1.0000
  H   H250      1.0  0.50500  0.61737  0.77555  1.0000
  C   C249      1.0  0.49312  0.59231  0.79640  1.0000
  C   C250      1.0  0.39472  0.62537  0.57360  1.0000
  C   C251      1.0  0.49881  0.54202  0.73670  1.0000
  H   H251      1.0  0.37815  0.68638  0.59997  1.0000
  C   C252      1.0  0.36754  0.65544  0.58885  1.0000
  C   C253      1.0  0.46318  0.52867  0.85048  1.0000
  H   H252      1.0  0.64906  0.92574  0.85575  1.0000
  C   C254      1.0  0.53709  0.52181  0.92626  1.0000
  S   S91       1.0  0.36916  0.74922  0.51907  1.0000
  S   S92       1.0  0.40561  0.86810  0.49298  1.0000
  S   S93       1.0  0.36737  0.96617  0.54587  1.0000
  H   H253      1.0  0.62858  0.99410  0.82084  1.0000
  C   C255      1.0  0.67669  0.99410  0.77529  1.0000
  C   C256      1.0  0.47315  0.51984  0.80775  1.0000
  Fe  Fe49      1.0  0.86572  0.46975  0.30035  1.0000
  S   S94       1.0  0.87182  0.44367  0.36752  1.0000
  N   N23       1.0  0.74169  0.37337  0.39988  1.0000
  Fe  Fe50      1.0  0.92626  0.40635  0.26337  1.0000
  S   S95       1.0  0.93720  0.37701  0.32810  1.0000
  S   S96       1.0  0.95907  0.38677  0.20237  1.0000
  Fe  Fe51      1.0  0.87134  0.37876  0.33583  1.0000
  S   S97       1.0  0.84352  0.31892  0.36553  1.0000
  Fe  Fe52      1.0  0.93684  0.44461  0.35359  1.0000
  S   S98       1.0  0.98107  0.46461  0.40437  1.0000
  S   S99       1.0  0.86000  0.40462  0.26932  1.0000
  S   S100      1.0  0.93115  0.47417  0.28807  1.0000
  C   C257      1.0  0.79659  0.22143  0.25416  1.0000
  C   C258      1.0  0.81597  0.14072  0.28566  1.0000
  C   C259      1.0  0.70849  0.38228  0.37680  1.0000
  C   C260      1.0  0.77847  0.14760  0.26888  1.0000
  H   H254      1.0  0.89521  0.12651  0.99214  1.0000
  H   H255      1.0  0.94343  0.03096  0.46111  1.0000
  C   C261      1.0  0.80582  0.03603  0.35817  1.0000
  H   H256      1.0  0.84881  0.28140  0.26626  1.0000
  C   C262      1.0  0.97539  0.33354  0.19274  1.0000
  C   C263      1.0  0.96947  0.30044  0.22284  1.0000
  C   C264      1.0  0.01158  0.44851  0.00203  1.0000
  C   C265      1.0  0.95372  0.44857  0.10719  1.0000
  H   H257      1.0  0.70657  0.49221  0.35773  1.0000
  H   H258      1.0  0.95466  0.30712  0.25295  1.0000
  C   C266      1.0  0.71332  0.30620  0.42340  1.0000
  C   C267      1.0  0.72654  0.25957  0.32379  1.0000
  C   C268      1.0  0.73880  0.29934  0.30660  1.0000
  C   C269      1.0  0.77563  0.31690  0.31730  1.0000
  C   C270      1.0  0.79991  0.29526  0.34627  1.0000
  C   C271      1.0  0.78822  0.25487  0.36247  1.0000
  C   C272      1.0  0.75174  0.23682  0.35096  1.0000
  H   H259      1.0  0.71930  0.31708  0.28562  1.0000
  H   H260      1.0  0.78448  0.34789  0.30442  1.0000
  H   H261      1.0  0.80699  0.23798  0.38490  1.0000
  H   H262      1.0  0.74239  0.20630  0.36458  1.0000
  H   H263      1.0  0.99913  0.34947  0.13004  1.0000
  H   H264      1.0  0.79855  0.39471  0.42108  1.0000
  H   H265      1.0  0.88552  0.24417  0.24734  1.0000
  C   C273      1.0  0.77504  0.40344  0.39786  1.0000
  N   N24       1.0  0.93537  0.46347  0.07103  1.0000
  C   C274      1.0  0.99485  0.32431  0.15381  1.0000
  H   H266      1.0  0.75424  0.07352  0.34292  1.0000
  C   C275      1.0  0.93681  0.50623  0.06055  1.0000
  H   H267      1.0  0.77330  0.47622  0.32828  1.0000
  H   H268      1.0  0.78853  0.25292  0.24199  1.0000
  H   H269      1.0  0.92364  0.40034  0.04753  1.0000
  H   H270      1.0  0.97845  0.23330  0.23767  1.0000
  H   H271      1.0  0.70668  0.41155  0.35777  1.0000
  H   H272      1.0  0.87637  0.25121  0.30441  1.0000
  C   C276      1.0  0.91267  0.43385  0.04426  1.0000
  C   C277      1.0  0.98299  0.25861  0.21410  1.0000
  H   H273      1.0  0.88108  0.43459  0.05362  1.0000
  H   H274      1.0  0.82397  0.10916  0.29779  1.0000
  H   H275      1.0  0.73933  0.19420  0.24062  1.0000
  C   C278      1.0  0.76863  0.18823  0.25309  1.0000
  C   C279      1.0  0.86237  0.24944  0.27218  1.0000
  N   N25       1.0  0.83310  0.21458  0.27130  1.0000
  H   H276      1.0  0.87210  0.16927  0.29993  1.0000
  C   C280      1.0  0.00842  0.28249  0.14511  1.0000
  S   S101      1.0  0.99474  0.39582  0.99115  1.0000
  H   H277      1.0  0.77145  0.32785  0.43966  1.0000
  C   C281      1.0  0.84306  0.17480  0.28668  1.0000
  C   C282      1.0  0.77103  0.04508  0.33547  1.0000
  H   H278      1.0  0.01686  0.07532  0.25007  1.0000
  H   H279      1.0  0.75711  0.12145  0.26809  1.0000
  H   H280      1.0  0.81562  0.05769  0.38301  1.0000
  H   H281      1.0  0.76525  0.43664  0.40521  1.0000
  H   H282      1.0  0.78847  0.40291  0.36519  1.0000
  H   H283      1.0  0.98989  0.46443  0.16174  1.0000
  C   C283      1.0  0.00267  0.24941  0.17531  1.0000
  H   H284      1.0  0.91590  0.44248  0.00963  1.0000
  H   H285      1.0  0.95216  0.41476  0.11580  1.0000
  C   C284      1.0  0.74449  0.33581  0.42285  1.0000
  C   C285      1.0  0.97512  0.47656  0.13331  1.0000
  H   H286      1.0  0.71604  0.27586  0.44050  1.0000
  C   C286      1.0  0.75858  0.01770  0.30272  1.0000
  S   S102      1.0  0.01926  0.19623  0.16585  1.0000
  C   C287      1.0  0.76231  0.50874  0.32795  1.0000
  S   S103      1.0  0.71600  0.02868  0.27209  1.0000
  Fe  Fe53      1.0  0.90237  0.41573  0.86322  1.0000
  S   S104      1.0  0.89172  0.38572  0.92839  1.0000
  S   S105      1.0  0.87522  0.48008  0.84530  1.0000
  Fe  Fe54      1.0  0.96663  0.34966  0.83942  1.0000
  S   S106      1.0  0.96037  0.31602  0.90285  1.0000
  C   C288      1.0  0.01043  0.24318  0.79293  1.0000
  Fe  Fe55      1.0  0.89521  0.32322  0.89249  1.0000
  S   S107      1.0  0.85799  0.26318  0.90000  1.0000
  Fe  Fe56      1.0  0.95785  0.38193  0.93200  1.0000
  H   H287      1.0  0.94055  0.13957  0.96388  1.0000
  S   S108      1.0  0.90148  0.35344  0.82679  1.0000
  S   S109      1.0  0.96852  0.41543  0.86912  1.0000
  C   C289      1.0  0.95312  0.39859  0.73218  1.0000
  C   C290      1.0  0.97344  0.04014  0.89091  1.0000
  H   H288      1.0  0.92874  0.08470  0.97562  1.0000
  C   C291      1.0  0.97725  0.46780  0.75485  1.0000
  C   C292      1.0  0.01483  0.04981  0.96815  1.0000
  H   H289      1.0  0.85658  0.17936  0.84919  1.0000
  C   C293      1.0  0.91572  0.11613  0.96631  1.0000
  C   C294      1.0  0.86438  0.14961  0.86549  1.0000
  H   H290      1.0  0.87838  0.46838  0.74933  1.0000
  H   H291      1.0  0.88998  0.39337  0.72718  1.0000
  S   S110      1.0  0.69597  0.50780  0.79331  1.0000
  H   H292      1.0  0.99230  0.05612  0.59848  1.0000
  C   C295      1.0  0.86349  0.07220  0.87008  1.0000
  C   C296      1.0  0.90841  0.45683  0.74662  1.0000
  C   C297      1.0  0.99868  0.48377  0.97791  1.0000
  C   C298      1.0  0.72474  0.27569  0.91998  1.0000
  C   C299      1.0  0.74908  0.31213  0.92279  1.0000
  C   C300      1.0  0.78994  0.30884  0.91586  1.0000
  C   C301      1.0  0.80669  0.26889  0.90692  1.0000
  C   C302      1.0  0.78231  0.23247  0.90419  1.0000
  C   C303      1.0  0.74139  0.23590  0.91028  1.0000
  H   H293      1.0  0.00944  0.17377  0.79463  1.0000
  H   H294      1.0  0.80853  0.33704  0.91817  1.0000
  H   H295      1.0  0.79501  0.20144  0.89746  1.0000
  H   H296      1.0  0.72285  0.20761  0.90816  1.0000
  N   N26       1.0  0.93954  0.48301  0.75659  1.0000
  C   C304      1.0  0.72345  0.08474  0.81694  1.0000
  C   C305      1.0  0.75714  0.07344  0.79295  1.0000
  C   C306      1.0  0.82479  0.48684  0.83296  1.0000
  C   C307      1.0  0.79984  0.45180  0.82568  1.0000
  C   C308      1.0  0.76039  0.45868  0.81373  1.0000
  H   H297      1.0  0.83770  0.10846  0.81816  1.0000
  H   H298      1.0  0.76578  0.09280  0.76537  1.0000
  H   H299      1.0  0.81104  0.41942  0.82868  1.0000
  H   H300      1.0  0.74151  0.43140  0.80741  1.0000
  H   H301      1.0  0.69413  0.36067  0.86451  1.0000
  N   N27       1.0  0.89480  0.11365  0.92528  1.0000
  H   H302      1.0  0.98663  0.24641  0.81599  1.0000
  H   H303      1.0  0.96923  0.06219  0.52365  1.0000
  C   C309      1.0  0.91474  0.41431  0.73417  1.0000
  H   H304      1.0  0.70619  0.11240  0.80764  1.0000
  H   H305      1.0  0.95851  0.36532  0.72368  1.0000
  H   H306      1.0  0.89299  0.18182  0.91760  1.0000
  C   C310      1.0  0.97642  0.02957  0.58405  1.0000
  C   C311      1.0  0.73342  0.02267  0.86276  1.0000
  H   H307      1.0  0.98775  0.10703  0.87974  1.0000
  H   H308      1.0  0.89135  0.04503  0.92570  1.0000
  C   C312      1.0  0.77891  0.03661  0.80361  1.0000
  C   C313      1.0  0.99068  0.07993  0.90150  1.0000
  H   H309      1.0  0.73643  0.34294  0.93061  1.0000
  H   H310      1.0  0.85523  0.04126  0.85691  1.0000
  H   H311      1.0  0.95772  0.03662  0.86099  1.0000
  H   H312      1.0  0.97917  0.47891  0.95099  1.0000
  C   C314      1.0  0.85369  0.10998  0.84827  1.0000
  C   C315      1.0  0.88390  0.07462  0.90897  1.0000
  C   C316      1.0  0.71094  0.05879  0.85136  1.0000
  C   C317      1.0  0.96328  0.03278  0.54157  1.0000
  C   C318      1.0  0.88499  0.15084  0.90430  1.0000
  S   S111      1.0  0.81825  0.02094  0.76966  1.0000
  S   S112      1.0  0.01476  0.33266  0.79111  1.0000
  C   C319      1.0  0.74536  0.50056  0.80976  1.0000
  C   C320      1.0  0.98461  0.42547  0.74248  1.0000
  C   C321      1.0  0.01144  0.08491  0.94016  1.0000
  H   H313      1.0  0.00185  0.48826  0.76356  1.0000
  H   H314      1.0  0.01448  0.41316  0.74183  1.0000
  Fe  Fe57      1.0  0.90439  0.92625  0.37489  1.0000
  S   S113      1.0  0.90231  0.88831  0.43676  1.0000
  S   S114      1.0  0.87251  0.99021  0.37687  1.0000
  Fe  Fe58      1.0  0.96495  0.86511  0.33450  1.0000
  S   S115      1.0  0.96753  0.82429  0.39402  1.0000
  H   H315      1.0  0.99455  0.62032  0.37624  1.0000
  Fe  Fe59      1.0  0.90170  0.83046  0.39434  1.0000
  S   S116      1.0  0.86736  0.76905  0.40493  1.0000
  Fe  Fe60      1.0  0.96814  0.88635  0.43045  1.0000
  C   C322      1.0  0.99976  0.59415  0.39856  1.0000
  S   S117      1.0  0.89862  0.86811  0.33256  1.0000
  S   S118      1.0  0.97071  0.92733  0.37085  1.0000
  H   H316      1.0  0.69314  0.00904  0.36212  1.0000
  C   C323      1.0  0.98551  0.55262  0.38923  1.0000
  H   H317      1.0  0.95956  0.60183  0.28385  1.0000
  H   H318      1.0  0.96569  0.68088  0.27819  1.0000
  H   H319      1.0  0.88814  0.75607  0.31029  1.0000
  H   H320      1.0  0.96968  0.54677  0.35980  1.0000
  H   H321      1.0  0.01854  0.93737  0.24603  1.0000
  H   H322      1.0  0.93382  0.75015  0.28169  1.0000
  C   C324      1.0  0.78530  0.54163  0.30976  1.0000
  H   H323      1.0  0.00807  0.77486  0.33039  1.0000
  C   C325      1.0  0.97745  0.52006  0.12236  1.0000
  H   H324      1.0  0.99100  0.00481  0.27581  1.0000
  C   C326      1.0  0.70976  0.55993  0.34354  1.0000
  S   S119      1.0  0.00058  0.85004  0.27418  1.0000
  H   H325      1.0  0.90189  0.56935  0.32202  1.0000
  C   C327      1.0  0.73304  0.78091  0.41089  1.0000
  C   C328      1.0  0.75678  0.81795  0.40995  1.0000
  C   C329      1.0  0.79801  0.81461  0.40750  1.0000
  C   C330      1.0  0.81570  0.77414  0.40676  1.0000
  C   C331      1.0  0.79197  0.73707  0.40779  1.0000
  C   C332      1.0  0.75069  0.74043  0.40948  1.0000
  H   H326      1.0  0.74334  0.84934  0.41115  1.0000
  H   H327      1.0  0.81609  0.84333  0.40672  1.0000
  H   H328      1.0  0.80545  0.70567  0.40758  1.0000
  H   H329      1.0  0.73258  0.71172  0.41040  1.0000
  H   H330      1.0  0.94037  0.97380  0.45927  1.0000
  C   C333      1.0  0.73300  0.59300  0.32604  1.0000
  C   C334      1.0  0.77050  0.58376  0.30884  1.0000
  H   H331      1.0  0.01484  0.97142  0.43847  1.0000
  C   C335      1.0  0.81503  0.97128  0.31689  1.0000
  C   C336      1.0  0.78062  0.98073  0.29368  1.0000
  H   H332      1.0  0.72187  0.62551  0.32514  1.0000
  H   H333      1.0  0.78806  0.60933  0.29463  1.0000
  H   H334      1.0  0.83190  0.94287  0.30942  1.0000
  H   H335      1.0  0.77115  0.95936  0.26843  1.0000
  H   H336      1.0  0.93325  0.75076  0.33984  1.0000
  S   S120      1.0  0.83179  0.53102  0.28623  1.0000
  N   N28       1.0  0.91241  0.69287  0.31282  1.0000
  C   C337      1.0  0.88092  0.67525  0.33445  1.0000
  C   C338      1.0  0.94054  0.66701  0.29501  1.0000
  C   C339      1.0  0.87653  0.63059  0.33777  1.0000
  C   C340      1.0  0.93724  0.62225  0.29803  1.0000
  C   C341      1.0  0.90497  0.60403  0.31952  1.0000
  C   C342      1.0  0.91720  0.73970  0.31093  1.0000
  H   H337      1.0  0.85898  0.69572  0.34928  1.0000
  H   H338      1.0  0.85124  0.61655  0.35432  1.0000
  H   H339      1.0  0.98791  0.72746  0.45658  1.0000
  C   C343      1.0  0.01024  0.52564  0.98932  1.0000
  C   C344      1.0  0.82802  0.99918  0.34892  1.0000
  C   C345      1.0  0.01430  0.00625  0.25172  1.0000
  H   H340      1.0  0.70629  0.93519  0.33621  1.0000
  C   C346      1.0  0.72455  0.51784  0.34440  1.0000
  H   H341      1.0  0.96057  0.56869  0.07649  1.0000
  C   C347      1.0  0.99332  0.51833  0.41726  1.0000
  C   C348      1.0  0.95795  0.53512  0.08593  1.0000
  H   H342      1.0  0.99481  0.54199  0.14160  1.0000
  H   H343      1.0  0.92258  0.51801  0.03168  1.0000
  C   C349      1.0  0.01439  0.52620  0.45516  1.0000
  C   C350      1.0  0.93096  0.00230  0.47794  1.0000
  H   H344      1.0  0.89829  0.00425  0.47701  1.0000
  C   C351      1.0  0.68693  0.94008  0.36369  1.0000
  H   H345      1.0  0.68813  0.61207  0.23698  1.0000
  Fe  Fe61      1.0  0.85934  0.96563  0.78507  1.0000
  S   S121      1.0  0.85710  0.92753  0.84670  1.0000
  C   C352      1.0  0.86240  0.70938  0.86720  1.0000
  Fe  Fe62      1.0  0.93180  0.91681  0.75053  1.0000
  S   S122      1.0  0.93515  0.87699  0.81058  1.0000
  S   S123      1.0  0.97643  0.90841  0.69594  1.0000
  Fe  Fe63      1.0  0.86935  0.87044  0.80451  1.0000
  S   S124      1.0  0.84586  0.80203  0.80397  1.0000
  Fe  Fe64      1.0  0.92289  0.93816  0.84632  1.0000
  S   S125      1.0  0.95628  0.95416  0.90719  1.0000
  S   S126      1.0  0.86659  0.90785  0.74250  1.0000
  S   S127      1.0  0.92459  0.97897  0.78674  1.0000
  C   C353      1.0  0.97563  0.69616  0.51730  1.0000
  H   H346      1.0  0.87004  0.74281  0.87665  1.0000
  H   H347      1.0  0.78397  0.98348  0.84794  1.0000
  H   H348      1.0  0.97908  0.66395  0.50470  1.0000
  H   H349      1.0  0.72379  0.00236  0.88925  1.0000
  H   H350      1.0  0.82775  0.63366  0.85613  1.0000
  C   C354      1.0  0.96716  0.70212  0.56077  1.0000
  C   C355      1.0  0.80980  0.65575  0.87450  1.0000
  C   C356      1.0  0.99341  0.85575  0.68419  1.0000
  C   C357      1.0  0.97688  0.81964  0.70451  1.0000
  H   H351      1.0  0.71911  0.66188  0.92116  1.0000
  C   C358      1.0  0.99009  0.77813  0.69414  1.0000
  C   C359      1.0  0.80052  0.72434  0.90588  1.0000
  H   H352      1.0  0.95368  0.82357  0.72816  1.0000
  C   C360      1.0  0.96293  0.74382  0.57650  1.0000
  C   C361      1.0  0.72234  0.75057  0.83449  1.0000
  C   C362      1.0  0.73346  0.79169  0.84857  1.0000
  C   C363      1.0  0.77047  0.80919  0.83736  1.0000
  C   C364      1.0  0.79665  0.78539  0.81226  1.0000
  C   C365      1.0  0.78500  0.74487  0.79712  1.0000
  C   C366      1.0  0.74791  0.72756  0.80801  1.0000
  H   H353      1.0  0.71388  0.80934  0.86952  1.0000
  H   H354      1.0  0.77953  0.83998  0.84994  1.0000
  H   H355      1.0  0.80515  0.72633  0.77767  1.0000
  H   H356      1.0  0.73967  0.69582  0.79718  1.0000
  H   H357      1.0  0.96465  0.67472  0.58242  1.0000
  C   C367      1.0  0.70057  0.91865  0.81508  1.0000
  C   C368      1.0  0.77235  0.64252  0.88851  1.0000
  H   H358      1.0  0.95658  0.74803  0.61042  1.0000
  H   H359      1.0  0.98071  0.98813  0.63984  1.0000
  H   H360      1.0  0.00034  0.98309  0.97951  1.0000
  H   H361      1.0  0.75915  0.56787  0.81353  1.0000
  C   C369      1.0  0.93290  0.52737  0.77036  1.0000
  C   C370      1.0  0.80987  0.52870  0.82865  1.0000
  C   C371      1.0  0.74880  0.67105  0.91145  1.0000
  H   H362      1.0  0.72900  0.98750  0.73685  1.0000
  C   C372      1.0  0.93816  0.96146  0.54499  1.0000
  H   H363      1.0  0.75244  0.88450  0.75213  1.0000
  H   H364      1.0  0.99379  0.83799  0.56630  1.0000
  N   N29       1.0  0.96767  0.77863  0.54978  1.0000
  C   C373      1.0  0.99753  0.01011  0.95762  1.0000
  C   C374      1.0  0.76298  0.71212  0.92044  1.0000
  H   H365      1.0  0.88547  0.68764  0.87995  1.0000
  N   N30       1.0  0.82339  0.69622  0.88321  1.0000
  C   C375      1.0  0.71103  0.97308  0.76217  1.0000
  H   H366      1.0  0.82916  0.55588  0.83373  1.0000
  H   H367      1.0  0.81067  0.75689  0.91161  1.0000
  H   H368      1.0  0.86296  0.70878  0.83144  1.0000
  H   H369      1.0  0.74418  0.73497  0.93681  1.0000
  N   N31       1.0  0.72282  0.93616  0.78247  1.0000
  C   C376      1.0  0.77024  0.53558  0.81744  1.0000
  C   C377      1.0  0.96431  0.82231  0.56662  1.0000
  H   H370      1.0  0.90129  0.53635  0.76836  1.0000
  H   H371      1.0  0.70975  0.88919  0.83090  1.0000
  C   C378      1.0  0.97020  0.99143  0.60708  1.0000
  H   H372      1.0  0.97693  0.75052  0.71010  1.0000
  H   H373      1.0  0.95284  0.82255  0.60021  1.0000
  H   H374      1.0  0.94661  0.92718  0.60513  1.0000
  C   C379      1.0  0.95096  0.95712  0.58752  1.0000
  C   C380      1.0  0.75932  0.91477  0.76930  1.0000
  H   H375      1.0  0.76134  0.61064  0.88110  1.0000
  H   H376      1.0  0.92395  0.93438  0.52962  1.0000
  H   H377      1.0  0.99945  0.55285  0.97108  1.0000
  C   C381      1.0  0.97679  0.77311  0.50728  1.0000
  H   H378      1.0  0.94418  0.84162  0.54624  1.0000
  H   H379      1.0  0.77770  0.93568  0.74792  1.0000
  H   H380      1.0  0.77752  0.90708  0.79790  1.0000
  C   C382      1.0  0.97677  0.00504  0.91905  1.0000
  C   C383      1.0  0.98051  0.73183  0.49028  1.0000
  H   H381      1.0  0.95021  0.55014  0.74995  1.0000
  H   H382      1.0  0.94175  0.53083  0.80455  1.0000
  N   N32       1.0  0.94462  0.99885  0.52252  1.0000
  C   C384      1.0  0.76751  0.01185  0.83931  1.0000
  S   S128      1.0  0.00460  0.89449  0.49090  1.0000
  H   H383      1.0  0.01815  0.92377  0.77758  1.0000
  H   H384      1.0  0.98158  0.80078  0.48644  1.0000
