data_image0
_chemical_formula_structural       H3FeS2FeS2FeCSCHC2SCFeS2FeSHFeSFeS3NC4H3C2HCSC7H4C6H4NFeCH3CHFeCSH4SC3NCSC3HCH3CHCNCHCH2NC6H8CFeSNSH5CH2CSCHC2HC3HCH2C3H6C4H3C5H3CHC2H2CH2CH3FeCSFeHCH3FeS2HFeS2H2SCHFeS2FeS2FeSFeS3CHC4SFeH2C6H4C2H3C6H6CHCHC2HNCH2C5SHCS2CH2NHCHC3HFeH2NCHC4HSHCNCHCHC3H2CSNH2C2HCSHCH3CH3C2H2FeS2NSCFeSHSNFeSFeS2FeS2FeSFeS3C8SH3C6H5SC6H6SFeHC4H2C8H5SC4NC6H12FeH3CNC6H5CHC2HCNHSH3CH2CH2C2H2C2SH2Fe2CSC2HCH2C2HCSFeH2FeS3FeS3H2CHSFeS2FeS2FeSFeS3C6H3CH2C6H3C2HC7H4CH3C5HCHC6H4C3NSCH3CH2NHFeCHCHFeH2C2H3CNH3C2H3C4NHC2H2CHCSCHCH2C2HCNCNHC2HFeH2CHC3SC3H2CH7CH2CH2CH2CFeC2H3FeHSCSHCFeHSHCSFeS2HSFeS2FeS2FeSFeS3FeS2FeS2FeSFeS2C4HC4H2C7H4CHC7H4C5NC9H4C2H6C2H8C2H2NH2NHC3HCSC3HCH3C2HCHCH5NC3H2CH6NCNSH2NSFeHC3H7C2HSHFeS2CSCFeCH2FeSHFeS2FeS2FeSFeS3FeS2FeS2Fe2S3C3H2C2H2C7H4C6H5FeCNCH2C6H4CH2C4H2N2CHC2HCH2SHCNC6H8CSHCH3C6H2NC6H8CH2CH3SCHC2HCH3NHSHSCH2CH3CH5SCFeH2SFeSFeSCFeS2FeSFeS4CSNFeS2FeS2FeS2FeSFeS3H3C6H4C2H2C7H4C2HCH2C6H4CH2CHC2HC4NC6H7NC6H8CHC3H3SC2NCSHCHCS2HNSCH3C3SHCNHCH6CH2FeHFeCHCHCFeCHCH2CHCFeSC2SH2FeHCNFeCSHCSFeS2FeS2Fe2S3HC3FeS2FeS2FeS2FeSFeS3C6H5C8H4C2H2FeC3FeHC6H5CSC2HCSCH2SH2CFeCHSCHCNH2C3H4NC6SH7C3NHCH7CFeC4H3CH2NC2SH2SH2NH2SHCHC2HC3HCHC3HNH2C2HCSHCHSC2H2FeS2HSHFeSFeS2FeS2FeSFeS3FeS2FeSNHC8H4C6H4SHCH2C6H4C7H2FeC6H5CHC3SHC2SFeHSH2CH3NHCH2C5HFeHCH3C2HCNHCH3CNC6H8CHCHFeHSH2CHNC2H2CH2C2H3C2SH4SC3H4FeS2CSCFeSFeS2FeS2FeSFeS3FeCSCFeS2C6H4C8H4C6H7CHC6H3SC6H4CHNCHC2H2CH2CHNCSC2HCH2C2H4CH3S2NHC2NC6H11CSFeHCHSHCHFeHCH3FeS2FeS2HFeHSC2SCFeS2FeSHFeSFeS3C6H4C2HC6H6C6H4CHCHNSH3CFeC2HCHCHC2NC2H4CNC6H9NHC3NCSC3HCH3CHC2H5CHC4HSC3H3NHSHSH6SNC2HFeHSHCHCH2FeS2CSHCFeSH2FeS2FeSHFeSFeS3C5HCH4CNC6H5SC7H4SHC3SCHC2H2C2HCH3CH2CFeH2CSHCHCH3SNC2NC6H8CNH2CSC4H3CSH3FeHSCHC3H2C2HCFe
_chemical_formula_sum              "H816 Fe136 S272 C816 N68"
_cell_length_a       62.7652
_cell_length_b       61.5855
_cell_length_c       48.014
_cell_angle_alpha    90.1001
_cell_angle_beta     90.8205
_cell_angle_gamma    120.053

_space_group_name_H-M_alt    "P 1"
_space_group_IT_number       1

loop_
  _space_group_symop_operation_xyz
  'x, y, z'

loop_
  _atom_site_type_symbol
  _atom_site_label
  _atom_site_symmetry_multiplicity
  _atom_site_fract_x
  _atom_site_fract_y
  _atom_site_fract_z
  _atom_site_occupancy
  H   H1        1.0  0.28320  0.29572  0.15505  1.0000
  H   H2        1.0  0.25738  0.31310  0.17219  1.0000
  H   H3        1.0  0.16529  0.32471  0.46622  1.0000
  Fe  Fe1       1.0  0.27116  0.12584  0.45675  1.0000
  S   S1        1.0  0.28346  0.12580  0.41193  1.0000
  S   S2        1.0  0.23001  0.10302  0.46349  1.0000
  Fe  Fe2       1.0  0.12301  0.27007  0.45884  1.0000
  S   S3        1.0  0.12345  0.29743  0.42602  1.0000
  S   S4        1.0  0.10062  0.22768  0.45660  1.0000
  Fe  Fe3       1.0  0.02248  0.38231  0.14505  1.0000
  C   C1        1.0  0.99760  0.49038  0.10720  1.0000
  S   S5        1.0  0.06299  0.39195  0.14753  1.0000
  C   C2        1.0  0.19515  0.16835  0.48995  1.0000
  H   H4        1.0  0.29652  0.06614  0.47088  1.0000
  C   C3        1.0  0.24411  0.05721  0.41628  1.0000
  C   C4        1.0  0.04485  0.43399  0.22169  1.0000
  S   S6        1.0  0.01496  0.40627  0.11523  1.0000
  C   C5        1.0  0.31201  0.45598  0.19033  1.0000
  Fe  Fe4       1.0  0.20165  0.38886  0.29751  1.0000
  S   S7        1.0  0.18501  0.37171  0.25569  1.0000
  S   S8        1.0  0.20026  0.36258  0.33232  1.0000
  Fe  Fe5       1.0  0.22445  0.44276  0.27441  1.0000
  S   S9        1.0  0.20832  0.42833  0.23137  1.0000
  H   H5        1.0  0.03315  0.35078  0.08649  1.0000
  Fe  Fe6       1.0  0.17341  0.40100  0.25308  1.0000
  S   S10       1.0  0.13233  0.38857  0.24561  1.0000
  Fe  Fe7       1.0  0.22127  0.40031  0.23752  1.0000
  S   S11       1.0  0.23956  0.39055  0.20209  1.0000
  S   S12       1.0  0.18878  0.41712  0.29611  1.0000
  S   S13       1.0  0.23869  0.41575  0.27926  1.0000
  N   N1        1.0  0.26009  0.04349  0.45386  1.0000
  C   C6        1.0  0.29919  0.38903  0.17098  1.0000
  C   C7        1.0  0.27578  0.38671  0.17427  1.0000
  C   C8        1.0  0.26898  0.39274  0.19973  1.0000
  C   C9        1.0  0.28592  0.40094  0.22203  1.0000
  H   H6        1.0  0.03951  0.48125  0.16877  1.0000
  H   H7        1.0  0.26288  0.38034  0.15684  1.0000
  H   H8        1.0  0.28103  0.40562  0.24176  1.0000
  C   C10       1.0  0.26176  0.21171  0.47214  1.0000
  C   C11       1.0  0.03999  0.44793  0.20225  1.0000
  H   H9        1.0  0.27820  0.08079  0.43798  1.0000
  C   C12       1.0  0.26234  0.06204  0.43638  1.0000
  S   S14       1.0  0.15589  0.27038  0.47834  1.0000
  C   C13       1.0  0.29070  0.20988  0.43973  1.0000
  C   C14       1.0  0.08166  0.38985  0.17480  1.0000
  C   C15       1.0  0.10698  0.39953  0.17031  1.0000
  C   C16       1.0  0.12276  0.39934  0.19155  1.0000
  C   C17       1.0  0.11344  0.38939  0.21772  1.0000
  C   C18       1.0  0.08810  0.37969  0.22219  1.0000
  C   C19       1.0  0.07233  0.37990  0.20096  1.0000
  H   H10       1.0  0.11452  0.40735  0.15025  1.0000
  H   H11       1.0  0.14212  0.40685  0.18765  1.0000
  H   H12       1.0  0.08058  0.37186  0.24225  1.0000
  H   H13       1.0  0.05295  0.37234  0.20485  1.0000
  C   C20       1.0  0.14654  0.31735  0.40230  1.0000
  C   C21       1.0  0.14308  0.33483  0.38692  1.0000
  C   C22       1.0  0.15975  0.34954  0.36612  1.0000
  C   C23       1.0  0.18012  0.34687  0.36039  1.0000
  C   C24       1.0  0.18405  0.33004  0.37649  1.0000
  C   C25       1.0  0.16740  0.31536  0.39731  1.0000
  H   H14       1.0  0.12713  0.33671  0.39075  1.0000
  H   H15       1.0  0.15658  0.36255  0.35416  1.0000
  H   H16       1.0  0.19981  0.32790  0.37238  1.0000
  H   H17       1.0  0.17039  0.30206  0.40895  1.0000
  N   N2        1.0  0.29907  0.46806  0.23159  1.0000
  Fe  Fe8       1.0  0.13287  0.22815  0.47937  1.0000
  C   C26       1.0  0.22349  0.03324  0.41412  1.0000
  H   H18       1.0  0.06591  0.48701  0.14926  1.0000
  H   H19       1.0  0.25449  0.44746  0.18161  1.0000
  H   H20       1.0  0.01616  0.39871  0.03556  1.0000
  C   C27       1.0  0.28346  0.33545  0.20447  1.0000
  H   H21       1.0  0.08539  0.46159  0.15721  1.0000
  Fe  Fe9       1.0  0.23531  0.13436  0.49286  1.0000
  C   C28       1.0  0.27225  0.45306  0.19131  1.0000
  S   S15       1.0  0.99840  0.38358  0.17853  1.0000
  H   H22       1.0  0.03276  0.42548  0.23919  1.0000
  H   H23       1.0  0.19053  0.35507  0.47631  1.0000
  H   H24       1.0  0.15666  0.16578  0.43735  1.0000
  H   H25       1.0  0.02412  0.45024  0.20515  1.0000
  S   S16       1.0  0.14468  0.20031  0.46335  1.0000
  C   C29       1.0  0.28972  0.44983  0.17712  1.0000
  C   C30       1.0  0.24824  0.17934  0.43565  1.0000
  C   C31       1.0  0.08445  0.15534  0.46787  1.0000
  N   N3        1.0  0.26694  0.20039  0.44818  1.0000
  C   C32       1.0  0.00557  0.38803  0.01751  1.0000
  S   S17       1.0  0.28092  0.10815  0.49197  1.0000
  C   C33       1.0  0.04900  0.47205  0.15906  1.0000
  C   C34       1.0  0.25302  0.16759  0.41360  1.0000
  C   C35       1.0  0.23984  0.01999  0.45202  1.0000
  H   H26       1.0  0.18323  0.02317  0.47192  1.0000
  C   C36       1.0  0.00958  0.19256  0.47517  1.0000
  H   H27       1.0  0.09552  0.43833  0.19174  1.0000
  H   H28       1.0  0.02404  0.20145  0.46010  1.0000
  H   H29       1.0  0.24284  0.20892  0.47064  1.0000
  C   C37       1.0  0.27729  0.46231  0.21866  1.0000
  H   H30       1.0  0.26351  0.46450  0.22965  1.0000
  C   C38       1.0  0.08000  0.44116  0.19502  1.0000
  N   N4        1.0  0.03415  0.35775  0.04287  1.0000
  C   C39       1.0  0.27708  0.17750  0.40441  1.0000
  H   H31       1.0  0.23755  0.00554  0.46657  1.0000
  C   C40       1.0  0.16682  0.17148  0.45693  1.0000
  H   H32       1.0  0.18306  0.14795  0.45111  1.0000
  H   H33       1.0  0.99836  0.32750  0.05206  1.0000
  N   N5        1.0  0.12749  0.30577  0.32258  1.0000
  C   C41       1.0  0.10664  0.30207  0.33549  1.0000
  C   C42       1.0  0.13806  0.32360  0.30246  1.0000
  C   C43       1.0  0.09612  0.31681  0.32870  1.0000
  C   C44       1.0  0.12793  0.33854  0.29508  1.0000
  C   C45       1.0  0.10689  0.33515  0.30831  1.0000
  C   C46       1.0  0.13801  0.28986  0.32954  1.0000
  H   H34       1.0  0.09841  0.28810  0.35167  1.0000
  H   H35       1.0  0.15474  0.32673  0.29242  1.0000
  H   H36       1.0  0.07985  0.31414  0.33931  1.0000
  H   H37       1.0  0.13640  0.35281  0.27930  1.0000
  H   H38       1.0  0.09910  0.34686  0.30272  1.0000
  H   H39       1.0  0.12964  0.27289  0.31597  1.0000
  H   H40       1.0  0.15832  0.30021  0.32681  1.0000
  H   H41       1.0  0.13482  0.28408  0.35173  1.0000
  C   C47       1.0  0.01193  0.33717  0.03611  1.0000
  Fe  Fe10      1.0  0.98876  0.40506  0.14755  1.0000
  S   S18       1.0  0.27566  0.15791  0.48341  1.0000
  N   N6        1.0  0.05478  0.45816  0.17972  1.0000
  S   S19       1.0  0.25366  0.48470  0.27721  1.0000
  H   H42       1.0  0.30406  0.38433  0.15124  1.0000
  H   H43       1.0  0.24595  0.07212  0.40270  1.0000
  H   H44       1.0  0.31496  0.20602  0.41105  1.0000
  H   H45       1.0  0.13055  0.32909  0.47316  1.0000
  H   H46       1.0  0.27254  0.34340  0.21189  1.0000
  C   C48       1.0  0.27501  0.31851  0.18213  1.0000
  H   H47       1.0  0.29945  0.12334  0.35678  1.0000
  H   H48       1.0  0.08929  0.17316  0.45712  1.0000
  C   C49       1.0  0.18420  0.00799  0.48199  1.0000
  S   S20       1.0  0.99182  0.34611  0.12684  1.0000
  C   C50       1.0  0.06507  0.43070  0.21806  1.0000
  H   H49       1.0  0.23826  0.15062  0.40405  1.0000
  C   C51       1.0  0.18190  0.16136  0.46466  1.0000
  C   C52       1.0  0.00580  0.32915  0.00836  1.0000
  H   H50       1.0  0.06897  0.41970  0.23275  1.0000
  C   C53       1.0  0.99469  0.46850  0.12006  1.0000
  C   C54       1.0  0.28948  0.30883  0.17249  1.0000
  C   C55       1.0  0.05058  0.37099  0.02250  1.0000
  H   H51       1.0  0.27478  0.23223  0.47354  1.0000
  C   C56       1.0  0.03936  0.36672  0.07185  1.0000
  H   H52       1.0  0.28108  0.16840  0.38752  1.0000
  H   H53       1.0  0.22957  0.17123  0.44306  1.0000
  C   C57       1.0  0.29611  0.19868  0.41762  1.0000
  C   C58       1.0  0.07426  0.45446  0.17564  1.0000
  C   C59       1.0  0.16473  0.18886  0.47419  1.0000
  H   H54       1.0  0.98776  0.31349  0.00296  1.0000
  H   H55       1.0  0.02954  0.37705  0.07661  1.0000
  H   H56       1.0  0.20515  0.99584  0.43097  1.0000
  H   H57       1.0  0.09720  0.14909  0.46028  1.0000
  H   H58       1.0  0.28559  0.44171  0.15630  1.0000
  H   H59       1.0  0.26315  0.20276  0.49167  1.0000
  C   C60       1.0  0.31173  0.14543  0.39466  1.0000
  C   C61       1.0  0.27879  0.04901  0.47563  1.0000
  C   C62       1.0  0.31640  0.46508  0.21779  1.0000
  C   C63       1.0  0.31433  0.13974  0.36692  1.0000
  H   H60       1.0  0.06779  0.38786  0.02767  1.0000
  H   H61       1.0  0.03656  0.45895  0.14260  1.0000
  H   H62       1.0  0.22483  0.49006  0.32195  1.0000
  C   C64       1.0  0.22136  0.01444  0.43199  1.0000
  C   C65       1.0  0.30361  0.47751  0.26038  1.0000
  C   C66       1.0  0.30937  0.40337  0.21871  1.0000
  C   C67       1.0  0.30659  0.34289  0.21648  1.0000
  C   C68       1.0  0.04504  0.36349  0.99453  1.0000
  H   H63       1.0  0.20906  0.02931  0.39886  1.0000
  H   H64       1.0  0.05937  0.37940  0.07601  1.0000
  H   H65       1.0  0.30566  0.22595  0.45037  1.0000
  C   C69       1.0  0.31623  0.39748  0.19319  1.0000
  H   H66       1.0  0.28850  0.46412  0.27392  1.0000
  C   C70       1.0  0.98935  0.46461  0.14840  1.0000
  C   C71       1.0  0.31240  0.31649  0.18519  1.0000
  H   H67       1.0  0.06538  0.14084  0.46186  1.0000
  H   H68       1.0  0.28243  0.03320  0.47780  1.0000
  C   C72       1.0  0.17582  0.33686  0.48431  1.0000
  H   H69       1.0  0.31343  0.35675  0.23319  1.0000
  H   H70       1.0  0.99651  0.45467  0.10802  1.0000
  C   C73       1.0  0.98706  0.48281  0.16371  1.0000
  H   H71       1.0  0.17656  0.20906  0.51316  1.0000
  H   H72       1.0  0.18621  0.35373  0.53655  1.0000
  H   H73       1.0  0.27707  0.13371  0.60901  1.0000
  Fe  Fe11      1.0  0.28245  0.13860  0.51952  1.0000
  C   C74       1.0  0.16829  0.35024  0.52932  1.0000
  S   S21       1.0  0.24234  0.11610  0.53004  1.0000
  Fe  Fe12      1.0  0.00243  0.37890  0.88927  1.0000
  H   H74       1.0  0.06956  0.43983  0.82480  1.0000
  C   C75       1.0  0.31267  0.39283  0.78171  1.0000
  H   H75       1.0  0.12028  0.33249  0.71404  1.0000
  H   H76       1.0  0.13825  0.36239  0.73168  1.0000
  H   H77       1.0  0.07968  0.34955  0.70329  1.0000
  Fe  Fe13      1.0  0.13866  0.27009  0.51953  1.0000
  S   S22       1.0  0.16632  0.29799  0.55156  1.0000
  S   S23       1.0  0.11765  0.22781  0.52169  1.0000
  H   H78       1.0  0.08052  0.33166  0.80343  1.0000
  Fe  Fe14      1.0  0.02000  0.38157  0.82879  1.0000
  S   S24       1.0  0.31264  0.37157  0.83320  1.0000
  S   S25       1.0  0.04880  0.38982  0.79482  1.0000
  H   H79       1.0  0.30548  0.10638  0.69015  1.0000
  H   H80       1.0  0.12156  0.36038  0.70052  1.0000
  S   S26       1.0  0.02198  0.41082  0.85881  1.0000
  C   C76       1.0  0.20315  0.99323  0.51519  1.0000
  H   H81       1.0  0.04466  0.33301  0.78270  1.0000
  Fe  Fe15      1.0  0.18350  0.38370  0.68855  1.0000
  S   S27       1.0  0.19007  0.37607  0.73293  1.0000
  S   S28       1.0  0.15504  0.35227  0.65986  1.0000
  Fe  Fe16      1.0  0.21242  0.44122  0.69873  1.0000
  S   S29       1.0  0.22034  0.43726  0.74383  1.0000
  S   S30       1.0  0.10691  0.27195  0.49998  1.0000
  Fe  Fe17      1.0  0.22918  0.40789  0.72843  1.0000
  S   S31       1.0  0.26605  0.40899  0.73776  1.0000
  Fe  Fe18      1.0  0.18053  0.40572  0.74509  1.0000
  S   S32       1.0  0.15423  0.39767  0.78177  1.0000
  S   S33       1.0  0.22307  0.41355  0.68288  1.0000
  S   S34       1.0  0.17224  0.41175  0.70121  1.0000
  C   C77       1.0  0.29996  0.38173  0.80611  1.0000
  H   H82       1.0  0.09412  0.47020  0.81492  1.0000
  C   C78       1.0  0.30177  0.40057  0.76092  1.0000
  C   C79       1.0  0.27814  0.39755  0.76421  1.0000
  C   C80       1.0  0.26540  0.38628  0.78853  1.0000
  C   C81       1.0  0.27621  0.37836  0.80923  1.0000
  S   S35       1.0  0.00265  0.35010  0.85989  1.0000
  Fe  Fe19      1.0  0.23995  0.08644  0.49998  1.0000
  H   H83       1.0  0.24722  0.38374  0.79143  1.0000
  H   H84       1.0  0.26607  0.36966  0.82789  1.0000
  C   C82       1.0  0.07901  0.39382  0.79247  1.0000
  C   C83       1.0  0.09096  0.38974  0.81497  1.0000
  C   C84       1.0  0.11423  0.39172  0.81144  1.0000
  C   C85       1.0  0.12595  0.39782  0.78546  1.0000
  C   C86       1.0  0.11422  0.40241  0.76312  1.0000
  C   C87       1.0  0.09097  0.40045  0.76664  1.0000
  H   H85       1.0  0.08215  0.38466  0.83498  1.0000
  H   H86       1.0  0.12307  0.38814  0.82892  1.0000
  H   H87       1.0  0.12291  0.40716  0.74302  1.0000
  H   H88       1.0  0.08202  0.40370  0.74904  1.0000
  C   C88       1.0  0.01577  0.19196  0.50320  1.0000
  C   C89       1.0  0.07630  0.45395  0.80790  1.0000
  H   H89       1.0  0.01421  0.46016  0.85894  1.0000
  H   H90       1.0  0.31182  0.40924  0.74220  1.0000
  H   H91       1.0  0.27810  0.31222  0.81134  1.0000
  C   C90       1.0  0.16256  0.31223  0.58206  1.0000
  C   C91       1.0  0.18370  0.33056  0.59647  1.0000
  C   C92       1.0  0.18181  0.34306  0.62020  1.0000
  C   C93       1.0  0.15867  0.33729  0.62994  1.0000
  C   C94       1.0  0.13752  0.31901  0.61545  1.0000
  C   C95       1.0  0.13941  0.30659  0.59164  1.0000
  H   H92       1.0  0.20172  0.33513  0.58928  1.0000
  H   H93       1.0  0.19825  0.35700  0.63108  1.0000
  H   H94       1.0  0.11951  0.31435  0.62277  1.0000
  H   H95       1.0  0.12297  0.29263  0.58078  1.0000
  H   H96       1.0  0.00082  0.17954  0.54405  1.0000
  H   H97       1.0  0.03096  0.42389  0.78840  1.0000
  C   C96       1.0  0.03520  0.44316  0.79099  1.0000
  H   H98       1.0  0.30876  0.41544  0.85968  1.0000
  C   C97       1.0  0.12169  0.33962  0.51208  1.0000
  H   H99       1.0  0.04421  0.34177  0.73233  1.0000
  C   C98       1.0  0.10608  0.16050  0.51268  1.0000
  C   C99       1.0  0.05960  0.34072  0.74139  1.0000
  H   H100      1.0  0.05758  0.37454  0.97822  1.0000
  N   N7        1.0  0.09965  0.34507  0.73693  1.0000
  C   C100      1.0  0.12989  0.34851  0.53914  1.0000
  H   H101      1.0  0.11981  0.15788  0.50211  1.0000
  H   H102      1.0  0.11798  0.35081  0.55354  1.0000
  C   C101      1.0  0.05976  0.33561  0.76967  1.0000
  C   C102      1.0  0.02230  0.47398  0.78780  1.0000
  C   C103      1.0  0.31567  0.17683  0.65670  1.0000
  C   C104      1.0  0.29330  0.31730  0.79737  1.0000
  C   C105      1.0  0.01572  0.39458  0.99066  1.0000
  S   S36       1.0  0.04703  0.20461  0.51545  1.0000
  H   H103      1.0  0.25240  0.48792  0.61140  1.0000
  C   C106      1.0  0.20243  0.01347  0.50239  1.0000
  S   S37       1.0  0.22546  0.04496  0.51187  1.0000
  S   S38       1.0  0.21518  0.15677  0.50054  1.0000
  C   C107      1.0  0.06988  0.16362  0.51136  1.0000
  H   H104      1.0  0.15985  0.36061  0.56893  1.0000
  H   H105      1.0  0.29414  0.17839  0.62208  1.0000
  N   N8        1.0  0.05779  0.46107  0.80103  1.0000
  H   H106      1.0  0.21705  0.99708  0.53106  1.0000
  C   C108      1.0  0.28933  0.14149  0.62704  1.0000
  H   H107      1.0  0.20308  0.19128  0.52690  1.0000
  C   C109      1.0  0.15343  0.35412  0.54776  1.0000
  C   C110      1.0  0.00533  0.47031  0.85158  1.0000
  C   C111      1.0  0.17790  0.19580  0.49953  1.0000
  H   H108      1.0  0.11581  0.34003  0.77395  1.0000
  Fe  Fe20      1.0  0.08653  0.22957  0.49891  1.0000
  H   H109      1.0  0.07984  0.44543  0.78936  1.0000
  H   H110      1.0  0.10337  0.33504  0.50514  1.0000
  N   N9        1.0  0.08674  0.15958  0.49809  1.0000
  C   C112      1.0  0.01711  0.44930  0.78432  1.0000
  H   H111      1.0  0.05885  0.17231  0.55028  1.0000
  C   C113      1.0  0.29897  0.16665  0.63437  1.0000
  C   C114      1.0  0.12086  0.35024  0.71993  1.0000
  C   C115      1.0  0.19296  0.18562  0.50730  1.0000
  C   C116      1.0  0.29667  0.12684  0.64211  1.0000
  H   H112      1.0  0.99891  0.43487  0.77733  1.0000
  S   S39       1.0  0.22134  0.47629  0.67346  1.0000
  H   H113      1.0  0.30975  0.30036  0.82238  1.0000
  C   C117      1.0  0.31115  0.31079  0.80364  1.0000
  N   N10       1.0  0.15991  0.34099  0.50304  1.0000
  C   C118      1.0  0.09977  0.33963  0.76453  1.0000
  H   H114      1.0  0.09380  0.17387  0.57720  1.0000
  C   C119      1.0  0.99642  0.18016  0.52230  1.0000
  H   H115      1.0  0.05498  0.16371  0.49968  1.0000
  C   C120      1.0  0.07988  0.33487  0.78131  1.0000
  C   C121      1.0  0.00251  0.38065  0.96685  1.0000
  C   C122      1.0  0.07977  0.34529  0.72517  1.0000
  H   H116      1.0  0.27295  0.48032  0.65148  1.0000
  H   H117      1.0  0.00816  0.47884  0.78352  1.0000
  C   C123      1.0  0.10885  0.16548  0.54135  1.0000
  S   S40       1.0  0.01786  0.38706  0.93430  1.0000
  N   N11       1.0  0.31331  0.13705  0.66373  1.0000
  H   H118      1.0  0.28966  0.10750  0.63575  1.0000
  H   H119      1.0  0.31922  0.12545  0.57011  1.0000
  C   C124      1.0  0.29566  0.33132  0.77365  1.0000
  C   C125      1.0  0.09162  0.16944  0.55509  1.0000
  H   H120      1.0  0.30786  0.43856  0.81937  1.0000
  C   C126      1.0  0.06291  0.48527  0.80493  1.0000
  S   S41       1.0  0.31133  0.16631  0.55086  1.0000
  H   H121      1.0  0.01746  0.33729  0.96572  1.0000
  C   C127      1.0  0.07195  0.16845  0.54005  1.0000
  H   H122      1.0  0.12455  0.16676  0.55265  1.0000
  H   H123      1.0  0.28215  0.33698  0.76902  1.0000
  H   H124      1.0  0.03419  0.41024  0.98836  1.0000
  C   C128      1.0  0.02246  0.34248  0.98747  1.0000
  H   H125      1.0  0.18432  0.32722  0.49555  1.0000
  H   H126      1.0  0.27222  0.05202  0.49587  1.0000
  H   H127      1.0  0.31813  0.35056  0.73881  1.0000
  C   C129      1.0  0.31610  0.33898  0.75670  1.0000
  C   C130      1.0  0.13714  0.33618  0.49410  1.0000
  H   H128      1.0  0.22517  0.80404  0.18783  1.0000
  H   H129      1.0  0.20323  0.80770  0.16662  1.0000
  Fe  Fe21      1.0  0.13998  0.84449  0.47152  1.0000
  S   S42       1.0  0.15631  0.82356  0.44840  1.0000
  S   S43       1.0  0.11425  0.85839  0.45849  1.0000
  N   N12       1.0  0.27101  0.63151  0.27073  1.0000
  S   S44       1.0  0.02722  0.60640  0.11633  1.0000
  C   C131      1.0  0.25741  0.63273  0.29209  1.0000
  Fe  Fe22      1.0  0.01697  0.61816  0.15597  1.0000
  S   S45       1.0  0.04266  0.64158  0.19250  1.0000
  H   H130      1.0  0.27184  0.90790  0.20180  1.0000
  S   S46       1.0  0.27091  0.57857  0.35233  1.0000
  N   N13       1.0  0.01396  0.56752  0.02237  1.0000
  Fe  Fe23      1.0  0.31243  0.67274  0.33590  1.0000
  S   S47       1.0  0.29072  0.64734  0.37073  1.0000
  Fe  Fe24      1.0  0.19081  0.79033  0.29558  1.0000
  S   S48       1.0  0.19394  0.79798  0.24916  1.0000
  S   S49       1.0  0.17370  0.80987  0.32008  1.0000
  Fe  Fe25      1.0  0.21183  0.75490  0.29022  1.0000
  S   S50       1.0  0.21614  0.76035  0.24405  1.0000
  S   S51       1.0  0.21761  0.72617  0.31475  1.0000
  Fe  Fe26      1.0  0.23138  0.80164  0.25302  1.0000
  S   S52       1.0  0.26684  0.82796  0.22946  1.0000
  Fe  Fe27      1.0  0.17838  0.75633  0.24339  1.0000
  S   S53       1.0  0.15315  0.73456  0.20606  1.0000
  S   S54       1.0  0.22934  0.79639  0.29977  1.0000
  S   S55       1.0  0.17290  0.74839  0.28921  1.0000
  C   C132      1.0  0.16718  0.98276  0.47449  1.0000
  C   C133      1.0  0.10946  0.77342  0.39820  1.0000
  C   C134      1.0  0.27848  0.70462  0.31076  1.0000
  C   C135      1.0  0.27768  0.72120  0.29115  1.0000
  C   C136      1.0  0.25945  0.72825  0.29222  1.0000
  C   C137      1.0  0.24157  0.71860  0.31283  1.0000
  C   C138      1.0  0.24220  0.70178  0.33226  1.0000
  C   C139      1.0  0.26056  0.69491  0.33135  1.0000
  S   S56       1.0  0.31570  0.93468  0.16957  1.0000
  H   H131      1.0  0.25932  0.74122  0.27714  1.0000
  H   H132      1.0  0.22851  0.69420  0.34834  1.0000
  H   H133      1.0  0.26087  0.68216  0.34661  1.0000
  C   C140      1.0  0.25808  0.51038  0.29867  1.0000
  C   C141      1.0  0.24122  0.50805  0.31886  1.0000
  C   C142      1.0  0.24558  0.52906  0.33515  1.0000
  C   C143      1.0  0.26685  0.55264  0.33163  1.0000
  C   C144      1.0  0.28370  0.55499  0.31142  1.0000
  C   C145      1.0  0.27929  0.53401  0.29504  1.0000
  H   H134      1.0  0.25806  0.65022  0.29718  1.0000
  H   H135      1.0  0.23240  0.52697  0.35071  1.0000
  H   H136      1.0  0.30015  0.57295  0.30845  1.0000
  H   H137      1.0  0.29249  0.53609  0.27953  1.0000
  H   H138      1.0  0.23253  0.61273  0.32543  1.0000
  S   S57       1.0  0.14616  0.93102  0.47624  1.0000
  C   C146      1.0  0.12197  0.70945  0.20281  1.0000
  C   C147      1.0  0.10678  0.69898  0.22581  1.0000
  C   C148      1.0  0.08264  0.67837  0.22216  1.0000
  C   C149      1.0  0.07320  0.66796  0.19555  1.0000
  C   C150      1.0  0.08839  0.67848  0.17257  1.0000
  C   C151      1.0  0.11255  0.69904  0.17621  1.0000
  H   H139      1.0  0.11365  0.70669  0.24639  1.0000
  H   H140      1.0  0.07110  0.67047  0.24011  1.0000
  H   H141      1.0  0.08152  0.67076  0.15197  1.0000
  H   H142      1.0  0.12404  0.70689  0.15822  1.0000
  H   H143      1.0  0.10339  0.80191  0.43358  1.0000
  H   H144      1.0  0.02804  0.65065  0.99741  1.0000
  S   S58       1.0  0.99913  0.53575  0.10521  1.0000
  Fe  Fe28      1.0  0.99930  0.61350  0.09464  1.0000
  H   H145      1.0  0.03516  0.59984  0.99748  1.0000
  C   C152      1.0  0.27007  0.87381  0.21624  1.0000
  C   C153      1.0  0.28162  0.85939  0.21680  1.0000
  C   C154      1.0  0.30500  0.86934  0.20475  1.0000
  C   C155      1.0  0.98989  0.50464  0.15083  1.0000
  H   H146      1.0  0.28005  0.66756  0.25498  1.0000
  H   H147      1.0  0.25222  0.86662  0.22556  1.0000
  C   C156      1.0  0.30431  0.90686  0.18992  1.0000
  C   C157      1.0  0.11667  0.76248  0.37753  1.0000
  C   C158      1.0  0.16374  0.82245  0.41288  1.0000
  C   C159      1.0  0.17333  0.80692  0.40543  1.0000
  C   C160      1.0  0.17759  0.80370  0.37729  1.0000
  C   C161      1.0  0.17218  0.81592  0.35616  1.0000
  C   C162      1.0  0.16321  0.83197  0.36372  1.0000
  C   C163      1.0  0.15907  0.83528  0.39186  1.0000
  H   H148      1.0  0.17713  0.79695  0.42146  1.0000
  H   H149      1.0  0.18449  0.79131  0.37189  1.0000
  H   H150      1.0  0.15906  0.84160  0.34759  1.0000
  H   H151      1.0  0.15189  0.84745  0.39717  1.0000
  H   H152      1.0  0.30580  0.66381  0.26440  1.0000
  S   S59       1.0  0.30155  0.69589  0.30774  1.0000
  C   C164      1.0  0.24195  0.58900  0.30188  1.0000
  C   C165      1.0  0.99924  0.61861  0.01830  1.0000
  C   C166      1.0  0.16796  0.96252  0.48722  1.0000
  C   C167      1.0  0.09463  0.80163  0.41316  1.0000
  N   N14       1.0  0.15777  0.67797  0.26582  1.0000
  C   C168      1.0  0.13541  0.66433  0.25250  1.0000
  C   C169      1.0  0.17843  0.69296  0.25099  1.0000
  C   C170      1.0  0.13348  0.66499  0.22349  1.0000
  C   C171      1.0  0.17709  0.69436  0.22200  1.0000
  C   C172      1.0  0.15446  0.68023  0.20821  1.0000
  C   C173      1.0  0.15964  0.67755  0.29627  1.0000
  H   H153      1.0  0.11883  0.65311  0.26422  1.0000
  H   H154      1.0  0.19605  0.70426  0.26162  1.0000
  H   H155      1.0  0.11564  0.65468  0.21299  1.0000
  H   H156      1.0  0.19333  0.70696  0.21039  1.0000
  H   H157      1.0  0.15296  0.68194  0.18587  1.0000
  H   H158      1.0  0.16238  0.69545  0.30523  1.0000
  H   H159      1.0  0.14299  0.66172  0.30545  1.0000
  H   H160      1.0  0.17575  0.67566  0.30266  1.0000
  H   H161      1.0  0.11094  0.76932  0.41988  1.0000
  H   H162      1.0  0.31420  0.85845  0.20513  1.0000
  H   H163      1.0  0.10799  0.79062  0.32126  1.0000
  H   H164      1.0  0.03601  0.60138  0.04616  1.0000
  Fe  Fe29      1.0  0.30131  0.61996  0.35305  1.0000
  H   H165      1.0  0.09472  0.80900  0.35849  1.0000
  H   H166      1.0  0.12271  0.76127  0.33356  1.0000
  H   H167      1.0  0.10080  0.82152  0.40819  1.0000
  C   C174      1.0  0.28130  0.89729  0.20277  1.0000
  N   N15       1.0  0.24033  0.83706  0.16260  1.0000
  C   C175      1.0  0.23916  0.85773  0.15443  1.0000
  C   C176      1.0  0.26000  0.83447  0.15558  1.0000
  C   C177      1.0  0.25831  0.87678  0.13937  1.0000
  C   C178      1.0  0.27940  0.85310  0.14038  1.0000
  C   C179      1.0  0.27857  0.87445  0.13244  1.0000
  C   C180      1.0  0.22044  0.81793  0.17932  1.0000
  H   H168      1.0  0.22381  0.86001  0.16049  1.0000
  H   H169      1.0  0.26137  0.81854  0.16289  1.0000
  H   H170      1.0  0.25805  0.89381  0.13422  1.0000
  H   H171      1.0  0.00167  0.49320  0.08526  1.0000
  H   H172      1.0  0.21714  0.82690  0.19758  1.0000
  C   C181      1.0  0.31633  0.89292  0.19152  1.0000
  H   H173      1.0  0.03254  0.57294  0.06132  1.0000
  C   C182      1.0  0.10059  0.79570  0.36397  1.0000
  C   C183      1.0  0.10779  0.78520  0.34280  1.0000
  H   H174      1.0  0.12377  0.75021  0.38314  1.0000
  C   C184      1.0  0.11596  0.76857  0.34969  1.0000
  N   N16       1.0  0.10188  0.79007  0.39129  1.0000
  H   H175      1.0  0.00739  0.57916  0.06116  1.0000
  S   S60       1.0  0.00945  0.63251  0.05202  1.0000
  H   H176      1.0  0.23111  0.57254  0.31450  1.0000
  H   H177      1.0  0.07432  0.79115  0.41547  1.0000
  H   H178      1.0  0.29548  0.85155  0.13600  1.0000
  C   C185      1.0  0.28700  0.65410  0.25485  1.0000
  H   H179      1.0  0.29141  0.72887  0.27512  1.0000
  H   H180      1.0  0.28814  0.64944  0.23278  1.0000
  C   C186      1.0  0.02200  0.57989  0.99768  1.0000
  H   H181      1.0  0.25628  0.57074  0.27625  1.0000
  H   H182      1.0  0.15322  0.97888  0.45870  1.0000
  C   C187      1.0  0.25617  0.58801  0.28041  1.0000
  C   C188      1.0  0.27089  0.60965  0.26513  1.0000
  H   H183      1.0  0.28246  0.60892  0.24902  1.0000
  H   H184      1.0  0.30405  0.49578  0.26140  1.0000
  C   C189      1.0  0.24275  0.61154  0.30802  1.0000
  C   C190      1.0  0.02308  0.58099  0.04895  1.0000
  S   S61       1.0  0.99124  0.62852  0.13385  1.0000
  H   H185      1.0  0.29408  0.88971  0.12202  1.0000
  H   H186      1.0  0.28129  0.66222  0.48070  1.0000
  Fe  Fe30      1.0  0.99516  0.56771  0.12374  1.0000
  Fe  Fe31      1.0  0.13621  0.89082  0.48902  1.0000
  C   C191      1.0  0.99517  0.50853  0.12248  1.0000
  S   S62       1.0  0.04969  0.80667  0.49339  1.0000
  C   C192      1.0  0.99890  0.77604  0.49375  1.0000
  C   C193      1.0  0.99696  0.54246  0.02258  1.0000
  H   H187      1.0  0.00279  0.76080  0.49333  1.0000
  C   C194      1.0  0.01863  0.80100  0.49337  1.0000
  H   H188      1.0  0.99070  0.53273  0.04227  1.0000
  H   H189      1.0  0.02777  0.83967  0.49312  1.0000
  C   C195      1.0  0.01304  0.82036  0.49380  1.0000
  C   C196      1.0  0.01199  0.63220  0.99470  1.0000
  H   H190      1.0  0.98799  0.51844  0.16284  1.0000
  C   C197      1.0  0.98726  0.52917  0.99756  1.0000
  S   S63       1.0  0.16334  0.87805  0.49933  1.0000
  Fe  Fe32      1.0  0.98835  0.59397  0.88604  1.0000
  H   H191      1.0  0.27015  0.69318  0.57878  1.0000
  H   H192      1.0  0.30171  0.70104  0.58341  1.0000
  Fe  Fe33      1.0  0.13739  0.85554  0.53343  1.0000
  S   S64       1.0  0.15277  0.85641  0.57732  1.0000
  S   S65       1.0  0.11131  0.87024  0.52501  1.0000
  S   S66       1.0  0.11559  0.82154  0.50654  1.0000
  Fe  Fe34      1.0  0.02251  0.62486  0.83791  1.0000
  S   S67       1.0  0.05178  0.66476  0.82459  1.0000
  S   S68       1.0  0.02349  0.54346  0.84570  1.0000
  S   S69       1.0  0.02644  0.60326  0.87373  1.0000
  H   H193      1.0  0.09876  0.67160  0.71309  1.0000
  H   H194      1.0  0.21546  0.85907  0.58239  1.0000
  C   C198      1.0  0.00418  0.62221  0.96752  1.0000
  H   H195      1.0  0.06800  0.77686  0.56847  1.0000
  S   S70       1.0  0.29323  0.62546  0.62232  1.0000
  Fe  Fe35      1.0  0.19281  0.77909  0.68349  1.0000
  S   S71       1.0  0.18025  0.78308  0.72603  1.0000
  S   S72       1.0  0.17419  0.77805  0.64142  1.0000
  Fe  Fe36      1.0  0.23049  0.76564  0.70812  1.0000
  S   S73       1.0  0.22050  0.76915  0.75220  1.0000
  S   S74       1.0  0.26181  0.75690  0.70412  1.0000
  Fe  Fe37      1.0  0.18080  0.74779  0.73749  1.0000
  S   S75       1.0  0.15237  0.71002  0.75666  1.0000
  Fe  Fe38      1.0  0.22116  0.80424  0.73775  1.0000
  S   S76       1.0  0.23761  0.84095  0.76361  1.0000
  S   S77       1.0  0.19108  0.74249  0.69422  1.0000
  S   S78       1.0  0.23340  0.80210  0.69435  1.0000
  C   C199      1.0  0.27141  0.69808  0.65441  1.0000
  C   C200      1.0  0.28945  0.71439  0.67346  1.0000
  C   C201      1.0  0.28635  0.73255  0.68797  1.0000
  C   C202      1.0  0.26515  0.73456  0.68385  1.0000
  C   C203      1.0  0.24707  0.71824  0.66481  1.0000
  C   C204      1.0  0.25024  0.70017  0.65015  1.0000
  H   H196      1.0  0.30585  0.71310  0.67695  1.0000
  H   H197      1.0  0.30049  0.74508  0.70261  1.0000
  H   H198      1.0  0.23063  0.71948  0.66147  1.0000
  C   C205      1.0  0.21823  0.81722  0.58737  1.0000
  H   H199      1.0  0.20675  0.79675  0.59128  1.0000
  H   H200      1.0  0.01420  0.63294  0.94963  1.0000
  C   C206      1.0  0.24376  0.50834  0.67943  1.0000
  C   C207      1.0  0.24414  0.52654  0.66141  1.0000
  C   C208      1.0  0.26314  0.55182  0.66323  1.0000
  C   C209      1.0  0.28208  0.55918  0.68311  1.0000
  C   C210      1.0  0.28126  0.54116  0.70175  1.0000
  C   C211      1.0  0.26221  0.51587  0.69997  1.0000
  H   H201      1.0  0.22986  0.52092  0.64557  1.0000
  H   H202      1.0  0.26334  0.56547  0.64895  1.0000
  H   H203      1.0  0.29575  0.54667  0.71731  1.0000
  C   C212      1.0  0.23014  0.68362  0.72184  1.0000
  C   C213      1.0  0.07912  0.84287  0.58629  1.0000
  H   H204      1.0  0.12491  0.71456  0.70677  1.0000
  C   C214      1.0  0.98827  0.81480  0.49516  1.0000
  C   C215      1.0  0.08112  0.67722  0.80845  1.0000
  C   C216      1.0  0.09008  0.66194  0.79861  1.0000
  C   C217      1.0  0.11225  0.67247  0.78361  1.0000
  C   C218      1.0  0.12584  0.69839  0.77815  1.0000
  C   C219      1.0  0.11728  0.71378  0.78869  1.0000
  C   C220      1.0  0.09512  0.70325  0.80372  1.0000
  H   H205      1.0  0.07968  0.64194  0.80212  1.0000
  H   H206      1.0  0.11869  0.66032  0.77581  1.0000
  H   H207      1.0  0.12758  0.73377  0.78510  1.0000
  H   H208      1.0  0.08855  0.71533  0.81140  1.0000
  C   C221      1.0  0.27298  0.63401  0.54354  1.0000
  H   H209      1.0  0.23867  0.67556  0.70913  1.0000
  H   H210      1.0  0.26951  0.61647  0.55276  1.0000
  H   H211      1.0  0.28860  0.69758  0.51155  1.0000
  C   C222      1.0  0.28769  0.85734  0.77228  1.0000
  C   C223      1.0  0.26790  0.86110  0.77762  1.0000
  C   C224      1.0  0.27230  0.88191  0.79422  1.0000
  C   C225      1.0  0.31269  0.54254  0.64201  1.0000
  C   C226      1.0  0.11174  0.72025  0.71438  1.0000
  H   H212      1.0  0.28473  0.84148  0.75960  1.0000
  C   C227      1.0  0.28726  0.69774  0.56755  1.0000
  H   H213      1.0  0.31015  0.91240  0.73912  1.0000
  C   C228      1.0  0.15760  0.83388  0.59518  1.0000
  C   C229      1.0  0.16920  0.84010  0.62163  1.0000
  C   C230      1.0  0.17404  0.82315  0.63634  1.0000
  C   C231      1.0  0.16717  0.79962  0.62481  1.0000
  C   C232      1.0  0.15531  0.79329  0.59847  1.0000
  C   C233      1.0  0.15058  0.81029  0.58369  1.0000
  H   H214      1.0  0.17469  0.85828  0.63076  1.0000
  H   H215      1.0  0.18322  0.82837  0.65652  1.0000
  H   H216      1.0  0.14998  0.77518  0.58929  1.0000
  H   H217      1.0  0.14171  0.80522  0.56335  1.0000
  C   C234      1.0  0.09081  0.81125  0.59134  1.0000
  C   C235      1.0  0.00632  0.51021  0.84458  1.0000
  C   C236      1.0  0.06475  0.65495  0.73517  1.0000
  N   N17       1.0  0.30142  0.54652  0.61958  1.0000
  S   S79       1.0  0.00587  0.59174  0.80841  1.0000
  C   C237      1.0  0.99508  0.54171  0.97228  1.0000
  H   H218      1.0  0.19985  0.87200  0.54192  1.0000
  H   H219      1.0  0.30565  0.57211  0.58696  1.0000
  H   H220      1.0  0.23816  0.73682  0.79193  1.0000
  C   C238      1.0  0.09487  0.83516  0.59762  1.0000
  H   H221      1.0  0.18391  0.80421  0.49886  1.0000
  H   H222      1.0  0.04031  0.68753  0.76462  1.0000
  N   N18       1.0  0.20843  0.82459  0.56356  1.0000
  H   H223      1.0  0.01841  0.57720  0.95274  1.0000
  Fe  Fe39      1.0  0.09097  0.83737  0.49527  1.0000
  C   C239      1.0  0.29500  0.93461  0.75402  1.0000
  H   H224      1.0  0.29906  0.91476  0.81759  1.0000
  C   C240      1.0  0.27720  0.65431  0.56051  1.0000
  H   H225      1.0  0.04907  0.51113  0.80203  1.0000
  Fe  Fe40      1.0  0.30473  0.66453  0.63801  1.0000
  H   H226      1.0  0.17570  0.68208  0.73054  1.0000
  H   H227      1.0  0.07697  0.72259  0.74288  1.0000
  C   C241      1.0  0.29606  0.89877  0.80519  1.0000
  C   C242      1.0  0.08553  0.67512  0.72345  1.0000
  H   H228      1.0  0.06197  0.63611  0.73396  1.0000
  H   H229      1.0  0.30504  0.93570  0.92666  1.0000
  H   H230      1.0  0.27611  0.92011  0.74964  1.0000
  C   C243      1.0  0.07101  0.79528  0.57403  1.0000
  N   N19       1.0  0.23384  0.71332  0.75685  1.0000
  H   H231      1.0  0.18441  0.84459  0.49965  1.0000
  H   H232      1.0  0.19438  0.66205  0.70221  1.0000
  H   H233      1.0  0.27622  0.65206  0.58295  1.0000
  C   C244      1.0  0.31438  0.93035  0.74809  1.0000
  C   C245      1.0  0.01736  0.49663  0.85450  1.0000
  H   H234      1.0  0.18707  0.95283  0.51781  1.0000
  H   H235      1.0  0.03275  0.64416  0.76024  1.0000
  H   H236      1.0  0.04023  0.79108  0.54959  1.0000
  C   C246      1.0  0.20892  0.84706  0.56401  1.0000
  C   C247      1.0  0.05540  0.80347  0.56338  1.0000
  C   C248      1.0  0.24424  0.70248  0.74140  1.0000
  C   C249      1.0  0.01265  0.56719  0.97229  1.0000
  N   N20       1.0  0.08969  0.69908  0.72619  1.0000
  H   H237      1.0  0.27166  0.62140  0.50128  1.0000
  C   C250      1.0  0.04530  0.49211  0.79825  1.0000
  C   C251      1.0  0.07338  0.70357  0.74012  1.0000
  H   H238      1.0  0.26215  0.50211  0.71400  1.0000
  H   H239      1.0  0.28532  0.96079  0.77135  1.0000
  C   C252      1.0  0.20949  0.70605  0.75314  1.0000
  H   H240      1.0  0.25717  0.88504  0.79855  1.0000
  C   C253      1.0  0.05251  0.68384  0.75223  1.0000
  S   S80       1.0  0.27433  0.67485  0.63541  1.0000
  C   C254      1.0  0.20534  0.67619  0.71782  1.0000
  H   H241      1.0  0.23614  0.68765  0.63548  1.0000
  C   C255      1.0  0.27957  0.65970  0.50312  1.0000
  H   H242      1.0  0.31619  0.94769  0.89281  1.0000
  H   H243      1.0  0.19949  0.79159  0.54006  1.0000
  C   C256      1.0  0.19122  0.83905  0.51759  1.0000
  C   C257      1.0  0.04825  0.65942  0.74978  1.0000
  H   H244      1.0  0.26253  0.72991  0.78759  1.0000
  C   C258      1.0  0.28145  0.49872  0.64194  1.0000
  N   N21       1.0  0.28277  0.67683  0.54907  1.0000
  C   C259      1.0  0.30799  0.93038  0.90550  1.0000
  N   N22       1.0  0.05950  0.82695  0.56969  1.0000
  H   H245      1.0  0.21797  0.82680  0.60692  1.0000
  C   C260      1.0  0.24934  0.73388  0.77622  1.0000
  C   C261      1.0  0.20017  0.85454  0.54113  1.0000
  H   H246      1.0  0.10661  0.72844  0.69674  1.0000
  Fe  Fe41      1.0  0.00745  0.56956  0.84500  1.0000
  H   H247      1.0  0.08299  0.86184  0.59041  1.0000
  H   H248      1.0  0.23744  0.82188  0.58343  1.0000
  C   C262      1.0  0.28394  0.67971  0.52074  1.0000
  H   H249      1.0  0.10334  0.80537  0.59945  1.0000
  C   C263      1.0  0.31111  0.57206  0.60909  1.0000
  C   C264      1.0  0.18613  0.96802  0.50771  1.0000
  C   C265      1.0  0.19096  0.81629  0.51718  1.0000
  S   S81       1.0  0.30819  0.58994  0.68401  1.0000
  C   C266      1.0  0.30016  0.95731  0.76632  1.0000
  C   C267      1.0  0.04389  0.83580  0.55701  1.0000
  C   C268      1.0  0.19975  0.80933  0.54048  1.0000
  H   H250      1.0  0.31147  0.51565  0.67175  1.0000
  H   H251      1.0  0.30409  0.58208  0.62191  1.0000
  C   C269      1.0  0.19489  0.68742  0.73359  1.0000
  H   H252      1.0  0.02499  0.81994  0.55254  1.0000
  H   H253      1.0  0.26377  0.70899  0.74345  1.0000
  H   H254      1.0  0.11068  0.84796  0.61040  1.0000
  H   H255      1.0  0.03547  0.50657  0.86418  1.0000
  H   H256      1.0  0.25991  0.75156  0.76438  1.0000
  H   H257      1.0  0.12184  0.73493  0.73062  1.0000
  H   H258      1.0  0.20121  0.71479  0.76509  1.0000
  C   C270      1.0  0.27416  0.63676  0.51466  1.0000
  H   H259      1.0  0.05202  0.84525  0.53706  1.0000
  H   H260      1.0  0.28977  0.91649  0.89645  1.0000
  C   C271      1.0  0.28013  0.52719  0.60840  1.0000
  H   H261      1.0  0.04210  0.84918  0.57097  1.0000
  H   H262      1.0  0.08057  0.49941  0.81350  1.0000
  C   C272      1.0  0.31142  0.87414  0.78330  1.0000
  H   H263      1.0  0.27053  0.53055  0.59151  1.0000
  H   H264      1.0  0.29348  0.71551  0.55609  1.0000
  C   C273      1.0  0.30303  0.51856  0.65333  1.0000
  Fe  Fe42      1.0  0.31658  0.62381  0.65705  1.0000
  C   C274      1.0  0.26987  0.50301  0.61936  1.0000
  C   C275      1.0  0.31585  0.89504  0.79969  1.0000
  H   H265      1.0  0.31555  0.90586  0.86468  1.0000
  H   H266      1.0  0.31918  0.60976  0.49797  1.0000
  H   H267      1.0  0.98743  0.53183  0.95267  1.0000
  Fe  Fe43      1.0  0.39227  0.01753  0.14766  1.0000
  H   H268      1.0  0.47203  0.17557  0.36939  1.0000
  S   S82       1.0  0.40932  0.05937  0.15979  1.0000
  C   C276      1.0  0.33603  0.15510  0.35204  1.0000
  S   S83       1.0  0.41767  0.00949  0.12216  1.0000
  H   H269      1.0  0.43098  0.06442  0.21483  1.0000
  C   C277      1.0  0.61143  0.03987  0.04817  1.0000
  Fe  Fe44      1.0  0.62076  0.01094  0.16290  1.0000
  H   H270      1.0  0.62381  0.04445  0.06599  1.0000
  S   S84       1.0  0.64438  0.28636  0.35376  1.0000
  H   H271      1.0  0.51254  0.45703  0.17757  1.0000
  C   C278      1.0  0.57004  0.02208  0.02968  1.0000
  S   S85       1.0  0.61049  0.02245  0.12276  1.0000
  Fe  Fe45      1.0  0.62945  0.31119  0.33917  1.0000
  S   S86       1.0  0.64519  0.03509  0.19980  1.0000
  S   S87       1.0  0.59216  0.30563  0.32375  1.0000
  H   H272      1.0  0.43170  0.45856  0.05358  1.0000
  S   S88       1.0  0.64512  0.33712  0.37645  1.0000
  Fe  Fe46      1.0  0.39857  0.19560  0.30410  1.0000
  S   S89       1.0  0.38159  0.18908  0.26089  1.0000
  S   S90       1.0  0.38303  0.19718  0.34680  1.0000
  Fe  Fe47      1.0  0.44913  0.20689  0.28141  1.0000
  S   S91       1.0  0.43533  0.20074  0.23687  1.0000
  S   S92       1.0  0.48617  0.21080  0.29481  1.0000
  Fe  Fe48      1.0  0.41704  0.22329  0.24828  1.0000
  S   S93       1.0  0.42387  0.25632  0.21986  1.0000
  Fe  Fe49      1.0  0.40114  0.16710  0.25250  1.0000
  S   S94       1.0  0.37955  0.12783  0.23220  1.0000
  S   S95       1.0  0.43312  0.23126  0.29201  1.0000
  S   S96       1.0  0.41578  0.17175  0.29649  1.0000
  Fe  Fe50      1.0  0.37917  0.34887  0.14672  1.0000
  S   S97       1.0  0.39615  0.38384  0.17335  1.0000
  S   S98       1.0  0.36790  0.31031  0.16604  1.0000
  Fe  Fe51      1.0  0.37213  0.37689  0.09666  1.0000
  S   S99       1.0  0.38774  0.41308  0.12136  1.0000
  S   S100      1.0  0.36091  0.38104  0.05208  1.0000
  Fe  Fe52      1.0  0.41687  0.40430  0.13507  1.0000
  S   S101      1.0  0.45800  0.43081  0.12864  1.0000
  Fe  Fe53      1.0  0.36523  0.38963  0.15728  1.0000
  S   S102      1.0  0.40203  0.36877  0.10924  1.0000
  S   S103      1.0  0.34746  0.35400  0.13185  1.0000
  C   C279      1.0  0.36779  0.37390  0.01850  1.0000
  C   C280      1.0  0.42723  0.19652  0.16204  1.0000
  C   C281      1.0  0.37809  0.35855  0.01475  1.0000
  C   C282      1.0  0.47208  0.25303  0.36283  1.0000
  H   H273      1.0  0.38187  0.35032  0.03267  1.0000
  C   C283      1.0  0.47486  0.46378  0.13391  1.0000
  C   C284      1.0  0.51451  0.99614  0.13484  1.0000
  C   C285      1.0  0.46304  0.06270  0.17979  1.0000
  C   C286      1.0  0.42096  0.00904  0.24095  1.0000
  H   H274      1.0  0.35564  0.36303  0.22101  1.0000
  H   H275      1.0  0.44693  0.46619  0.15688  1.0000
  C   C287      1.0  0.62770  0.37862  0.34269  1.0000
  C   C288      1.0  0.38406  0.29617  0.18176  1.0000
  C   C289      1.0  0.37055  0.27313  0.19565  1.0000
  C   C290      1.0  0.38233  0.26091  0.20793  1.0000
  C   C291      1.0  0.40788  0.27141  0.20619  1.0000
  C   C292      1.0  0.42136  0.29441  0.19225  1.0000
  C   C293      1.0  0.40963  0.30680  0.18033  1.0000
  H   H276      1.0  0.35078  0.26462  0.19691  1.0000
  H   H277      1.0  0.37160  0.24330  0.21853  1.0000
  H   H278      1.0  0.44110  0.30275  0.19064  1.0000
  H   H279      1.0  0.42036  0.32440  0.16969  1.0000
  C   C294      1.0  0.41239  0.17049  0.16343  1.0000
  H   H280      1.0  0.43256  0.23657  0.36279  1.0000
  C   C295      1.0  0.41884  0.03039  0.23756  1.0000
  C   C296      1.0  0.56299  0.27889  0.31542  1.0000
  C   C297      1.0  0.55857  0.25433  0.31758  1.0000
  C   C298      1.0  0.53508  0.23383  0.31075  1.0000
  C   C299      1.0  0.51569  0.23754  0.30171  1.0000
  C   C300      1.0  0.52007  0.26209  0.29964  1.0000
  C   C301      1.0  0.54357  0.28259  0.30646  1.0000
  H   H281      1.0  0.57327  0.25113  0.32438  1.0000
  H   H282      1.0  0.53193  0.21493  0.31244  1.0000
  H   H283      1.0  0.50538  0.26529  0.29278  1.0000
  H   H284      1.0  0.54674  0.30149  0.30464  1.0000
  C   C302      1.0  0.52846  0.47553  0.18121  1.0000
  C   C303      1.0  0.50058  0.00701  0.12572  1.0000
  C   C304      1.0  0.49151  0.24816  0.36226  1.0000
  C   C305      1.0  0.55183  0.48103  0.17254  1.0000
  C   C306      1.0  0.63611  0.37196  0.29445  1.0000
  N   N23       1.0  0.46262  0.20383  0.36134  1.0000
  C   C307      1.0  0.58611  0.02868  0.05254  1.0000
  C   C308      1.0  0.43931  0.41007  0.05071  1.0000
  C   C309      1.0  0.64709  0.05614  0.01781  1.0000
  C   C310      1.0  0.40066  0.07770  0.18072  1.0000
  C   C311      1.0  0.41831  0.10294  0.18671  1.0000
  C   C312      1.0  0.41245  0.11834  0.20300  1.0000
  C   C313      1.0  0.38867  0.10882  0.21328  1.0000
  C   C314      1.0  0.37104  0.08359  0.20731  1.0000
  C   C315      1.0  0.37701  0.06806  0.19141  1.0000
  H   H285      1.0  0.43666  0.11068  0.17859  1.0000
  H   H286      1.0  0.42626  0.13765  0.20733  1.0000
  H   H287      1.0  0.35255  0.07596  0.21501  1.0000
  H   H288      1.0  0.36317  0.04877  0.18703  1.0000
  C   C316      1.0  0.35274  0.18228  0.39239  1.0000
  C   C317      1.0  0.35539  0.17657  0.36464  1.0000
  H   H289      1.0  0.46274  0.08051  0.18225  1.0000
  H   H290      1.0  0.36757  0.19881  0.40241  1.0000
  H   H291      1.0  0.50789  0.02134  0.10993  1.0000
  H   H292      1.0  0.45157  0.38410  0.03987  1.0000
  H   H293      1.0  0.45745  0.17339  0.33603  1.0000
  H   H294      1.0  0.57898  0.02481  0.07354  1.0000
  C   C318      1.0  0.42395  0.43894  0.06071  1.0000
  C   C319      1.0  0.46541  0.47646  0.14890  1.0000
  H   H295      1.0  0.55382  0.46635  0.16256  1.0000
  H   H296      1.0  0.48254  0.06724  0.18030  1.0000
  H   H297      1.0  0.35152  0.17768  0.20438  1.0000
  H   H298      1.0  0.46632  0.00722  0.12862  1.0000
  H   H299      1.0  0.43169  0.43971  0.08192  1.0000
  H   H300      1.0  0.35089  0.14843  0.20719  1.0000
  H   H301      1.0  0.45470  0.05466  0.15903  1.0000
  H   H302      1.0  0.41942  0.15832  0.15726  1.0000
  C   C320      1.0  0.33115  0.16679  0.40736  1.0000
  C   C321      1.0  0.45765  0.17799  0.35848  1.0000
  H   H303      1.0  0.35463  0.39590  0.99736  1.0000
  H   H304      1.0  0.61598  0.35783  0.34252  1.0000
  N   N24       1.0  0.32087  0.33372  0.20653  1.0000
  H   H305      1.0  0.35637  0.33659  0.20675  1.0000
  H   H306      1.0  0.34310  0.33402  0.24040  1.0000
  N   N25       1.0  0.44900  0.04467  0.20153  1.0000
  H   H307      1.0  0.64187  0.38384  0.35949  1.0000
  C   C322      1.0  0.36279  0.38418  0.99479  1.0000
  C   C323      1.0  0.34515  0.34219  0.21936  1.0000
  C   C324      1.0  0.44347  0.20846  0.36188  1.0000
  H   H308      1.0  0.40581  0.03294  0.24974  1.0000
  C   C325      1.0  0.63498  0.99809  0.00319  1.0000
  S   S104      1.0  0.34602  0.40059  0.19062  1.0000
  C   C326      1.0  0.49895  0.47742  0.12377  1.0000
  C   C327      1.0  0.43724  0.00569  0.22446  1.0000
  C   C328      1.0  0.45109  0.02374  0.20462  1.0000
  H   H309      1.0  0.42935  0.23212  0.16979  1.0000
  C   C329      1.0  0.44789  0.23308  0.36285  1.0000
  H   H310      1.0  0.43955  0.16438  0.36736  1.0000
  H   H311      1.0  0.46317  0.02062  0.19132  1.0000
  H   H312      1.0  0.44598  0.20484  0.15481  1.0000
  C   C330      1.0  0.44012  0.39663  0.00368  1.0000
  C   C331      1.0  0.43313  0.04814  0.21768  1.0000
  H   H313      1.0  0.40363  0.43014  0.06227  1.0000
  C   C332      1.0  0.42505  0.42496  0.01335  1.0000
  H   H314      1.0  0.47572  0.27220  0.36272  1.0000
  C   C333      1.0  0.48641  0.22329  0.36153  1.0000
  H   H315      1.0  0.42459  0.19308  0.36108  1.0000
  H   H316      1.0  0.61583  0.38666  0.34766  1.0000
  H   H317      1.0  0.51041  0.26347  0.36137  1.0000
  H   H318      1.0  0.44267  0.40928  0.07282  1.0000
  H   H319      1.0  0.33767  0.15042  0.33075  1.0000
  N   N26       1.0  0.37967  0.17531  0.18217  1.0000
  C   C334      1.0  0.39394  0.20084  0.18043  1.0000
  C   C335      1.0  0.38843  0.16015  0.17335  1.0000
  C   C336      1.0  0.41792  0.21182  0.17039  1.0000
  H   H320      1.0  0.32356  0.30895  0.17746  1.0000
  H   H321      1.0  0.62421  0.35189  0.29688  1.0000
  C   C337      1.0  0.35452  0.16390  0.19260  1.0000
  H   H322      1.0  0.38706  0.21298  0.18725  1.0000
  H   H323      1.0  0.37704  0.13989  0.17454  1.0000
  H   H324      1.0  0.50157  0.21967  0.35983  1.0000
  H   H325      1.0  0.55036  0.01302  0.03286  1.0000
  H   H326      1.0  0.34108  0.15623  0.17495  1.0000
  H   H327      1.0  0.50642  0.46777  0.11212  1.0000
  N   N27       1.0  0.42984  0.42448  0.04116  1.0000
  C   C338      1.0  0.64811  0.38099  0.26918  1.0000
  N   N28       1.0  0.62044  0.04418  0.02174  1.0000
  S   S105      1.0  0.63203  0.99752  0.06052  1.0000
  H   H328      1.0  0.32953  0.17145  0.42867  1.0000
  H   H329      1.0  0.64566  0.36800  0.25248  1.0000
  N   N29       1.0  0.63973  0.38814  0.31596  1.0000
  S   S106      1.0  0.54288  0.00497  0.11856  1.0000
  Fe  Fe54      1.0  0.57108  0.99353  0.13164  1.0000
  H   H330      1.0  0.60991  0.29027  0.48777  1.0000
  C   C339      1.0  0.47698  0.99903  0.13628  1.0000
  C   C340      1.0  0.44454  0.39589  0.03214  1.0000
  C   C341      1.0  0.43041  0.41132  0.99416  1.0000
  H   H331      1.0  0.41645  0.43542  0.00595  1.0000
  H   H332      1.0  0.33353  0.46922  0.22808  1.0000
  H   H333      1.0  0.32120  0.48012  0.26917  1.0000
  H   H334      1.0  0.32538  0.45275  0.17977  1.0000
  H   H335      1.0  0.40959  0.99482  0.25584  1.0000
  H   H336      1.0  0.48471  0.99407  0.04645  1.0000
  H   H337      1.0  0.65139  0.05203  0.99674  1.0000
  C   C342      1.0  0.57941  0.02685  0.00278  1.0000
  C   C343      1.0  0.60484  0.03810  0.99917  1.0000
  H   H338      1.0  0.32230  0.40983  0.23612  1.0000
  S   S107      1.0  0.35902  0.99158  0.12087  1.0000
  H   H339      1.0  0.50738  0.49058  0.19957  1.0000
  Fe  Fe55      1.0  0.38460  0.01105  0.82797  1.0000
  S   S108      1.0  0.37693  0.03430  0.79605  1.0000
  S   S109      1.0  0.40655  0.02117  0.86821  1.0000
  C   C344      1.0  0.33107  0.16446  0.57659  1.0000
  S   S110      1.0  0.58913  0.01139  0.86378  1.0000
  C   C345      1.0  0.51522  0.99188  0.85629  1.0000
  Fe  Fe56      1.0  0.62079  0.01739  0.83651  1.0000
  C   C346      1.0  0.32111  0.12135  0.67860  1.0000
  H   H340      1.0  0.60880  0.25109  0.50240  1.0000
  H   H341      1.0  0.53283  0.99798  0.86648  1.0000
  Fe  Fe57      1.0  0.62698  0.29735  0.63960  1.0000
  S   S111      1.0  0.58684  0.26560  0.64388  1.0000
  H   H342      1.0  0.60334  0.06805  0.83135  1.0000
  Fe  Fe58      1.0  0.40156  0.18581  0.68525  1.0000
  S   S112      1.0  0.38684  0.17583  0.72889  1.0000
  S   S113      1.0  0.37669  0.15961  0.65017  1.0000
  Fe  Fe59      1.0  0.45295  0.22550  0.70609  1.0000
  S   S114      1.0  0.44132  0.21755  0.75071  1.0000
  S   S115      1.0  0.49235  0.25847  0.70211  1.0000
  Fe  Fe60      1.0  0.42221  0.17646  0.73932  1.0000
  S   S116      1.0  0.43024  0.15226  0.76933  1.0000
  Fe  Fe61      1.0  0.40701  0.21775  0.73716  1.0000
  S   S117      1.0  0.39076  0.23477  0.76723  1.0000
  S   S118      1.0  0.43630  0.18451  0.69550  1.0000
  S   S119      1.0  0.41927  0.22771  0.69275  1.0000
  Fe  Fe62      1.0  0.38909  0.36085  0.82489  1.0000
  S   S120      1.0  0.38145  0.39122  0.80996  1.0000
  S   S121      1.0  0.39876  0.34142  0.79009  1.0000
  Fe  Fe63      1.0  0.38337  0.37125  0.88659  1.0000
  S   S122      1.0  0.37514  0.40178  0.87576  1.0000
  S   S123      1.0  0.38750  0.35892  0.93060  1.0000
  Fe  Fe64      1.0  0.35105  0.37645  0.84081  1.0000
  Fe  Fe65      1.0  0.40619  0.41479  0.84545  1.0000
  S   S124      1.0  0.42998  0.45705  0.83952  1.0000
  S   S125      1.0  0.35684  0.34439  0.85384  1.0000
  S   S126      1.0  0.41619  0.38587  0.85819  1.0000
  C   C347      1.0  0.46260  0.47410  0.84345  1.0000
  C   C348      1.0  0.33092  0.14213  0.58236  1.0000
  C   C349      1.0  0.47594  0.46236  0.85109  1.0000
  H   H343      1.0  0.35128  0.34449  0.72364  1.0000
  H   H344      1.0  0.46635  0.44237  0.85473  1.0000
  C   C350      1.0  0.36835  0.37957  0.96775  1.0000
  C   C351      1.0  0.37869  0.36425  0.96399  1.0000
  H   H345      1.0  0.52937  0.99402  0.76817  1.0000
  H   H346      1.0  0.36460  0.38784  0.94983  1.0000
  C   C352      1.0  0.59371  0.26768  0.56346  1.0000
  C   C353      1.0  0.39498  0.31110  0.78352  1.0000
  C   C354      1.0  0.38314  0.29116  0.80202  1.0000
  C   C355      1.0  0.38135  0.26778  0.79615  1.0000
  C   C356      1.0  0.39161  0.26401  0.77195  1.0000
  C   C357      1.0  0.40298  0.28380  0.75316  1.0000
  C   C358      1.0  0.40452  0.30709  0.75887  1.0000
  H   H347      1.0  0.37558  0.29379  0.82101  1.0000
  H   H348      1.0  0.37237  0.25262  0.81081  1.0000
  H   H349      1.0  0.41080  0.28124  0.73436  1.0000
  H   H350      1.0  0.41355  0.32226  0.74424  1.0000
  C   C359      1.0  0.56067  0.26469  0.65909  1.0000
  C   C360      1.0  0.53738  0.24307  0.65521  1.0000
  C   C361      1.0  0.51620  0.24099  0.66770  1.0000
  C   C362      1.0  0.51807  0.26053  0.68441  1.0000
  C   C363      1.0  0.54130  0.28226  0.68804  1.0000
  C   C364      1.0  0.56246  0.28437  0.67547  1.0000
  H   H351      1.0  0.53572  0.22775  0.64251  1.0000
  H   H352      1.0  0.49849  0.22420  0.66460  1.0000
  H   H353      1.0  0.54300  0.29756  0.70081  1.0000
  H   H354      1.0  0.58019  0.30112  0.67869  1.0000
  H   H355      1.0  0.58947  0.26137  0.58481  1.0000
  Fe  Fe66      1.0  0.41927  0.99450  0.85400  1.0000
  C   C365      1.0  0.59039  0.30475  0.57533  1.0000
  N   N30       1.0  0.59497  0.28958  0.55535  1.0000
  C   C366      1.0  0.32879  0.42886  0.86270  1.0000
  H   H356      1.0  0.52742  0.04937  0.83318  1.0000
  H   H357      1.0  0.59302  0.03747  0.79303  1.0000
  C   C367      1.0  0.39205  0.06725  0.78919  1.0000
  C   C368      1.0  0.38243  0.07601  0.76813  1.0000
  C   C369      1.0  0.39370  0.10184  0.76181  1.0000
  C   C370      1.0  0.41488  0.11936  0.77648  1.0000
  C   C371      1.0  0.42455  0.11059  0.79746  1.0000
  C   C372      1.0  0.41324  0.08477  0.80382  1.0000
  H   H358      1.0  0.36608  0.06272  0.75662  1.0000
  H   H359      1.0  0.38601  0.10816  0.74560  1.0000
  H   H360      1.0  0.44087  0.12387  0.80902  1.0000
  H   H361      1.0  0.42092  0.07846  0.82008  1.0000
  C   C373      1.0  0.54206  0.04724  0.82418  1.0000
  H   H362      1.0  0.55943  0.99824  0.77168  1.0000
  H   H363      1.0  0.34531  0.31384  0.79140  1.0000
  C   C374      1.0  0.60483  0.28347  0.50886  1.0000
  C   C375      1.0  0.36061  0.16267  0.62096  1.0000
  C   C376      1.0  0.36119  0.18513  0.61479  1.0000
  C   C377      1.0  0.47705  0.99344  0.85242  1.0000
  H   H364      1.0  0.59842  0.23659  0.55139  1.0000
  H   H365      1.0  0.51192  0.46716  0.85965  1.0000
  N   N31       1.0  0.34029  0.44009  0.83618  1.0000
  N   N32       1.0  0.55490  0.02644  0.79173  1.0000
  C   C378      1.0  0.36224  0.46206  0.78618  1.0000
  H   H366      1.0  0.60190  0.31515  0.52218  1.0000
  C   C379      1.0  0.34567  0.14130  0.60435  1.0000
  C   C380      1.0  0.59863  0.25347  0.54458  1.0000
  H   H367      1.0  0.37266  0.20175  0.62723  1.0000
  C   C381      1.0  0.54924  0.00856  0.76875  1.0000
  H   H368      1.0  0.39116  0.34164  0.98506  1.0000
  H   H369      1.0  0.33093  0.39558  0.77891  1.0000
  S   S127      1.0  0.63880  0.33676  0.62650  1.0000
  H   H370      1.0  0.57039  0.07409  0.85189  1.0000
  C   C382      1.0  0.38329  0.35362  0.98767  1.0000
  N   N33       1.0  0.44918  0.29559  0.79587  1.0000
  C   C383      1.0  0.45241  0.27959  0.77899  1.0000
  C   C384      1.0  0.45726  0.31979  0.78789  1.0000
  C   C385      1.0  0.46352  0.28749  0.75307  1.0000
  C   C386      1.0  0.46843  0.32831  0.76209  1.0000
  C   C387      1.0  0.47154  0.31200  0.74460  1.0000
  C   C388      1.0  0.43782  0.28700  0.82311  1.0000
  H   H371      1.0  0.44574  0.26034  0.78521  1.0000
  H   H372      1.0  0.45447  0.33243  0.80114  1.0000
  H   H373      1.0  0.46566  0.27463  0.73946  1.0000
  H   H374      1.0  0.47432  0.34734  0.75560  1.0000
  H   H375      1.0  0.47998  0.31822  0.72442  1.0000
  H   H376      1.0  0.42366  0.26669  0.82226  1.0000
  H   H377      1.0  0.45207  0.29007  0.83902  1.0000
  H   H378      1.0  0.42816  0.29713  0.82963  1.0000
  C   C389      1.0  0.60432  0.26153  0.51714  1.0000
  S   S128      1.0  0.64176  0.05641  0.81614  1.0000
  H   H379      1.0  0.58971  0.29827  0.59709  1.0000
  C   C390      1.0  0.34656  0.18601  0.59269  1.0000
  H   H380      1.0  0.39482  0.46340  0.80365  1.0000
  H   H381      1.0  0.34693  0.20342  0.58832  1.0000
  H   H382      1.0  0.34523  0.12387  0.60878  1.0000
  C   C391      1.0  0.33125  0.31856  0.78608  1.0000
  C   C392      1.0  0.50180  0.47648  0.85389  1.0000
  C   C393      1.0  0.35511  0.34110  0.74537  1.0000
  C   C394      1.0  0.56610  0.06097  0.83476  1.0000
  C   C395      1.0  0.32272  0.16169  0.67123  1.0000
  C   C396      1.0  0.53679  0.03005  0.80241  1.0000
  H   H383      1.0  0.33669  0.41773  0.87165  1.0000
  H   H384      1.0  0.56708  0.02130  0.98477  1.0000
  N   N34       1.0  0.51193  0.21796  0.73967  1.0000
  C   C397      1.0  0.49036  0.19597  0.74343  1.0000
  C   C398      1.0  0.52908  0.21896  0.72162  1.0000
  C   C399      1.0  0.48509  0.17443  0.72818  1.0000
  C   C400      1.0  0.52437  0.19780  0.70592  1.0000
  C   C401      1.0  0.50216  0.17543  0.70918  1.0000
  C   C402      1.0  0.51715  0.24021  0.75612  1.0000
  H   H385      1.0  0.47698  0.19499  0.75819  1.0000
  H   H386      1.0  0.54624  0.23638  0.71863  1.0000
  H   H387      1.0  0.46777  0.15711  0.73107  1.0000
  H   H388      1.0  0.53777  0.19894  0.69107  1.0000
  H   H389      1.0  0.49815  0.15890  0.69703  1.0000
  H   H390      1.0  0.52492  0.23964  0.77683  1.0000
  H   H391      1.0  0.53027  0.25774  0.74530  1.0000
  H   H392      1.0  0.50006  0.24114  0.75890  1.0000
  C   C403      1.0  0.36446  0.44726  0.83202  1.0000
  H   H393      1.0  0.63829  0.00159  0.95830  1.0000
  H   H394      1.0  0.33653  0.13250  0.69359  1.0000
  C   C404      1.0  0.62578  0.99526  0.97558  1.0000
  H   H395      1.0  0.50582  0.01395  0.88301  1.0000
  H   H396      1.0  0.60551  0.32464  0.57461  1.0000
  H   H397      1.0  0.32691  0.45784  0.77476  1.0000
  S   S129      1.0  0.45952  0.00699  0.86378  1.0000
  C   C405      1.0  0.58454  0.05756  0.82332  1.0000
  H   H398      1.0  0.42602  0.41120  0.97217  1.0000
  C   C406      1.0  0.57859  0.04015  0.80164  1.0000
  C   C407      1.0  0.60021  0.29742  0.52840  1.0000
  H   H399      1.0  0.37055  0.35877  0.75430  1.0000
  C   C408      1.0  0.37573  0.45814  0.80691  1.0000
  H   H400      1.0  0.33642  0.16999  0.68788  1.0000
  H   H401      1.0  0.51794  0.01906  0.79476  1.0000
  H   H402      1.0  0.57260  0.30373  0.57032  1.0000
  N   N35       1.0  0.33340  0.33229  0.76283  1.0000
  H   H403      1.0  0.37069  0.47025  0.76650  1.0000
  S   S130      1.0  0.64620  0.29046  0.60408  1.0000
  H   H404      1.0  0.37523  0.44452  0.84804  1.0000
  S   S131      1.0  0.63094  0.99425  0.86469  1.0000
  C   C409      1.0  0.49989  0.00093  0.86559  1.0000
  H   H405      1.0  0.32884  0.99336  0.78166  1.0000
  H   H406      1.0  0.61189  0.04114  0.97817  1.0000
  C   C410      1.0  0.33779  0.45529  0.79087  1.0000
  H   H407      1.0  0.32379  0.19654  0.66210  1.0000
  H   H408      1.0  0.36123  0.32699  0.74445  1.0000
  H   H409      1.0  0.55431  0.01858  0.74862  1.0000
  C   C411      1.0  0.32707  0.44433  0.81619  1.0000
  H   H410      1.0  0.44341  0.38521  0.98904  1.0000
  H   H411      1.0  0.33148  0.44373  0.87779  1.0000
  H   H412      1.0  0.32816  0.11279  0.66355  1.0000
  H   H413      1.0  0.34166  0.99115  0.98305  1.0000
  H   H414      1.0  0.41490  0.95322  0.08602  1.0000
  S   S132      1.0  0.37660  0.94958  0.12655  1.0000
  C   C412      1.0  0.62715  0.80517  0.36870  1.0000
  Fe  Fe67      1.0  0.35394  0.96123  0.15158  1.0000
  H   H415      1.0  0.47401  0.95543  0.18176  1.0000
  H   H416      1.0  0.41961  0.74780  0.39580  1.0000
  S   S133      1.0  0.57252  0.96213  0.10931  1.0000
  Fe  Fe68      1.0  0.58546  0.95455  0.15060  1.0000
  S   S134      1.0  0.56645  0.91520  0.17019  1.0000
  Fe  Fe69      1.0  0.61750  0.58768  0.15533  1.0000
  S   S135      1.0  0.59040  0.59699  0.17495  1.0000
  C   C413      1.0  0.38241  0.97943  0.01830  1.0000
  Fe  Fe70      1.0  0.60125  0.59323  0.09548  1.0000
  S   S136      1.0  0.57357  0.60320  0.11135  1.0000
  S   S137      1.0  0.60301  0.58169  0.05018  1.0000
  Fe  Fe71      1.0  0.60246  0.62761  0.14345  1.0000
  S   S138      1.0  0.60838  0.66704  0.15279  1.0000
  Fe  Fe72      1.0  0.56318  0.57210  0.14200  1.0000
  S   S139      1.0  0.52307  0.54803  0.15421  1.0000
  S   S140      1.0  0.63152  0.62006  0.12530  1.0000
  S   S141      1.0  0.58887  0.56041  0.12475  1.0000
  S   S142      1.0  0.63652  0.57275  0.18505  1.0000
  C   C414      1.0  0.61373  0.92415  0.24570  1.0000
  S   S143      1.0  0.34812  0.69154  0.36067  1.0000
  N   N36       1.0  0.60076  0.93535  0.23685  1.0000
  Fe  Fe73      1.0  0.35491  0.66153  0.34383  1.0000
  S   S144      1.0  0.39207  0.66569  0.33189  1.0000
  S   S145      1.0  0.33588  0.63519  0.37953  1.0000
  Fe  Fe74      1.0  0.53102  0.76526  0.27924  1.0000
  S   S146      1.0  0.54587  0.76670  0.23616  1.0000
  S   S147      1.0  0.49204  0.75832  0.28722  1.0000
  Fe  Fe75      1.0  0.58214  0.78380  0.30764  1.0000
  S   S148      1.0  0.60024  0.78634  0.26668  1.0000
  S   S149      1.0  0.59737  0.78864  0.35253  1.0000
  Fe  Fe76      1.0  0.57818  0.80397  0.25017  1.0000
  S   S150      1.0  0.59859  0.84062  0.22515  1.0000
  Fe  Fe77      1.0  0.56674  0.74906  0.25541  1.0000
  S   S151      1.0  0.56557  0.71215  0.24265  1.0000
  S   S152      1.0  0.56230  0.80351  0.29203  1.0000
  S   S153      1.0  0.54972  0.74555  0.29761  1.0000
  H   H417      1.0  0.43645  0.92461  0.13712  1.0000
  H   H418      1.0  0.61234  0.95396  0.19835  1.0000
  H   H419      1.0  0.63312  0.93246  0.24116  1.0000
  C   C415      1.0  0.46414  0.73179  0.29826  1.0000
  C   C416      1.0  0.46269  0.70911  0.30559  1.0000
  C   C417      1.0  0.44037  0.68901  0.31532  1.0000
  C   C418      1.0  0.41925  0.69130  0.31805  1.0000
  C   C419      1.0  0.42067  0.71395  0.31066  1.0000
  C   C420      1.0  0.44294  0.73397  0.30069  1.0000
  H   H420      1.0  0.47876  0.70708  0.30379  1.0000
  H   H421      1.0  0.43949  0.67156  0.32086  1.0000
  H   H422      1.0  0.40463  0.71603  0.31253  1.0000
  H   H423      1.0  0.44379  0.75138  0.29498  1.0000
  C   C421      1.0  0.60631  0.59483  0.01633  1.0000
  C   C422      1.0  0.60979  0.61885  0.01196  1.0000
  H   H424      1.0  0.58132  0.97372  0.03828  1.0000
  H   H425      1.0  0.61119  0.63042  0.02966  1.0000
  C   C423      1.0  0.58888  0.72968  0.35312  1.0000
  C   C424      1.0  0.59819  0.67985  0.17957  1.0000
  C   C425      1.0  0.60386  0.70505  0.17776  1.0000
  C   C426      1.0  0.59468  0.71553  0.19719  1.0000
  C   C427      1.0  0.57963  0.70091  0.21881  1.0000
  C   C428      1.0  0.57455  0.67594  0.22109  1.0000
  C   C429      1.0  0.58373  0.66548  0.20168  1.0000
  H   H426      1.0  0.61509  0.71645  0.16086  1.0000
  H   H427      1.0  0.59884  0.73474  0.19504  1.0000
  H   H428      1.0  0.56308  0.66445  0.23779  1.0000
  H   H429      1.0  0.57940  0.64621  0.20367  1.0000
  C   C430      1.0  0.48018  0.50242  0.15430  1.0000
  C   C431      1.0  0.50445  0.51596  0.14464  1.0000
  H   H430      1.0  0.53228  0.51356  0.12143  1.0000
  C   C432      1.0  0.43352  0.95679  0.08345  1.0000
  H   H431      1.0  0.56713  0.87107  0.27335  1.0000
  H   H432      1.0  0.44184  0.98535  0.05267  1.0000
  C   C433      1.0  0.58876  0.85986  0.20773  1.0000
  C   C434      1.0  0.60649  0.88209  0.19487  1.0000
  C   C435      1.0  0.60000  0.89889  0.18256  1.0000
  C   C436      1.0  0.57557  0.89367  0.18285  1.0000
  C   C437      1.0  0.55773  0.87109  0.19498  1.0000
  C   C438      1.0  0.56424  0.85434  0.20739  1.0000
  H   H433      1.0  0.62548  0.88650  0.19473  1.0000
  H   H434      1.0  0.61394  0.91595  0.17307  1.0000
  H   H435      1.0  0.53875  0.86668  0.19521  1.0000
  H   H436      1.0  0.55032  0.83731  0.21697  1.0000
  C   C439      1.0  0.62087  0.74466  0.28478  1.0000
  H   H437      1.0  0.44880  0.75151  0.35707  1.0000
  H   H438      1.0  0.61195  0.89161  0.26518  1.0000
  C   C440      1.0  0.51366  0.50339  0.12899  1.0000
  H   H439      1.0  0.33399  0.89992  0.18179  1.0000
  C   C441      1.0  0.50487  0.97765  0.15528  1.0000
  C   C442      1.0  0.64867  0.81899  0.35353  1.0000
  H   H440      1.0  0.63625  0.76429  0.36205  1.0000
  C   C443      1.0  0.57592  0.92391  0.24083  1.0000
  C   C444      1.0  0.54587  0.51837  0.19710  1.0000
  C   C445      1.0  0.61312  0.95861  0.22084  1.0000
  C   C446      1.0  0.60274  0.73395  0.30504  1.0000
  N   N37       1.0  0.43116  0.72157  0.38574  1.0000
  C   C447      1.0  0.41584  0.72866  0.39758  1.0000
  C   C448      1.0  0.42621  0.69732  0.38769  1.0000
  C   C449      1.0  0.39494  0.71125  0.41184  1.0000
  C   C450      1.0  0.40531  0.67937  0.40152  1.0000
  C   C451      1.0  0.38969  0.68646  0.41378  1.0000
  C   C452      1.0  0.45337  0.74044  0.37176  1.0000
  H   H441      1.0  0.58467  0.54194  0.19095  1.0000
  H   H442      1.0  0.43790  0.69144  0.37767  1.0000
  H   H443      1.0  0.38255  0.71675  0.42086  1.0000
  H   H444      1.0  0.40085  0.65993  0.40188  1.0000
  H   H445      1.0  0.37328  0.67268  0.42433  1.0000
  H   H446      1.0  0.41148  0.92853  0.12606  1.0000
  H   H447      1.0  0.46190  0.73170  0.35919  1.0000
  N   N38       1.0  0.53456  0.63513  0.15939  1.0000
  C   C453      1.0  0.52412  0.64210  0.17983  1.0000
  C   C454      1.0  0.54822  0.65173  0.13918  1.0000
  C   C455      1.0  0.52711  0.66621  0.18023  1.0000
  C   C456      1.0  0.55154  0.67595  0.13892  1.0000
  C   C457      1.0  0.54094  0.68321  0.15964  1.0000
  C   C458      1.0  0.53267  0.61042  0.16005  1.0000
  H   H448      1.0  0.51405  0.62932  0.19646  1.0000
  H   H449      1.0  0.55756  0.64665  0.12382  1.0000
  H   H450      1.0  0.51969  0.67209  0.19708  1.0000
  H   H451      1.0  0.56320  0.68934  0.12349  1.0000
  H   H452      1.0  0.54420  0.70226  0.16040  1.0000
  H   H453      1.0  0.52820  0.60158  0.13898  1.0000
  H   H454      1.0  0.55047  0.61243  0.16731  1.0000
  H   H455      1.0  0.51800  0.59723  0.17412  1.0000
  C   C459      1.0  0.59378  0.97960  0.02096  1.0000
  H   H456      1.0  0.59618  0.49376  0.15803  1.0000
  C   C460      1.0  0.52555  0.49435  0.19363  1.0000
  C   C461      1.0  0.57666  0.88949  0.26389  1.0000
  C   C462      1.0  0.42590  0.92469  0.11834  1.0000
  H   H457      1.0  0.60413  0.97008  0.22358  1.0000
  H   H458      1.0  0.35421  0.98717  0.03131  1.0000
  H   H459      1.0  0.47243  0.93829  0.10740  1.0000
  S   S154      1.0  0.62563  0.98074  0.14213  1.0000
  C   C463      1.0  0.33235  0.66600  0.47038  1.0000
  C   C464      1.0  0.48136  0.96987  0.16608  1.0000
  N   N39       1.0  0.60827  0.74121  0.33236  1.0000
  C   C465      1.0  0.59625  0.51028  0.16742  1.0000
  S   S155      1.0  0.33281  0.68083  0.43858  1.0000
  H   H460      1.0  0.61626  0.73914  0.26304  1.0000
  C   C466      1.0  0.44869  0.97497  0.06441  1.0000
  H   H461      1.0  0.58413  0.72003  0.29870  1.0000
  C   C467      1.0  0.56353  0.90093  0.25459  1.0000
  S   S156      1.0  0.38590  0.98786  0.17912  1.0000
  S   S157      1.0  0.39159  0.97519  0.05234  1.0000
  H   H462      1.0  0.60933  0.51694  0.18552  1.0000
  N   N40       1.0  0.57174  0.50459  0.17632  1.0000
  S   S158      1.0  0.43719  0.96883  0.16952  1.0000
  C   C468      1.0  0.56898  0.52317  0.18835  1.0000
  H   H463      1.0  0.54360  0.53337  0.20575  1.0000
  H   H464      1.0  0.51538  0.96914  0.16250  1.0000
  H   H465      1.0  0.59424  0.74079  0.37286  1.0000
  C   C469      1.0  0.62924  0.80322  0.39773  1.0000
  C   C470      1.0  0.63180  0.75855  0.34038  1.0000
  C   C471      1.0  0.48113  0.96622  0.07611  1.0000
  S   S159      1.0  0.58099  0.98416  0.17332  1.0000
  H   H466      1.0  0.63269  0.97050  0.22747  1.0000
  C   C472      1.0  0.60191  0.90111  0.25941  1.0000
  N   N41       1.0  0.44211  0.94395  0.09875  1.0000
  H   H467      1.0  0.46722  0.75330  0.38733  1.0000
  C   C473      1.0  0.46549  0.94825  0.09507  1.0000
  H   H468      1.0  0.57189  0.72928  0.34541  1.0000
  H   H469      1.0  0.41693  0.90594  0.10811  1.0000
  H   H470      1.0  0.60228  0.56169  0.99603  1.0000
  H   H471      1.0  0.58480  0.71031  0.35752  1.0000
  H   H472      1.0  0.47289  0.51197  0.16643  1.0000
  H   H473      1.0  0.61275  0.79255  0.40972  1.0000
  C   C474      1.0  0.47267  0.97974  0.06082  1.0000
  H   H474      1.0  0.54371  0.89149  0.25679  1.0000
  H   H475      1.0  0.56537  0.93197  0.23220  1.0000
  Fe  Fe78      1.0  0.61228  0.99042  0.10232  1.0000
  H   H476      1.0  0.49997  0.97022  0.07412  1.0000
  Fe  Fe79      1.0  0.40901  0.97836  0.15172  1.0000
  C   C475      1.0  0.36352  0.98489  0.01372  1.0000
  H   H477      1.0  0.32134  0.62979  0.45240  1.0000
  C   C476      1.0  0.46719  0.98027  0.15640  1.0000
  H   H478      1.0  0.55811  0.58914  0.99601  1.0000
  C   C477      1.0  0.39418  0.97647  0.99500  1.0000
  Fe  Fe80      1.0  0.38409  0.98148  0.09764  1.0000
  C   C478      1.0  0.65245  0.81480  0.41146  1.0000
  H   H479      1.0  0.64742  0.82067  0.33122  1.0000
  C   C479      1.0  0.64474  0.76291  0.29264  1.0000
  H   H480      1.0  0.43856  0.98883  0.22630  1.0000
  H   H481      1.0  0.60340  0.52545  0.15170  1.0000
  C   C480      1.0  0.32576  0.64072  0.47146  1.0000
  H   H482      1.0  0.40881  0.97225  0.99818  1.0000
  C   C481      1.0  0.65032  0.76987  0.32063  1.0000
  Fe  Fe81      1.0  0.32681  0.66411  0.39457  1.0000
  S   S160      1.0  0.32068  0.64426  0.31638  1.0000
  C   C482      1.0  0.61912  0.99072  0.02610  1.0000
  C   C483      1.0  0.48500  0.96771  0.82046  1.0000
  S   S161      1.0  0.38839  0.96071  0.87437  1.0000
  H   H483      1.0  0.40227  0.68487  0.60742  1.0000
  H   H484      1.0  0.35199  0.92303  0.74875  1.0000
  Fe  Fe82      1.0  0.36711  0.95465  0.83390  1.0000
  H   H485      1.0  0.53373  0.54534  0.89216  1.0000
  C   C484      1.0  0.47546  0.50014  0.83881  1.0000
  N   N42       1.0  0.62934  0.87574  0.71012  1.0000
  Fe  Fe83      1.0  0.60448  0.96108  0.83739  1.0000
  C   C485      1.0  0.46863  0.75757  0.62022  1.0000
  S   S162      1.0  0.61492  0.93188  0.82354  1.0000
  H   H486      1.0  0.47921  0.95496  0.80280  1.0000
  C   C486      1.0  0.54121  0.56615  0.93084  1.0000
  S   S163      1.0  0.57208  0.95150  0.86440  1.0000
  Fe  Fe84      1.0  0.58848  0.61316  0.82398  1.0000
  S   S164      1.0  0.59211  0.58060  0.80780  1.0000
  S   S165      1.0  0.57534  0.63201  0.79199  1.0000
  Fe  Fe85      1.0  0.60453  0.60745  0.88355  1.0000
  S   S166      1.0  0.61034  0.57567  0.87105  1.0000
  S   S167      1.0  0.61071  0.62528  0.92717  1.0000
  Fe  Fe86      1.0  0.62794  0.59730  0.83198  1.0000
  Fe  Fe87      1.0  0.57406  0.56111  0.84761  1.0000
  S   S168      1.0  0.54726  0.51922  0.85316  1.0000
  S   S169      1.0  0.62508  0.63080  0.84643  1.0000
  S   S170      1.0  0.56752  0.59204  0.86199  1.0000
  H   H487      1.0  0.33155  0.58275  0.61026  1.0000
  C   C487      1.0  0.63390  0.89604  0.72623  1.0000
  C   C488      1.0  0.46954  0.97658  0.82995  1.0000
  C   C489      1.0  0.61152  0.62796  0.98459  1.0000
  Fe  Fe88      1.0  0.35848  0.67746  0.64662  1.0000
  S   S171      1.0  0.39591  0.71049  0.66031  1.0000
  S   S172      1.0  0.35086  0.63973  0.63130  1.0000
  Fe  Fe89      1.0  0.59103  0.79085  0.68842  1.0000
  S   S173      1.0  0.59834  0.80063  0.73431  1.0000
  S   S174      1.0  0.62295  0.81748  0.66039  1.0000
  Fe  Fe90      1.0  0.53642  0.75211  0.69892  1.0000
  S   S175      1.0  0.54044  0.75996  0.74498  1.0000
  S   S176      1.0  0.50089  0.71979  0.67983  1.0000
  Fe  Fe91      1.0  0.56274  0.80093  0.73393  1.0000
  S   S177      1.0  0.55445  0.83067  0.75130  1.0000
  Fe  Fe92      1.0  0.57572  0.75883  0.74181  1.0000
  S   S178      1.0  0.58622  0.74051  0.77706  1.0000
  S   S179      1.0  0.55618  0.79303  0.68770  1.0000
  S   S180      1.0  0.57089  0.74904  0.69609  1.0000
  C   C490      1.0  0.42372  0.71109  0.66996  1.0000
  C   C491      1.0  0.44345  0.73343  0.68106  1.0000
  C   C492      1.0  0.46690  0.73602  0.68557  1.0000
  C   C493      1.0  0.47095  0.71630  0.67874  1.0000
  C   C494      1.0  0.45099  0.69362  0.66861  1.0000
  C   C495      1.0  0.42747  0.69095  0.66438  1.0000
  H   H488      1.0  0.44075  0.74910  0.68559  1.0000
  H   H489      1.0  0.48200  0.75354  0.69347  1.0000
  H   H490      1.0  0.45386  0.67819  0.66342  1.0000
  H   H491      1.0  0.41247  0.67358  0.65608  1.0000
  H   H492      1.0  0.61931  0.91867  0.74245  1.0000
  C   C496      1.0  0.60713  0.86192  0.69665  1.0000
  C   C497      1.0  0.53757  0.54580  0.91433  1.0000
  C   C498      1.0  0.58542  0.71117  0.77975  1.0000
  C   C499      1.0  0.57761  0.69382  0.75769  1.0000
  C   C500      1.0  0.57559  0.67011  0.76156  1.0000
  C   C501      1.0  0.58158  0.66344  0.78736  1.0000
  C   C502      1.0  0.58991  0.68100  0.80922  1.0000
  C   C503      1.0  0.59173  0.70463  0.80542  1.0000
  H   H493      1.0  0.57276  0.69852  0.73780  1.0000
  H   H494      1.0  0.56911  0.65672  0.74448  1.0000
  H   H495      1.0  0.59440  0.67617  0.82925  1.0000
  H   H496      1.0  0.59783  0.71787  0.82265  1.0000
  C   C504      1.0  0.50136  0.51428  0.84156  1.0000
  C   C505      1.0  0.51468  0.50246  0.84902  1.0000
  H   H497      1.0  0.32649  0.87092  0.77893  1.0000
  H   H498      1.0  0.51100  0.53423  0.83767  1.0000
  Fe  Fe93      1.0  0.59748  0.98601  0.88991  1.0000
  C   C506      1.0  0.35827  0.94342  0.74792  1.0000
  C   C507      1.0  0.60944  0.61312  0.96120  1.0000
  C   C508      1.0  0.60612  0.58917  0.96556  1.0000
  Fe  Fe94      1.0  0.56570  0.97743  0.83737  1.0000
  H   H499      1.0  0.60453  0.57750  0.94788  1.0000
  C   C509      1.0  0.59774  0.90373  0.80352  1.0000
  C   C510      1.0  0.57438  0.89643  0.79233  1.0000
  C   C511      1.0  0.56131  0.87379  0.77696  1.0000
  C   C512      1.0  0.57141  0.85821  0.77231  1.0000
  C   C513      1.0  0.59477  0.86548  0.78355  1.0000
  C   C514      1.0  0.60779  0.88807  0.79909  1.0000
  H   H500      1.0  0.56634  0.90820  0.79550  1.0000
  H   H501      1.0  0.54327  0.86840  0.76839  1.0000
  H   H502      1.0  0.60280  0.85374  0.78021  1.0000
  H   H503      1.0  0.62581  0.89344  0.80770  1.0000
  H   H504      1.0  0.53016  0.58532  0.98009  1.0000
  C   C515      1.0  0.44415  0.74194  0.61155  1.0000
  S   S181      1.0  0.58764  0.98190  0.93645  1.0000
  C   C516      1.0  0.36834  0.98438  0.96300  1.0000
  C   C517      1.0  0.59327  0.88903  0.71532  1.0000
  H   H505      1.0  0.50536  0.66398  0.71140  1.0000
  C   C518      1.0  0.45256  0.70943  0.60037  1.0000
  S   S182      1.0  0.35124  0.97841  0.84724  1.0000
  C   C519      1.0  0.50796  0.97545  0.83346  1.0000
  H   H506      1.0  0.36777  0.91862  0.94805  1.0000
  H   H507      1.0  0.61425  0.64659  0.98154  1.0000
  S   S183      1.0  0.34650  0.91593  0.81216  1.0000
  H   H508      1.0  0.46534  0.50942  0.83285  1.0000
  H   H509      1.0  0.36544  0.95067  0.72693  1.0000
  C   C520      1.0  0.63567  0.81411  0.62872  1.0000
  Fe  Fe95      1.0  0.37468  0.98675  0.88651  1.0000
  C   C521      1.0  0.32452  0.97554  0.77220  1.0000
  H   H510      1.0  0.63069  0.77139  0.57991  1.0000
  S   S184      1.0  0.52771  0.96565  0.81926  1.0000
  C   C522      1.0  0.62684  0.79099  0.61512  1.0000
  H   H511      1.0  0.54768  0.89796  0.90851  1.0000
  C   C523      1.0  0.63769  0.78941  0.59016  1.0000
  N   N43       1.0  0.54584  0.56662  0.95883  1.0000
  H   H512      1.0  0.61168  0.77430  0.62384  1.0000
  H   H513      1.0  0.56494  0.96816  0.98973  1.0000
  C   C524      1.0  0.33802  0.67991  0.49539  1.0000
  C   C525      1.0  0.32646  0.90808  0.88332  1.0000
  C   C526      1.0  0.60048  0.98466  0.97052  1.0000
  H   H514      1.0  0.34057  0.67934  0.54040  1.0000
  H   H515      1.0  0.43113  0.74852  0.61393  1.0000
  H   H516      1.0  0.61521  0.91010  0.87499  1.0000
  H   H517      1.0  0.50386  0.76008  0.62709  1.0000
  N   N44       1.0  0.51951  0.65577  0.77750  1.0000
  C   C527      1.0  0.51225  0.65034  0.75014  1.0000
  C   C528      1.0  0.52513  0.67849  0.78877  1.0000
  C   C529      1.0  0.51079  0.66806  0.73320  1.0000
  C   C530      1.0  0.52388  0.69661  0.77243  1.0000
  C   C531      1.0  0.51664  0.69130  0.74448  1.0000
  C   C532      1.0  0.52024  0.63670  0.79509  1.0000
  S   S185      1.0  0.32619  0.62755  0.55447  1.0000
  H   H518      1.0  0.53143  0.68308  0.81027  1.0000
  H   H519      1.0  0.65127  0.90673  0.73744  1.0000
  H   H520      1.0  0.52923  0.71492  0.78122  1.0000
  H   H521      1.0  0.51578  0.70524  0.73147  1.0000
  H   H522      1.0  0.50194  0.62446  0.80425  1.0000
  H   H523      1.0  0.52576  0.62497  0.78289  1.0000
  H   H524      1.0  0.53425  0.64550  0.81215  1.0000
  C   C533      1.0  0.56639  0.88502  0.86650  1.0000
  C   C534      1.0  0.33909  0.92370  0.92945  1.0000
  C   C535      1.0  0.33656  0.66855  0.52131  1.0000
  N   N45       1.0  0.43642  0.71820  0.60178  1.0000
  H   H525      1.0  0.48963  0.71712  0.60928  1.0000
  C   C536      1.0  0.48515  0.74868  0.61909  1.0000
  H   H526      1.0  0.53675  0.51046  0.91357  1.0000
  H   H527      1.0  0.47444  0.77598  0.62903  1.0000
  H   H528      1.0  0.61595  0.94892  0.94957  1.0000
  H   H529      1.0  0.57724  0.87762  0.85617  1.0000
  H   H530      1.0  0.57040  0.92769  0.94718  1.0000
  H   H531      1.0  0.56217  0.89562  0.85076  1.0000
  H   H532      1.0  0.39937  0.71082  0.59599  1.0000
  C   C537      1.0  0.56755  0.90656  0.90989  1.0000
  Fe  Fe96      1.0  0.32791  0.64386  0.59753  1.0000
  C   C538      1.0  0.34345  0.97068  0.76593  1.0000
  C   C539      1.0  0.54687  0.54710  0.97108  1.0000
  C   C540      1.0  0.35588  0.91505  0.92993  1.0000
  C   C541      1.0  0.41055  0.70151  0.59366  1.0000
  H   H533      1.0  0.44626  0.69036  0.59345  1.0000
  H   H534      1.0  0.64097  0.84893  0.71446  1.0000
  H   H535      1.0  0.57079  0.85663  0.68938  1.0000
  C   C542      1.0  0.47713  0.72449  0.60907  1.0000
  H   H536      1.0  0.54891  0.86867  0.87341  1.0000
  H   H537      1.0  0.40903  0.69524  0.57166  1.0000
  N   N46       1.0  0.58005  0.90166  0.89003  1.0000
  C   C543      1.0  0.60522  0.91348  0.89108  1.0000
  C   C544      1.0  0.38733  0.97906  0.96757  1.0000
  S   S186      1.0  0.59634  0.98466  0.80826  1.0000
  H   H538      1.0  0.54047  0.58165  0.92109  1.0000
  H   H539      1.0  0.55060  0.54748  0.99329  1.0000
  S   S187      1.0  0.32569  0.66156  0.67494  1.0000
  H   H540      1.0  0.50788  0.63237  0.74119  1.0000
  H   H541      1.0  0.45204  0.97073  0.81960  1.0000
  N   N47       1.0  0.32464  0.92014  0.90633  1.0000
  H   H542      1.0  0.37350  0.95256  0.76359  1.0000
  H   H543      1.0  0.57883  0.89358  0.71822  1.0000
  S   S188      1.0  0.33798  0.68292  0.61056  1.0000
  H   H544      1.0  0.63848  0.94027  0.91295  1.0000
  C   C545      1.0  0.54853  0.58768  0.97582  1.0000
  H   H545      1.0  0.54523  0.51152  0.96464  1.0000
  C   C546      1.0  0.54383  0.52670  0.95503  1.0000
  C   C547      1.0  0.35769  0.90252  0.90664  1.0000
  H   H546      1.0  0.37100  0.89618  0.90646  1.0000
  C   C548      1.0  0.53912  0.52609  0.92645  1.0000
  C   C549      1.0  0.58876  0.86830  0.69909  1.0000
  C   C550      1.0  0.60590  0.93544  0.93303  1.0000
  H   H547      1.0  0.60338  0.84562  0.68424  1.0000
  C   C551      1.0  0.32963  0.64315  0.52240  1.0000
  H   H548      1.0  0.34452  0.88979  0.86463  1.0000
  C   C552      1.0  0.58026  0.92335  0.93178  1.0000
  C   C553      1.0  0.61852  0.93056  0.91254  1.0000
  C   C554      1.0  0.61598  0.90305  0.72898  1.0000
  H   H549      1.0  0.55987  0.60574  0.96487  1.0000
  N   N48       1.0  0.33819  0.94812  0.75451  1.0000
  H   H550      1.0  0.65189  0.61439  0.93634  1.0000
  H   H551      1.0  0.32863  0.55817  0.65203  1.0000
  C   C555      1.0  0.64815  0.86845  0.70710  1.0000
  C   C556      1.0  0.34283  0.89889  0.88319  1.0000
  H   H552      1.0  0.39666  0.97682  0.94997  1.0000
  C   C557      1.0  0.32451  0.62941  0.49735  1.0000
  S   S189      1.0  0.39944  0.98661  0.81254  1.0000
  H   H553      1.0  0.33810  0.93377  0.94749  1.0000
  C   C558      1.0  0.58456  0.97651  0.99336  1.0000
  H   H554      1.0  0.36234  0.98508  0.77043  1.0000
  S   S190      1.0  0.35753  0.98578  0.92878  1.0000
  C   C559      1.0  0.35644  0.98715  0.98626  1.0000
  C   C560      1.0  0.60477  0.58022  0.99293  1.0000
  H   H555      1.0  0.65292  0.86901  0.68479  1.0000
  H   H556      1.0  0.34317  0.69950  0.49473  1.0000
  Fe  Fe97      1.0  0.84350  0.13147  0.47132  1.0000
  S   S191      1.0  0.82237  0.14780  0.44831  1.0000
  S   S192      1.0  0.86356  0.11196  0.45673  1.0000
  H   H557      1.0  0.92635  0.31063  0.12312  1.0000
  S   S193      1.0  0.95591  0.37048  0.12959  1.0000
  H   H558      1.0  0.90711  0.10650  0.44005  1.0000
  Fe  Fe98      1.0  0.96688  0.34893  0.15845  1.0000
  S   S194      1.0  0.94072  0.31301  0.18220  1.0000
  Fe  Fe99      1.0  0.76010  0.21134  0.29183  1.0000
  S   S195      1.0  0.76349  0.21467  0.24540  1.0000
  S   S196      1.0  0.73267  0.21772  0.31666  1.0000
  Fe  Fe100     1.0  0.79415  0.18912  0.29625  1.0000
  S   S197      1.0  0.79946  0.19089  0.24951  1.0000
  S   S198      1.0  0.81398  0.17173  0.31979  1.0000
  Fe  Fe101     1.0  0.80427  0.22952  0.25245  1.0000
  S   S199      1.0  0.83019  0.26384  0.22617  1.0000
  Fe  Fe102     1.0  0.75855  0.17582  0.24579  1.0000
  S   S200      1.0  0.73498  0.14850  0.21061  1.0000
  S   S201      1.0  0.80115  0.22880  0.29943  1.0000
  S   S202      1.0  0.75293  0.17140  0.29195  1.0000
  Fe  Fe103     1.0  0.67866  0.31225  0.33027  1.0000
  S   S203      1.0  0.69732  0.33914  0.36613  1.0000
  S   S204      1.0  0.70224  0.30205  0.30318  1.0000
  Fe  Fe104     1.0  0.67866  0.35989  0.35037  1.0000
  S   S205      1.0  0.69464  0.40242  0.35287  1.0000
  N   N49       1.0  0.71713  0.27857  0.40434  1.0000
  H   H559      1.0  0.90658  0.30180  0.09247  1.0000
  C   C561      1.0  0.84703  0.26533  0.14794  1.0000
  C   C562      1.0  0.66394  0.31273  0.46424  1.0000
  C   C563      1.0  0.71164  0.42624  0.32819  1.0000
  C   C564      1.0  0.71866  0.45124  0.33486  1.0000
  C   C565      1.0  0.73074  0.47062  0.31537  1.0000
  C   C566      1.0  0.73591  0.46519  0.28887  1.0000
  C   C567      1.0  0.72909  0.44021  0.28226  1.0000
  C   C568      1.0  0.71709  0.42084  0.30180  1.0000
  H   H560      1.0  0.71458  0.45565  0.35522  1.0000
  H   H561      1.0  0.73587  0.48971  0.32080  1.0000
  H   H562      1.0  0.73299  0.43577  0.26183  1.0000
  H   H563      1.0  0.71176  0.40171  0.29632  1.0000
  C   C569      1.0  0.72451  0.24135  0.31245  1.0000
  C   C570      1.0  0.73656  0.26115  0.29386  1.0000
  C   C571      1.0  0.72932  0.27938  0.29117  1.0000
  C   C572      1.0  0.71017  0.27824  0.30720  1.0000
  C   C573      1.0  0.69803  0.25835  0.32569  1.0000
  C   C574      1.0  0.70509  0.23996  0.32816  1.0000
  H   H564      1.0  0.75147  0.26246  0.28155  1.0000
  H   H565      1.0  0.73881  0.29465  0.27675  1.0000
  H   H566      1.0  0.68318  0.25712  0.33803  1.0000
  H   H567      1.0  0.69555  0.22466  0.34251  1.0000
  S   S206      1.0  0.83149  0.04286  0.47927  1.0000
  H   H568      1.0  0.70836  0.17565  0.21145  1.0000
  C   C575      1.0  0.80951  0.99111  0.47546  1.0000
  H   H569      1.0  0.72624  0.24946  0.40429  1.0000
  H   H570      1.0  0.91524  0.08352  0.42886  1.0000
  C   C576      1.0  0.86209  0.27883  0.21755  1.0000
  C   C577      1.0  0.87655  0.26777  0.22264  1.0000
  C   C578      1.0  0.90085  0.27904  0.21260  1.0000
  C   C579      1.0  0.91116  0.30155  0.19744  1.0000
  C   C580      1.0  0.89700  0.31305  0.19317  1.0000
  C   C581      1.0  0.87267  0.30173  0.20311  1.0000
  H   H571      1.0  0.86883  0.25024  0.23374  1.0000
  H   H572      1.0  0.91161  0.26998  0.21619  1.0000
  H   H573      1.0  0.90459  0.33039  0.18172  1.0000
  H   H574      1.0  0.86178  0.31058  0.19914  1.0000
  C   C582      1.0  0.66915  0.06720  0.20230  1.0000
  C   C583      1.0  0.67820  0.07805  0.22886  1.0000
  C   C584      1.0  0.69783  0.10303  0.23192  1.0000
  C   C585      1.0  0.70894  0.11748  0.20837  1.0000
  C   C586      1.0  0.69975  0.10672  0.18187  1.0000
  C   C587      1.0  0.67998  0.08184  0.17882  1.0000
  C   C588      1.0  0.98205  0.36725  0.02095  1.0000
  H   H575      1.0  0.70464  0.11088  0.25247  1.0000
  H   H576      1.0  0.70816  0.11762  0.16346  1.0000
  Fe  Fe105     1.0  0.84465  0.08422  0.49145  1.0000
  C   C589      1.0  0.82040  0.15431  0.41241  1.0000
  C   C590      1.0  0.80567  0.16469  0.40458  1.0000
  C   C591      1.0  0.80356  0.17029  0.37648  1.0000
  C   C592      1.0  0.81620  0.16557  0.35575  1.0000
  C   C593      1.0  0.83081  0.15505  0.36353  1.0000
  C   C594      1.0  0.83295  0.14948  0.39163  1.0000
  H   H577      1.0  0.79585  0.16850  0.42040  1.0000
  H   H578      1.0  0.79223  0.17833  0.37092  1.0000
  H   H579      1.0  0.84076  0.15137  0.34775  1.0000
  H   H580      1.0  0.84439  0.14158  0.39723  1.0000
  H   H581      1.0  0.70326  0.24263  0.21246  1.0000
  C   C595      1.0  0.66701  0.30250  0.48916  1.0000
  H   H582      1.0  0.87606  0.23296  0.16454  1.0000
  C   C596      1.0  0.86609  0.28489  0.13330  1.0000
  C   C597      1.0  0.96855  0.35380  0.99706  1.0000
  C   C598      1.0  0.74634  0.27722  0.37354  1.0000
  S   S207      1.0  0.93392  0.15502  0.47291  1.0000
  H   H583      1.0  0.82145  0.99487  0.45792  1.0000
  C   C599      1.0  0.91912  0.09840  0.44451  1.0000
  C   C600      1.0  0.66361  0.40675  0.26588  1.0000
  S   S208      1.0  0.66245  0.33508  0.31266  1.0000
  Fe  Fe106     1.0  0.98287  0.37005  0.09913  1.0000
  H   H584      1.0  0.65580  0.07675  0.02071  1.0000
  S   S209      1.0  0.96953  0.35583  0.05449  1.0000
  H   H585      1.0  0.68823  0.23339  0.26101  1.0000
  H   H586      1.0  0.71058  0.30907  0.39924  1.0000
  C   C601      1.0  0.70384  0.18823  0.22238  1.0000
  H   H587      1.0  0.67354  0.41403  0.24667  1.0000
  H   H588      1.0  0.68014  0.25987  0.41762  1.0000
  H   H589      1.0  0.67337  0.07384  0.15826  1.0000
  N   N50       1.0  0.69630  0.18376  0.24942  1.0000
  H   H590      1.0  0.93848  0.11374  0.44209  1.0000
  C   C602      1.0  0.69905  0.26753  0.42654  1.0000
  H   H591      1.0  0.90726  0.32404  0.11767  1.0000
  H   H592      1.0  0.83632  0.23185  0.17160  1.0000
  C   C603      1.0  0.69246  0.22068  0.24985  1.0000
  C   C604      1.0  0.69385  0.16164  0.26374  1.0000
  C   C605      1.0  0.69019  0.19938  0.26298  1.0000
  C   C606      1.0  0.75007  0.29923  0.36094  1.0000
  C   C607      1.0  0.89156  0.26700  0.14055  1.0000
  H   H593      1.0  0.70204  0.28211  0.44231  1.0000
  Fe  Fe107     1.0  0.89364  0.13573  0.48829  1.0000
  H   H594      1.0  0.86344  0.29984  0.12531  1.0000
  C   C608      1.0  0.72072  0.30015  0.39212  1.0000
  H   H595      1.0  0.83007  0.26540  0.15182  1.0000
  H   H596      1.0  0.70548  0.15487  0.25407  1.0000
  H   H597      1.0  0.90925  0.26801  0.13870  1.0000
  C   C609      1.0  0.96525  0.16988  0.48562  1.0000
  C   C610      1.0  0.85053  0.24641  0.15902  1.0000
  H   H598      1.0  0.71317  0.21331  0.18751  1.0000
  C   C611      1.0  0.66685  0.42312  0.28774  1.0000
  N   N51       1.0  0.88814  0.28573  0.13018  1.0000
  H   H599      1.0  0.67949  0.44312  0.28569  1.0000
  C   C612      1.0  0.90798  0.30649  0.11500  1.0000
  H   H600      1.0  0.70024  0.25230  0.43750  1.0000
  H   H601      1.0  0.75571  0.26767  0.36583  1.0000
  H   H602      1.0  0.70006  0.16629  0.28589  1.0000
  C   C613      1.0  0.87285  0.24709  0.15516  1.0000
  N   N52       1.0  0.76707  0.10642  0.28353  1.0000
  C   C614      1.0  0.78103  0.12497  0.26516  1.0000
  C   C615      1.0  0.74522  0.08616  0.27497  1.0000
  C   C616      1.0  0.77343  0.12329  0.23731  1.0000
  C   C617      1.0  0.73722  0.08375  0.24718  1.0000
  C   C618      1.0  0.75147  0.10246  0.22829  1.0000
  C   C619      1.0  0.77495  0.10903  0.31284  1.0000
  H   H603      1.0  0.79809  0.14132  0.27203  1.0000
  H   H604      1.0  0.73377  0.07180  0.28965  1.0000
  H   H605      1.0  0.78423  0.13827  0.22291  1.0000
  H   H606      1.0  0.71979  0.06780  0.24038  1.0000
  H   H607      1.0  0.74517  0.10119  0.20683  1.0000
  H   H608      1.0  0.79530  0.11766  0.31471  1.0000
  H   H609      1.0  0.76970  0.12145  0.32402  1.0000
  H   H610      1.0  0.76670  0.09065  0.32348  1.0000
  C   C620      1.0  0.72951  0.26694  0.39518  1.0000
  H   H611      1.0  0.65461  0.00656  0.00688  1.0000
  C   C621      1.0  0.70652  0.20948  0.20868  1.0000
  H   H612      1.0  0.67439  0.14624  0.26285  1.0000
  Fe  Fe108     1.0  0.66248  0.31439  0.38914  1.0000
  H   H613      1.0  0.76234  0.30689  0.34342  1.0000
  S   S210      1.0  0.66526  0.29948  0.43184  1.0000
  H   H614      1.0  0.68414  0.19579  0.28440  1.0000
  H   H615      1.0  0.66998  0.06696  0.24720  1.0000
  C   C622      1.0  0.73714  0.31076  0.37017  1.0000
  H   H616      1.0  0.73936  0.32743  0.35987  1.0000
  N   N53       1.0  0.91459  0.08819  0.47276  1.0000
  C   C623      1.0  0.65487  0.41342  0.31287  1.0000
  C   C624      1.0  0.70093  0.22587  0.22263  1.0000
  H   H617      1.0  0.65537  0.04873  0.03304  1.0000
  H   H618      1.0  0.87980  0.05670  0.46132  1.0000
  C   C625      1.0  0.81044  0.01143  0.49019  1.0000
  H   H619      1.0  0.67056  0.28705  0.48826  1.0000
  H   H620      1.0  0.95033  0.33772  0.99938  1.0000
  C   C626      1.0  0.89320  0.06643  0.47796  1.0000
  C   C627      1.0  0.65936  0.33270  0.46576  1.0000
  H   H621      1.0  0.65849  0.42613  0.33027  1.0000
  H   H622      1.0  0.98018  0.18203  0.44473  1.0000
  H   H623      1.0  0.98298  0.47999  0.18566  1.0000
  C   C628      1.0  0.98457  0.18148  0.46649  1.0000
  C   C629      1.0  0.65769  0.34219  0.49189  1.0000
  S   S211      1.0  0.74996  0.48858  0.26293  1.0000
  H   H624      1.0  0.94786  0.11833  0.48996  1.0000
  H   H625      1.0  0.65702  0.34081  0.44680  1.0000
  H   H626      1.0  0.79998  0.49047  0.23875  1.0000
  H   H627      1.0  0.65400  0.35755  0.49280  1.0000
  S   S212      1.0  0.98646  0.43795  0.16597  1.0000
  C   C630      1.0  0.93108  0.10087  0.49395  1.0000
  C   C631      1.0  0.97143  0.16936  0.51368  1.0000
  C   C632      1.0  0.76714  0.32821  0.65751  1.0000
  H   H628      1.0  0.75633  0.36354  0.64473  1.0000
  H   H629      1.0  0.85020  0.27894  0.84891  1.0000
  H   H630      1.0  0.82866  0.27396  0.80340  1.0000
  H   H631      1.0  0.84708  0.30781  0.76862  1.0000
  Fe  Fe109     1.0  0.85487  0.12705  0.53254  1.0000
  S   S213      1.0  0.85397  0.13923  0.57758  1.0000
  S   S214      1.0  0.87590  0.10703  0.52209  1.0000
  C   C633      1.0  0.87997  0.31607  0.83960  1.0000
  S   S215      1.0  0.96459  0.37039  0.87555  1.0000
  C   C634      1.0  0.85579  0.31047  0.78902  1.0000
  Fe  Fe110     1.0  0.96582  0.34396  0.84380  1.0000
  S   S216      1.0  0.93107  0.30524  0.83767  1.0000
  Fe  Fe111     1.0  0.78282  0.18507  0.68259  1.0000
  S   S217      1.0  0.80151  0.18216  0.72158  1.0000
  S   S218      1.0  0.78235  0.16943  0.63880  1.0000
  Fe  Fe112     1.0  0.75838  0.21072  0.71390  1.0000
  S   S219      1.0  0.77562  0.20937  0.75511  1.0000
  S   S220      1.0  0.73163  0.22592  0.71534  1.0000
  Fe  Fe113     1.0  0.81059  0.22196  0.73129  1.0000
  S   S221      1.0  0.84847  0.25709  0.74072  1.0000
  Fe  Fe114     1.0  0.76497  0.16973  0.74265  1.0000
  S   S222      1.0  0.74959  0.13505  0.77109  1.0000
  S   S223      1.0  0.79372  0.22547  0.69067  1.0000
  S   S224      1.0  0.74589  0.17038  0.70301  1.0000
  Fe  Fe115     1.0  0.67277  0.34876  0.65330  1.0000
  C   C635      1.0  0.84543  0.29137  0.80859  1.0000
  S   S225      1.0  0.68827  0.38065  0.68583  1.0000
  C   C636      1.0  0.84643  0.21339  0.59053  1.0000
  Fe  Fe116     1.0  0.67944  0.30539  0.63268  1.0000
  S   S226      1.0  0.70614  0.29024  0.63076  1.0000
  S   S227      1.0  0.69454  0.34537  0.61849  1.0000
  C   C637      1.0  0.70768  0.41358  0.68104  1.0000
  C   C638      1.0  0.71520  0.42409  0.65468  1.0000
  C   C639      1.0  0.73036  0.45031  0.65190  1.0000
  C   C640      1.0  0.73831  0.46641  0.67534  1.0000
  C   C641      1.0  0.73100  0.45589  0.70176  1.0000
  C   C642      1.0  0.71575  0.42966  0.70453  1.0000
  H   H632      1.0  0.70918  0.41206  0.63639  1.0000
  H   H633      1.0  0.73587  0.45818  0.63135  1.0000
  H   H634      1.0  0.73703  0.46794  0.72002  1.0000
  H   H635      1.0  0.71014  0.42176  0.72504  1.0000
  C   C643      1.0  0.81985  0.19644  0.54994  1.0000
  C   C644      1.0  0.85726  0.19561  0.55218  1.0000
  C   C645      1.0  0.72399  0.24271  0.69080  1.0000
  C   C646      1.0  0.70582  0.24881  0.69758  1.0000
  C   C647      1.0  0.69951  0.26263  0.67915  1.0000
  C   C648      1.0  0.71148  0.27071  0.65372  1.0000
  C   C649      1.0  0.72944  0.26438  0.64680  1.0000
  C   C650      1.0  0.73572  0.25053  0.66521  1.0000
  H   H636      1.0  0.69656  0.24276  0.71727  1.0000
  H   H637      1.0  0.68563  0.26727  0.68477  1.0000
  H   H638      1.0  0.73873  0.27040  0.62713  1.0000
  H   H639      1.0  0.74965  0.24594  0.65965  1.0000
  C   C651      1.0  0.90955  0.29118  0.80931  1.0000
  C   C652      1.0  0.91185  0.30366  0.78422  1.0000
  C   C653      1.0  0.89337  0.29249  0.76323  1.0000
  C   C654      1.0  0.87226  0.26878  0.76694  1.0000
  C   C655      1.0  0.87026  0.25604  0.79175  1.0000
  C   C656      1.0  0.88881  0.26716  0.81271  1.0000
  H   H640      1.0  0.92773  0.32199  0.78107  1.0000
  H   H641      1.0  0.89525  0.30249  0.74408  1.0000
  H   H642      1.0  0.85426  0.23779  0.79498  1.0000
  H   H643      1.0  0.88684  0.25722  0.83193  1.0000
  H   H644      1.0  0.70326  0.47841  0.69356  1.0000
  H   H645      1.0  0.79519  0.02134  0.52448  1.0000
  H   H646      1.0  0.75971  0.32206  0.63598  1.0000
  C   C657      1.0  0.72000  0.34673  0.70135  1.0000
  H   H647      1.0  0.93911  0.10241  0.53801  1.0000
  C   C658      1.0  0.67179  0.07742  0.80294  1.0000
  C   C659      1.0  0.67558  0.09890  0.78833  1.0000
  C   C660      1.0  0.69902  0.11647  0.77806  1.0000
  C   C661      1.0  0.71922  0.11302  0.78256  1.0000
  C   C662      1.0  0.71540  0.09146  0.79700  1.0000
  C   C663      1.0  0.69189  0.07374  0.80698  1.0000
  H   H648      1.0  0.87921  0.21037  0.58981  1.0000
  H   H649      1.0  0.70152  0.13293  0.76717  1.0000
  H   H650      1.0  0.73081  0.08853  0.80073  1.0000
  S   S228      1.0  0.65638  0.34334  0.54904  1.0000
  C   C664      1.0  0.83304  0.14612  0.59483  1.0000
  C   C665      1.0  0.81099  0.14184  0.58230  1.0000
  C   C666      1.0  0.79563  0.14879  0.59627  1.0000
  C   C667      1.0  0.80210  0.16021  0.62286  1.0000
  C   C668      1.0  0.82388  0.16399  0.63566  1.0000
  C   C669      1.0  0.83917  0.15690  0.62175  1.0000
  H   H651      1.0  0.80585  0.13332  0.56177  1.0000
  H   H652      1.0  0.77874  0.14559  0.58623  1.0000
  H   H653      1.0  0.82908  0.17263  0.65615  1.0000
  H   H654      1.0  0.85614  0.16023  0.63171  1.0000
  C   C670      1.0  0.97863  0.36047  0.97020  1.0000
  H   H655      1.0  0.88658  0.34653  0.77955  1.0000
  N   N54       1.0  0.75091  0.33452  0.67289  1.0000
  C   C671      1.0  0.79483  0.00609  0.51286  1.0000
  H   H656      1.0  0.88999  0.31751  0.85879  1.0000
  C   C672      1.0  0.73225  0.36014  0.67779  1.0000
  C   C673      1.0  0.98228  0.45735  0.83822  1.0000
  H   H657      1.0  0.71350  0.31625  0.72851  1.0000
  H   H658      1.0  0.87062  0.03972  0.50896  1.0000
  C   C674      1.0  0.91408  0.35693  0.82607  1.0000
  H   H659      1.0  0.74141  0.30595  0.70328  1.0000
  H   H660      1.0  0.95318  0.46100  0.81849  1.0000
  C   C675      1.0  0.87819  0.33221  0.79529  1.0000
  H   H661      1.0  0.84639  0.18601  0.49743  1.0000
  N   N55       1.0  0.83607  0.19051  0.53821  1.0000
  C   C676      1.0  0.92627  0.09187  0.52121  1.0000
  S   S229      1.0  0.82267  0.10245  0.50423  1.0000
  C   C677      1.0  0.83022  0.17730  0.51131  1.0000
  C   C678      1.0  0.72333  0.32714  0.71056  1.0000
  H   H662      1.0  0.80267  0.19168  0.53934  1.0000
  C   C679      1.0  0.73913  0.32139  0.69614  1.0000
  H   H663      1.0  0.86959  0.18991  0.54348  1.0000
  H   H664      1.0  0.85002  0.22148  0.61136  1.0000
  C   C680      1.0  0.82481  0.20801  0.57622  1.0000
  C   C681      1.0  0.85752  0.29416  0.83409  1.0000
  H   H665      1.0  0.78596  0.34476  0.65657  1.0000
  H   H666      1.0  0.96824  0.34946  0.95220  1.0000
  H   H667      1.0  0.72954  0.37523  0.67031  1.0000
  H   H668      1.0  0.68946  0.05746  0.81821  1.0000
  C   C682      1.0  0.74750  0.35355  0.66354  1.0000
  H   H669      1.0  0.91583  0.36319  0.84813  1.0000
  H   H670      1.0  0.95696  0.16058  0.52877  1.0000
  H   H671      1.0  0.81151  0.21184  0.58600  1.0000
  S   S230      1.0  0.96793  0.42477  0.83067  1.0000
  S   S231      1.0  0.65950  0.30937  0.66915  1.0000
  N   N56       1.0  0.88986  0.33485  0.82042  1.0000
  H   H672      1.0  0.92865  0.35218  0.82201  1.0000
  C   C683      1.0  0.97100  0.47086  0.82885  1.0000
  C   C684      1.0  0.86282  0.20721  0.57845  1.0000
  N   N57       1.0  0.74643  0.11160  0.67620  1.0000
  C   C685      1.0  0.74978  0.11262  0.70448  1.0000
  C   C686      1.0  0.76312  0.11056  0.65906  1.0000
  C   C687      1.0  0.77045  0.11295  0.71628  1.0000
  C   C688      1.0  0.78405  0.11092  0.67013  1.0000
  C   C689      1.0  0.78776  0.11228  0.69894  1.0000
  C   C690      1.0  0.72542  0.11259  0.66388  1.0000
  H   H673      1.0  0.73662  0.11355  0.71812  1.0000
  H   H674      1.0  0.76075  0.11036  0.63662  1.0000
  H   H675      1.0  0.77321  0.11424  0.73874  1.0000
  H   H676      1.0  0.79758  0.11084  0.65636  1.0000
  H   H677      1.0  0.80414  0.11311  0.70783  1.0000
  H   H678      1.0  0.71546  0.09705  0.64858  1.0000
  H   H679      1.0  0.71213  0.11107  0.67991  1.0000
  H   H680      1.0  0.73209  0.13081  0.65312  1.0000
  H   H681      1.0  0.91743  0.37314  0.81290  1.0000
  H   H682      1.0  0.76842  0.31255  0.66731  1.0000
  H   H683      1.0  0.70766  0.35134  0.71215  1.0000
  C   C691      1.0  0.66546  0.31207  0.51532  1.0000
  S   S232      1.0  0.87457  0.15701  0.50056  1.0000
  Fe  Fe117     1.0  0.98400  0.40029  0.84354  1.0000
  H   H684      1.0  0.90025  0.06264  0.54777  1.0000
  C   C692      1.0  0.90452  0.06962  0.52667  1.0000
  H   H685      1.0  0.82487  0.15733  0.51442  1.0000
  S   S233      1.0  0.98304  0.37341  0.81111  1.0000
  H   H686      1.0  0.66031  0.10213  0.78509  1.0000
  C   C693      1.0  0.88792  0.05672  0.50491  1.0000
  H   H687      1.0  0.81489  0.17775  0.49998  1.0000
  Fe  Fe118     1.0  0.65974  0.33042  0.59258  1.0000
  H   H688      1.0  0.68298  0.47185  0.73997  1.0000
  C   C694      1.0  0.66067  0.33193  0.51681  1.0000
  H   H689      1.0  0.66769  0.30393  0.53431  1.0000
  H   H690      1.0  0.66874  0.78422  0.32704  1.0000
  H   H691      1.0  0.83688  0.80077  0.44453  1.0000
  Fe  Fe119     1.0  0.71563  0.84683  0.45850  1.0000
  S   S234      1.0  0.70382  0.84334  0.41236  1.0000
  S   S235      1.0  0.75610  0.87320  0.46845  1.0000
  Fe  Fe120     1.0  0.86120  0.70741  0.45415  1.0000
  S   S236      1.0  0.86210  0.69095  0.41161  1.0000
  S   S237      1.0  0.87414  0.74858  0.45816  1.0000
  H   H692      1.0  0.83478  0.77320  0.42875  1.0000
  Fe  Fe121     1.0  0.96141  0.58859  0.14174  1.0000
  H   H693      1.0  0.91914  0.58935  0.05879  1.0000
  S   S238      1.0  0.92045  0.57467  0.15078  1.0000
  C   C695      1.0  0.91887  0.81542  0.45462  1.0000
  C   C696      1.0  0.96673  0.64832  0.07109  1.0000
  S   S239      1.0  0.96778  0.57476  0.10071  1.0000
  C   C697      1.0  0.90161  0.81234  0.47450  1.0000
  Fe  Fe122     1.0  0.78393  0.58073  0.29804  1.0000
  S   S240      1.0  0.79939  0.60364  0.25950  1.0000
  S   S241      1.0  0.78148  0.59663  0.34048  1.0000
  Fe  Fe123     1.0  0.76579  0.53114  0.26581  1.0000
  S   S242      1.0  0.77990  0.55128  0.22493  1.0000
  H   H694      1.0  0.74488  0.93618  0.45729  1.0000
  Fe  Fe124     1.0  0.81415  0.57781  0.24926  1.0000
  S   S243      1.0  0.85512  0.59343  0.23913  1.0000
  Fe  Fe125     1.0  0.76372  0.57524  0.23812  1.0000
  S   S244      1.0  0.74547  0.59047  0.20782  1.0000
  S   S245      1.0  0.80086  0.55661  0.28956  1.0000
  S   S246      1.0  0.74745  0.55341  0.27720  1.0000
  C   C698      1.0  0.71475  0.58418  0.20097  1.0000
  C   C699      1.0  0.69449  0.56665  0.21606  1.0000
  C   C700      1.0  0.67077  0.56324  0.21058  1.0000
  C   C701      1.0  0.66685  0.57729  0.19003  1.0000
  C   C702      1.0  0.68707  0.59468  0.17483  1.0000
  C   C703      1.0  0.71078  0.59807  0.18028  1.0000
  H   H695      1.0  0.69712  0.55578  0.23201  1.0000
  H   H696      1.0  0.71595  0.93540  0.49200  1.0000
  H   H697      1.0  0.88240  0.80073  0.39683  1.0000
  H   H698      1.0  0.72622  0.61165  0.16837  1.0000
  C   C704      1.0  0.88782  0.80449  0.41864  1.0000
  C   C705      1.0  0.77892  0.79097  0.48200  1.0000
  H   H699      1.0  0.68544  0.87831  0.41026  1.0000
  C   C706      1.0  0.90277  0.58058  0.17541  1.0000
  C   C707      1.0  0.91357  0.59759  0.19763  1.0000
  C   C708      1.0  0.89870  0.60161  0.21642  1.0000
  C   C709      1.0  0.87281  0.58855  0.21355  1.0000
  C   C710      1.0  0.86202  0.57161  0.19127  1.0000
  C   C711      1.0  0.87691  0.56777  0.17231  1.0000
  H   H700      1.0  0.93337  0.60758  0.20048  1.0000
  H   H701      1.0  0.90732  0.61474  0.23356  1.0000
  H   H702      1.0  0.84220  0.56144  0.18866  1.0000
  H   H703      1.0  0.86827  0.55461  0.15520  1.0000
  H   H704      1.0  0.77567  0.75763  0.46273  1.0000
  H   H705      1.0  0.84642  0.54710  0.27603  1.0000
  C   C712      1.0  0.83889  0.66562  0.39139  1.0000
  C   C713      1.0  0.81443  0.65171  0.39988  1.0000
  C   C714      1.0  0.79708  0.63088  0.38385  1.0000
  C   C715      1.0  0.80390  0.62372  0.35914  1.0000
  C   C716      1.0  0.82826  0.63786  0.35046  1.0000
  C   C717      1.0  0.84560  0.65864  0.36651  1.0000
  H   H706      1.0  0.80896  0.65683  0.41892  1.0000
  H   H707      1.0  0.77828  0.62012  0.39076  1.0000
  H   H708      1.0  0.83384  0.63263  0.33156  1.0000
  H   H709      1.0  0.86446  0.66925  0.35972  1.0000
  C   C718      1.0  0.67397  0.82835  0.39626  1.0000
  H   H710      1.0  0.95687  0.62275  0.03636  1.0000
  C   C719      1.0  0.87866  0.55042  0.25704  1.0000
  H   H711      1.0  0.86410  0.80237  0.48150  1.0000
  N   N58       1.0  0.87115  0.80208  0.43821  1.0000
  S   S247      1.0  0.70281  0.86339  0.49155  1.0000
  H   H712      1.0  0.74892  0.92735  0.40685  1.0000
  H   H713      1.0  0.91355  0.62516  0.14254  1.0000
  H   H714      1.0  0.81716  0.59724  0.40868  1.0000
  C   C720      1.0  0.68379  0.90641  0.47033  1.0000
  Fe  Fe126     1.0  0.84397  0.73790  0.48931  1.0000
  C   C721      1.0  0.86068  0.64359  0.44990  1.0000
  C   C722      1.0  0.85035  0.62764  0.42687  1.0000
  H   H715      1.0  0.93818  0.65707  0.14190  1.0000
  C   C723      1.0  0.67529  0.89028  0.44724  1.0000
  H   H716      1.0  0.65584  0.87672  0.44463  1.0000
  C   C724      1.0  0.95171  0.62585  0.05683  1.0000
  H   H717      1.0  0.79187  0.59313  0.44952  1.0000
  C   C725      1.0  0.81128  0.60714  0.44999  1.0000
  C   C726      1.0  0.87112  0.52315  0.21751  1.0000
  N   N59       1.0  0.93923  0.63365  0.10973  1.0000
  C   C727      1.0  0.92454  0.61142  0.09601  1.0000
  C   C728      1.0  0.93055  0.60718  0.06937  1.0000
  H   H718      1.0  0.65366  0.81303  0.43377  1.0000
  H   H719      1.0  0.92508  0.81288  0.41106  1.0000
  H   H720      1.0  0.87974  0.65860  0.44963  1.0000
  H   H721      1.0  0.68450  0.60563  0.15892  1.0000
  C   C729      1.0  0.84578  0.51271  0.22129  1.0000
  N   N60       1.0  0.72439  0.62224  0.26465  1.0000
  C   C730      1.0  0.74571  0.63348  0.24989  1.0000
  C   C731      1.0  0.72452  0.61513  0.29162  1.0000
  C   C732      1.0  0.76789  0.63781  0.26211  1.0000
  C   C733      1.0  0.74639  0.61924  0.30449  1.0000
  C   C734      1.0  0.76820  0.63077  0.28964  1.0000
  C   C735      1.0  0.70137  0.61859  0.25211  1.0000
  H   H722      1.0  0.74560  0.63849  0.22825  1.0000
  H   H723      1.0  0.70762  0.60610  0.30329  1.0000
  H   H724      1.0  0.78458  0.64598  0.25002  1.0000
  H   H725      1.0  0.74649  0.61329  0.32576  1.0000
  H   H726      1.0  0.78524  0.63381  0.29935  1.0000
  H   H727      1.0  0.69673  0.63232  0.26101  1.0000
  H   H728      1.0  0.70270  0.62103  0.22913  1.0000
  H   H729      1.0  0.68607  0.59924  0.25589  1.0000
  H   H730      1.0  0.68841  0.84093  0.35524  1.0000
  N   N61       1.0  0.71682  0.90779  0.43138  1.0000
  H   H731      1.0  0.90829  0.59661  0.10584  1.0000
  C   C736      1.0  0.67191  0.83042  0.36724  1.0000
  C   C737      1.0  0.87764  0.80553  0.46589  1.0000
  C   C738      1.0  0.82552  0.60919  0.42690  1.0000
  N   N62       1.0  0.82160  0.62287  0.47252  1.0000
  C   C739      1.0  0.84574  0.79404  0.42957  1.0000
  S   S248      1.0  0.71353  0.81619  0.48610  1.0000
  C   C740      1.0  0.69217  0.89123  0.42786  1.0000
  C   C741      1.0  0.78623  0.77294  0.47722  1.0000
  C   C742      1.0  0.73452  0.90786  0.41175  1.0000
  H   H732      1.0  0.84499  0.80158  0.40882  1.0000
  C   C743      1.0  0.84598  0.64084  0.47272  1.0000
  H   H733      1.0  0.87798  0.51720  0.20017  1.0000
  H   H734      1.0  0.93738  0.82020  0.46109  1.0000
  H   H735      1.0  0.74342  0.89777  0.42099  1.0000
  C   C744      1.0  0.88762  0.54208  0.23556  1.0000
  H   H736      1.0  0.94404  0.63249  0.15327  1.0000
  C   C745      1.0  0.93347  0.63734  0.13823  1.0000
  C   C746      1.0  0.96023  0.65190  0.09774  1.0000
  H   H737      1.0  0.86134  0.63021  0.40861  1.0000
  H   H738      1.0  0.90730  0.55092  0.23226  1.0000
  H   H739      1.0  0.85409  0.65341  0.49048  1.0000
  H   H740      1.0  0.89128  0.56592  0.27041  1.0000
  H   H741      1.0  0.96840  0.58411  0.03223  1.0000
  C   C747      1.0  0.72530  0.92355  0.45403  1.0000
  H   H742      1.0  0.72541  0.89812  0.39187  1.0000
  C   C748      1.0  0.79335  0.96594  0.48318  1.0000
  C   C749      1.0  0.70895  0.92322  0.47374  1.0000
  C   C750      1.0  0.91195  0.81133  0.42652  1.0000
  C   C751      1.0  0.80708  0.77457  0.49081  1.0000
  H   H743      1.0  0.76292  0.78937  0.47125  1.0000
  S   S249      1.0  0.81602  0.75177  0.48271  1.0000
  C   C752      1.0  0.97845  0.59485  0.01437  1.0000
  C   C753      1.0  0.81060  0.51047  0.24548  1.0000
  C   C754      1.0  0.85322  0.53966  0.26013  1.0000
  H   H744      1.0  0.98375  0.66249  0.06186  1.0000
  H   H745      1.0  0.65880  0.77172  0.27701  1.0000
  H   H746      1.0  0.97243  0.66910  0.10905  1.0000
  N   N63       1.0  0.83717  0.52080  0.24262  1.0000
  H   H747      1.0  0.80448  0.52140  0.23269  1.0000
  S   S250      1.0  0.88717  0.70911  0.48813  1.0000
  H   H748      1.0  0.67102  0.90553  0.48588  1.0000
  S   S251      1.0  0.82959  0.69626  0.48292  1.0000
  H   H749      1.0  0.83306  0.49842  0.20678  1.0000
  H   H750      1.0  0.79310  0.95070  0.47168  1.0000
  H   H751      1.0  0.80567  0.51110  0.26751  1.0000
  H   H752      1.0  0.65535  0.54969  0.22252  1.0000
  H   H753      1.0  0.78720  0.60579  0.49403  1.0000
  H   H754      1.0  0.97363  0.50934  0.99780  1.0000
  S   S252      1.0  0.98656  0.57845  0.16537  1.0000
  N   N64       1.0  0.72256  0.80334  0.58286  1.0000
  C   C755      1.0  0.66922  0.63797  0.90099  1.0000
  C   C756      1.0  0.70699  0.78295  0.56677  1.0000
  H   H755      1.0  0.69249  0.59240  0.88304  1.0000
  Fe  Fe127     1.0  0.70310  0.83456  0.52012  1.0000
  H   H756      1.0  0.81441  0.61703  0.51575  1.0000
  S   S253      1.0  0.74240  0.85989  0.53408  1.0000
  H   H757      1.0  0.86215  0.52055  0.80598  1.0000
  C   C757      1.0  0.68957  0.66332  0.85982  1.0000
  H   H758      1.0  0.72361  0.82247  0.62045  1.0000
  C   C758      1.0  0.90440  0.57881  0.88037  1.0000
  H   H759      1.0  0.71281  0.83118  0.58958  1.0000
  H   H760      1.0  0.82391  0.82811  0.52842  1.0000
  Fe  Fe128     1.0  0.85600  0.70011  0.51761  1.0000
  S   S254      1.0  0.84645  0.66587  0.54513  1.0000
  S   S255      1.0  0.86861  0.74111  0.52598  1.0000
  C   C759      1.0  0.81326  0.81272  0.51405  1.0000
  S   S256      1.0  0.96971  0.55909  0.85900  1.0000
  H   H761      1.0  0.76669  0.97717  0.53810  1.0000
  C   C760      1.0  0.65549  0.83557  0.61696  1.0000
  Fe  Fe129     1.0  0.96896  0.58378  0.82476  1.0000
  S   S257      1.0  0.93498  0.56801  0.79518  1.0000
  H   H762      1.0  0.68292  0.52950  0.72663  1.0000
  H   H763      1.0  0.90660  0.81437  0.49649  1.0000
  Fe  Fe130     1.0  0.79138  0.59068  0.69235  1.0000
  S   S258      1.0  0.79366  0.59654  0.73904  1.0000
  S   S259      1.0  0.80141  0.62554  0.66589  1.0000
  Fe  Fe131     1.0  0.77119  0.53403  0.69896  1.0000
  S   S260      1.0  0.77268  0.53641  0.74584  1.0000
  H   H764      1.0  0.66656  0.58473  0.92482  1.0000
  Fe  Fe132     1.0  0.75636  0.56179  0.74094  1.0000
  S   S261      1.0  0.72225  0.55215  0.76728  1.0000
  Fe  Fe133     1.0  0.81010  0.57114  0.74075  1.0000
  S   S262      1.0  0.84417  0.58609  0.77023  1.0000
  S   S263      1.0  0.75301  0.55747  0.69425  1.0000
  S   S264      1.0  0.80977  0.56730  0.69394  1.0000
  C   C761      1.0  0.75742  0.80275  0.56372  1.0000
  C   C762      1.0  0.70651  0.56793  0.77904  1.0000
  C   C763      1.0  0.71570  0.59362  0.77522  1.0000
  C   C764      1.0  0.70270  0.60519  0.78539  1.0000
  C   C765      1.0  0.68017  0.59130  0.79922  1.0000
  H   H765      1.0  0.88992  0.51939  0.80893  1.0000
  C   C766      1.0  0.68401  0.55404  0.79294  1.0000
  H   H766      1.0  0.73292  0.60464  0.76461  1.0000
  H   H767      1.0  0.71013  0.62508  0.78236  1.0000
  H   H768      1.0  0.91460  0.53397  0.85340  1.0000
  H   H769      1.0  0.66209  0.65034  0.90586  1.0000
  C   C767      1.0  0.90551  0.54477  0.85684  1.0000
  N   N65       1.0  0.88496  0.53973  0.84154  1.0000
  C   C768      1.0  0.91111  0.57493  0.78696  1.0000
  C   C769      1.0  0.89286  0.55987  0.76704  1.0000
  C   C770      1.0  0.87250  0.56319  0.76128  1.0000
  C   C771      1.0  0.87010  0.58175  0.77534  1.0000
  C   C772      1.0  0.88860  0.59714  0.79487  1.0000
  C   C773      1.0  0.90899  0.59385  0.80059  1.0000
  H   H770      1.0  0.89429  0.54524  0.75620  1.0000
  H   H771      1.0  0.85855  0.55119  0.74617  1.0000
  H   H772      1.0  0.88707  0.61164  0.80587  1.0000
  H   H773      1.0  0.92282  0.60566  0.81590  1.0000
  H   H774      1.0  0.68146  0.85069  0.58326  1.0000
  S   S265      1.0  0.97166  0.58539  0.92982  1.0000
  C   C774      1.0  0.71265  0.81533  0.60081  1.0000
  C   C775      1.0  0.83337  0.65492  0.57858  1.0000
  C   C776      1.0  0.82897  0.63123  0.58743  1.0000
  C   C777      1.0  0.81880  0.62168  0.61374  1.0000
  C   C778      1.0  0.81306  0.63583  0.63176  1.0000
  C   C779      1.0  0.81747  0.65952  0.62292  1.0000
  C   C780      1.0  0.82748  0.66900  0.59652  1.0000
  H   H775      1.0  0.83341  0.62011  0.57379  1.0000
  H   H776      1.0  0.81535  0.60334  0.61999  1.0000
  H   H777      1.0  0.81304  0.67065  0.63657  1.0000
  H   H778      1.0  0.83067  0.68721  0.59011  1.0000
  S   S266      1.0  0.98525  0.61809  0.85246  1.0000
  H   H779      1.0  0.66526  0.88088  0.71917  1.0000
  C   C781      1.0  0.68620  0.60533  0.88862  1.0000
  C   C782      1.0  0.82044  0.79458  0.50946  1.0000
  C   C783      1.0  0.66324  0.61753  0.91831  1.0000
  S   S267      1.0  0.66515  0.60736  0.81234  1.0000
  C   C784      1.0  0.77771  0.96060  0.50584  1.0000
  H   H780      1.0  0.70946  0.67736  0.86190  1.0000
  C   C785      1.0  0.74751  0.81353  0.58115  1.0000
  C   C786      1.0  0.71632  0.77202  0.54868  1.0000
  H   H781      1.0  0.70708  0.49620  0.64681  1.0000
  H   H782      1.0  0.85744  0.54972  0.83330  1.0000
  C   C787      1.0  0.68912  0.53191  0.68260  1.0000
  C   C788      1.0  0.88322  0.57332  0.86497  1.0000
  H   H783      1.0  0.68722  0.77525  0.56754  1.0000
  C   C789      1.0  0.74171  0.78196  0.54727  1.0000
  H   H784      1.0  0.67666  0.53419  0.79616  1.0000
  H   H785      1.0  0.77722  0.81106  0.56209  1.0000
  H   H786      1.0  0.83630  0.79609  0.52045  1.0000
  C   C790      1.0  0.96853  0.78983  0.49561  1.0000
  H   H787      1.0  0.69793  0.53082  0.63953  1.0000
  H   H788      1.0  0.74929  0.77398  0.53303  1.0000
  C   C791      1.0  0.87482  0.51900  0.82123  1.0000
  Fe  Fe134     1.0  0.75299  0.84331  0.49829  1.0000
  H   H789      1.0  0.69332  0.80193  0.60662  1.0000
  H   H790      1.0  0.86474  0.50080  0.83211  1.0000
  C   C792      1.0  0.91556  0.56438  0.87643  1.0000
  S   S268      1.0  0.75646  0.49946  0.67019  1.0000
  H   H791      1.0  0.66251  0.85358  0.62722  1.0000
  C   C793      1.0  0.65744  0.81087  0.57836  1.0000
  H   H792      1.0  0.93208  0.56856  0.88827  1.0000
  C   C794      1.0  0.67158  0.60098  0.91190  1.0000
  H   H793      1.0  0.87455  0.58462  0.86756  1.0000
  H   H794      1.0  0.75991  0.83029  0.59299  1.0000
  H   H795      1.0  0.70394  0.75620  0.53554  1.0000
  S   S269      1.0  0.67091  0.80740  0.54736  1.0000
  N   N66       1.0  0.68340  0.64196  0.87806  1.0000
  C   C795      1.0  0.68752  0.52165  0.70900  1.0000
  C   C796      1.0  0.67088  0.56556  0.80286  1.0000
  N   N67       1.0  0.86037  0.64234  0.69116  1.0000
  C   C797      1.0  0.85700  0.66247  0.68761  1.0000
  C   C798      1.0  0.85971  0.63307  0.71721  1.0000
  C   C799      1.0  0.85268  0.67376  0.71047  1.0000
  C   C800      1.0  0.85583  0.64416  0.74058  1.0000
  C   C801      1.0  0.85210  0.66450  0.73711  1.0000
  C   C802      1.0  0.86280  0.62940  0.66681  1.0000
  H   H796      1.0  0.85644  0.66914  0.66686  1.0000
  H   H797      1.0  0.86171  0.61668  0.72004  1.0000
  H   H798      1.0  0.84906  0.68906  0.70735  1.0000
  H   H799      1.0  0.85495  0.63649  0.76115  1.0000
  H   H800      1.0  0.84828  0.67273  0.75498  1.0000
  H   H801      1.0  0.86986  0.64204  0.64857  1.0000
  H   H802      1.0  0.87564  0.62231  0.67132  1.0000
  H   H803      1.0  0.84445  0.61332  0.66097  1.0000
  C   C803      1.0  0.87358  0.55347  0.84565  1.0000
  N   N68       1.0  0.69235  0.50247  0.71266  1.0000
  H   H804      1.0  0.91233  0.59430  0.89522  1.0000
  H   H805      1.0  0.68576  0.54744  0.67995  1.0000
  C   C804      1.0  0.69899  0.49324  0.69058  1.0000
  S   S270      1.0  0.75632  0.92914  0.51636  1.0000
  C   C805      1.0  0.69228  0.62626  0.87211  1.0000
  C   C806      1.0  0.69594  0.52260  0.65997  1.0000
  C   C807      1.0  0.66630  0.83400  0.59197  1.0000
  C   C808      1.0  0.77862  0.98091  0.52054  1.0000
  H   H806      1.0  0.67873  0.67259  0.86470  1.0000
  H   H807      1.0  0.70341  0.62934  0.85382  1.0000
  H   H808      1.0  0.95399  0.56689  0.98442  1.0000
  C   C809      1.0  0.97029  0.58513  0.98719  1.0000
  S   S271      1.0  0.93759  0.78418  0.49798  1.0000
  H   H809      1.0  0.98436  0.83002  0.49576  1.0000
  H   H810      1.0  0.68523  0.65682  0.83773  1.0000
  H   H811      1.0  0.71112  0.50070  0.74872  1.0000
  Fe  Fe135     1.0  0.74312  0.88806  0.50321  1.0000
  H   H812      1.0  0.97424  0.50738  0.82428  1.0000
  S   S272      1.0  0.78443  0.83477  0.50743  1.0000
  C   C810      1.0  0.98309  0.59869  0.96356  1.0000
  H   H813      1.0  0.68176  0.49785  0.75542  1.0000
  C   C811      1.0  0.98287  0.49715  0.83215  1.0000
  C   C812      1.0  0.80668  0.62091  0.49664  1.0000
  C   C813      1.0  0.79249  0.81116  0.50037  1.0000
  H   H814      1.0  0.80695  0.63893  0.49999  1.0000
  H   H815      1.0  0.65367  0.55455  0.81348  1.0000
  C   C814      1.0  0.70095  0.50314  0.66396  1.0000
  C   C815      1.0  0.69193  0.49264  0.74055  1.0000
  H   H816      1.0  0.95930  0.75117  0.49506  1.0000
  C   C816      1.0  0.97410  0.77047  0.49473  1.0000
  Fe  Fe136     1.0  0.89826  0.74961  0.49414  1.0000
