data_image0
_chemical_formula_structural       CHNCH2S2FeS2HNH2CHC6H2CHCH2CHSH3SHC2FeCH3CHC2HS2CFeC3HCFeHC2SFeS2CSH2C2HSH2C5H2C2HFeC2SCHC2HCHNH2CNCHC3H2CSHFeCHC2HCHCH8S4CH2FeS2FeS2FeSFeS3FeCHFeS2FeSFeS3C7H4C4H4CHC6HFeH3C2H3NC9H5CHCNH3NC6H8NH2C2H8NC3HC4SC2H2CH3CFeH4C3HC3HCSC2HSFeS2H3FeCHFeS2CHFeS3HFeS2FeS2FeSFeS3C3H3C4H5NC5SH3SH2C7H4CSHC6H2CHNC5H3CH2NHNC6H3C2SFeHCH2C2FeHC2H2CH2CNHCH2CH3C2HCHC2HSH5SCH2C2SC2H2C3FeSNHSH3C3H3FeSHCHCSHC3FeHFeS2FeS2FeSFeS3CFeS2FeHCFeSH2S2FeS2HC2H3C4NH5C2SH2CHC7H4C6H5CSC6H2C2H3CHCNCHCHC4H2SHCH3CSCH2CFeNH2C2H2SHNC4H3NHCH2C2H4CHSCHC2FeS2FeSHFeHFeS3HS2FeS2FeS2FeSFeS3C8H4C6H4C4H3NC2H2CH2C4H3C2H3C2FeHCHCNH2CH2CHCH2CNC6HCH6NC4H2SHCHSCH7FeH3FeCHFeSCFeS2FeSFeS3CFeS2H2CNHFeS2FeS2HFeS3HC5H3C4H2SHC6H2C2HCH2C6H5C6H5C2FeCH3CNHCH5FeHC2HC2HCH3CNHCSCHC2H2CHC3HCSCNH4CHC2H2CSH3CHSH3FeSCH3C5SCHCNCFeS2FeS2FeS2FeSFeHS2FeS2FeS2FeSFeS2C2N3CHCH2C4HC2HC6H4C6H6CH2C3HFeC4H4CH2CNH3C3HCNCH2CHCHNSCH2CHNH5SHC2H5C6HCHC4HCH5C5HCH2CHCH3CHCSC4H3C5H3CSH2CFeHSFeS2FeSFeHS2FeS2HNHCHFeS2FeS2FeSFeS2H3C6H6C2H3C6H4C6H4CHCSC2HC2NC2H2C2H2NC5H6CS2HC2HC2HCSHC2H2C3H3C2HC3H3CH2CHFeH4SHC2H2SCFeS2FeSFeS2HFeS2FeSFeS2FeSFeS3CNC6H4C2H2CSH4CH2CHCHFeHC6H4C6H4CHCH2CSC2HNCHCHC2H3C3H2FeCHNC2SCH2SHC2H5C2SH3CHCHNC3NH2CSNHC2HCHCH4C3H2CH2CHCH2C2FeCSC3HS2NSCH2C2HC4FeHC2HCNC2H2FeH5CHFeHCHSCNHFe2H2SHC3H5SHCHC3H2C3H2CH2SHCHC2H2C3FeHNHS2HSCHSH2CSH3FeHSC2HCH3C3NCHCHCHCFeSCHCS2HC2HFeHC4SCHSFeNCH2FeSFeS2FeSFeS3FeS2FeS2HC2HC7H3C6H4CNH4C3NC4HC2HCSHCH4C2HCNHC2SC2H2CHCH5C2H2CSHCH2CHCFeHFeCH4C2SHC2HNCH2CHC4FeHSHSHCSH2FeH3C3SCHC4NHCFeS2NH2C2HC2H2C2H4CH2C2FeHFeSCHS2CH3FeC3SC3SCHCNCH3C2HS2HFeS2FeS2FeSFeHS2FeS2FeS2FeSFeS3HFeS2H2FeC3HNC6HCH2C4H2CHC3HNH2C6H4C6H4SNC6H8CHCHC3HCHCH4C2HC2SCHCH2C2HCHCH2CHC2SNCH2C2H6SHCHCHC2H2CHFeS2FeS2FeSFeS3FeCSFeS2FeS2FeSFeS3C6H4FeHC2H2C7H4C5H2C6H3NH2CH3CHCH2CNC6H8C4H2CHSCSHCHSHCHNH4C2HC3H2C2HN2H4C2H7CHC2HCSC2H3CH2NHCHCHFeS2HSCHSH2C5H3CNCFeHCHCH5SC2HCSNFeCHCH2CFeH2CHSHSFeH3SFeSHNH2CSH2SCH3C6HC2HC2NHC4FeCHS2FeCHCHC
_chemical_formula_sum              "C864 H864 N72 S288 Fe144"
_cell_length_a       67.6426
_cell_length_b       67.9386
_cell_length_c       51.9467
_cell_angle_alpha    90.4916
_cell_angle_beta     89.7833
_cell_angle_gamma    116.826

_space_group_name_H-M_alt    "P 1"
_space_group_IT_number       1

loop_
  _space_group_symop_operation_xyz
  'x, y, z'

loop_
  _atom_site_type_symbol
  _atom_site_label
  _atom_site_symmetry_multiplicity
  _atom_site_fract_x
  _atom_site_fract_y
  _atom_site_fract_z
  _atom_site_occupancy
  C   C1        1.0  0.05362  0.50780  0.32145  1.0000
  H   H1        1.0  0.25103  0.40417  0.47662  1.0000
  N   N1        1.0  0.05403  0.46636  0.38625  1.0000
  C   C2        1.0  0.03406  0.48822  0.31766  1.0000
  H   H2        1.0  0.14342  0.41579  0.42037  1.0000
  H   H3        1.0  0.21186  0.39302  0.46419  1.0000
  S   S1        1.0  0.17668  0.39998  0.48710  1.0000
  S   S2        1.0  0.31168  0.40570  0.47455  1.0000
  Fe  Fe1       1.0  0.12434  0.43192  0.47070  1.0000
  S   S3        1.0  0.11766  0.39703  0.47822  1.0000
  S   S4        1.0  0.11644  0.44037  0.43146  1.0000
  H   H4        1.0  0.08611  0.48983  0.39871  1.0000
  N   N2        1.0  0.17598  0.44111  0.42820  1.0000
  H   H5        1.0  0.06901  0.44810  0.40386  1.0000
  H   H6        1.0  0.21466  0.50161  0.44699  1.0000
  C   C3        1.0  0.20851  0.46766  0.44996  1.0000
  H   H7        1.0  0.16072  0.40679  0.43725  1.0000
  C   C4        1.0  0.16076  0.41812  0.42187  1.0000
  C   C5        1.0  0.17204  0.45774  0.41874  1.0000
  C   C6        1.0  0.19433  0.44586  0.44294  1.0000
  C   C7        1.0  0.12651  0.46873  0.42609  1.0000
  C   C8        1.0  0.12323  0.47595  0.40203  1.0000
  C   C9        1.0  0.13185  0.49858  0.39699  1.0000
  H   H8        1.0  0.25200  0.34864  0.47592  1.0000
  H   H9        1.0  0.16566  0.41328  0.40338  1.0000
  C   C10       1.0  0.13845  0.48417  0.44514  1.0000
  H   H10       1.0  0.11421  0.46404  0.38716  1.0000
  C   C11       1.0  0.20407  0.48466  0.44130  1.0000
  H   H11       1.0  0.14108  0.47868  0.46373  1.0000
  H   H12       1.0  0.18213  0.49277  0.41853  1.0000
  C   C12       1.0  0.18584  0.47973  0.42537  1.0000
  H   H13       1.0  0.03497  0.47312  0.31287  1.0000
  S   S5        1.0  0.07931  0.50725  0.31906  1.0000
  H   H14       1.0  0.15785  0.45402  0.40643  1.0000
  H   H15       1.0  0.19779  0.43274  0.44993  1.0000
  H   H16       1.0  0.22259  0.47123  0.46243  1.0000
  S   S6        1.0  0.34468  0.44949  0.41967  1.0000
  H   H17       1.0  0.07334  0.50033  0.37607  1.0000
  C   C13       1.0  0.14720  0.50682  0.44002  1.0000
  C   C14       1.0  0.03473  0.46638  0.37843  1.0000
  Fe  Fe2       1.0  0.34044  0.43686  0.46050  1.0000
  C   C15       1.0  0.21869  0.40321  0.48112  1.0000
  H   H18       1.0  0.08394  0.48186  0.36503  1.0000
  H   H19       1.0  0.12939  0.50407  0.37835  1.0000
  H   H20       1.0  0.28765  0.35470  0.49615  1.0000
  C   C16       1.0  0.07538  0.48552  0.38135  1.0000
  H   H21       1.0  0.03500  0.48069  0.36904  1.0000
  C   C17       1.0  0.05366  0.44820  0.39790  1.0000
  C   C18       1.0  0.24097  0.40954  0.48810  1.0000
  H   H22       1.0  0.05448  0.34612  0.49054  1.0000
  S   S7        1.0  0.33479  0.45830  0.48962  1.0000
  S   S8        1.0  0.15819  0.44651  0.48821  1.0000
  C   C19       1.0  0.14390  0.51405  0.41596  1.0000
  Fe  Fe3       1.0  0.15089  0.41195  0.49869  1.0000
  C   C20       1.0  0.04042  0.34869  0.49632  1.0000
  C   C21       1.0  0.20511  0.40974  0.49595  1.0000
  C   C22       1.0  0.03351  0.42951  0.40233  1.0000
  H   H23       1.0  0.03325  0.41516  0.41169  1.0000
  C   C23       1.0  0.25630  0.35595  0.49500  1.0000
  Fe  Fe4       1.0  0.33728  0.40311  0.50049  1.0000
  H   H24       1.0  0.22652  0.35959  0.49945  1.0000
  C   C24       1.0  0.35012  0.31833  0.51312  1.0000
  C   C25       1.0  0.24201  0.36223  0.50838  1.0000
  S   S9        1.0  0.33138  0.42244  0.53268  1.0000
  Fe  Fe5       1.0  0.14089  0.44679  0.52510  1.0000
  S   S10       1.0  0.13513  0.41284  0.53694  1.0000
  S   S11       1.0  0.15788  0.47816  0.54853  1.0000
  C   C26       1.0  0.35015  0.35392  0.50706  1.0000
  S   S12       1.0  0.06845  0.37863  0.53211  1.0000
  H   H25       1.0  0.06871  0.51676  0.67042  1.0000
  H   H26       1.0  0.02683  0.38089  0.53555  1.0000
  C   C27       1.0  0.05257  0.51280  0.67833  1.0000
  C   C28       1.0  0.02480  0.36815  0.52168  1.0000
  H   H27       1.0  0.21998  0.37924  0.53360  1.0000
  S   S13       1.0  0.27652  0.42752  0.52273  1.0000
  H   H28       1.0  0.08925  0.48446  0.56664  1.0000
  H   H29       1.0  0.07286  0.48189  0.68153  1.0000
  C   C29       1.0  0.03334  0.45633  0.71455  1.0000
  C   C30       1.0  0.14522  0.48096  0.57706  1.0000
  C   C31       1.0  0.12456  0.46457  0.58487  1.0000
  C   C32       1.0  0.21426  0.42293  0.51777  1.0000
  C   C33       1.0  0.11407  0.46808  0.60662  1.0000
  H   H30       1.0  0.07611  0.50391  0.73320  1.0000
  H   H31       1.0  0.11654  0.44936  0.57394  1.0000
  C   C34       1.0  0.24987  0.42211  0.51043  1.0000
  C   C35       1.0  0.12413  0.48798  0.62054  1.0000
  H   H32       1.0  0.09796  0.45548  0.61240  1.0000
  Fe  Fe6       1.0  0.10257  0.40128  0.51523  1.0000
  C   C36       1.0  0.04343  0.36545  0.51404  1.0000
  C   C37       1.0  0.11583  0.49646  0.53896  1.0000
  S   S14       1.0  0.10972  0.49269  0.64626  1.0000
  C   C38       1.0  0.03431  0.49292  0.67147  1.0000
  H   H33       1.0  0.24118  0.39364  0.55665  1.0000
  C   C39       1.0  0.04307  0.49155  0.74794  1.0000
  C   C40       1.0  0.26730  0.37546  0.54334  1.0000
  H   H34       1.0  0.24294  0.43846  0.54245  1.0000
  C   C41       1.0  0.14500  0.50414  0.61306  1.0000
  H   H35       1.0  0.22296  0.36452  0.56094  1.0000
  N   N3        1.0  0.05460  0.47277  0.71635  1.0000
  H   H36       1.0  0.06831  0.45542  0.69364  1.0000
  H   H37       1.0  0.20411  0.42805  0.52949  1.0000
  C   C42       1.0  0.07181  0.47249  0.69931  1.0000
  N   N4        1.0  0.24764  0.37189  0.53222  1.0000
  C   C43       1.0  0.28187  0.36920  0.53060  1.0000
  H   H38       1.0  0.03653  0.48162  0.65832  1.0000
  C   C44       1.0  0.05953  0.49035  0.73258  1.0000
  C   C45       1.0  0.23636  0.42884  0.52506  1.0000
  C   C46       1.0  0.15551  0.50062  0.59137  1.0000
  H   H39       1.0  0.27196  0.38351  0.56200  1.0000
  H   H40       1.0  0.03914  0.33682  0.56399  1.0000
  C   C47       1.0  0.23213  0.37748  0.54660  1.0000
  S   S15       1.0  0.33502  0.36954  0.51110  1.0000
  H   H41       1.0  0.08832  0.48009  0.70878  1.0000
  Fe  Fe7       1.0  0.30775  0.42708  0.50551  1.0000
  C   C48       1.0  0.13614  0.51391  0.53233  1.0000
  H   H42       1.0  0.14551  0.51215  0.51621  1.0000
  C   C49       1.0  0.27628  0.35933  0.50632  1.0000
  C   C50       1.0  0.02214  0.33416  0.56626  1.0000
  H   H43       1.0  0.32254  0.32491  0.52151  1.0000
  C   C51       1.0  0.10452  0.49833  0.56063  1.0000
  H   H44       1.0  0.10942  0.48115  0.52800  1.0000
  C   C52       1.0  0.33943  0.33181  0.51457  1.0000
  H   H45       1.0  0.34128  0.30125  0.51890  1.0000
  H   H46       1.0  0.17154  0.51328  0.58547  1.0000
  H   H47       1.0  0.02676  0.30927  0.53043  1.0000
  H   H48       1.0  0.02911  0.44302  0.70067  1.0000
  H   H49       1.0  0.29756  0.37219  0.53930  1.0000
  H   H50       1.0  0.35130  0.47769  0.61185  1.0000
  H   H51       1.0  0.04697  0.50587  0.76015  1.0000
  H   H52       1.0  0.03172  0.36364  0.58928  1.0000
  S   S16       1.0  0.10770  0.43560  0.50640  1.0000
  S   S17       1.0  0.14163  0.53553  0.33413  1.0000
  S   S18       1.0  0.14928  0.70801  0.47660  1.0000
  S   S19       1.0  0.16763  0.65925  0.47007  1.0000
  C   C53       1.0  0.08830  0.57959  0.41163  1.0000
  H   H53       1.0  0.32771  0.76198  0.16939  1.0000
  H   H54       1.0  0.07038  0.63602  0.43196  1.0000
  Fe  Fe8       1.0  0.25636  0.62880  0.10207  1.0000
  S   S20       1.0  0.25303  0.64741  0.13669  1.0000
  S   S21       1.0  0.26188  0.64557  0.06309  1.0000
  Fe  Fe9       1.0  0.25952  0.59371  0.13547  1.0000
  S   S22       1.0  0.25742  0.60976  0.17239  1.0000
  S   S23       1.0  0.26016  0.56111  0.13951  1.0000
  Fe  Fe10      1.0  0.23024  0.61426  0.15312  1.0000
  S   S24       1.0  0.19782  0.60605  0.17393  1.0000
  Fe  Fe11      1.0  0.28028  0.64138  0.15333  1.0000
  S   S25       1.0  0.31016  0.66612  0.17457  1.0000
  S   S26       1.0  0.23073  0.59602  0.11678  1.0000
  S   S27       1.0  0.28514  0.62485  0.11816  1.0000
  Fe  Fe12      1.0  0.10965  0.53800  0.33097  1.0000
  C   C54       1.0  0.07849  0.60957  0.42122  1.0000
  H   H55       1.0  0.35023  0.66167  0.18149  1.0000
  Fe  Fe13      1.0  0.12963  0.58450  0.35259  1.0000
  S   S28       1.0  0.16294  0.58567  0.35750  1.0000
  S   S29       1.0  0.12330  0.61329  0.36439  1.0000
  Fe  Fe14      1.0  0.15741  0.56995  0.31821  1.0000
  S   S30       1.0  0.18817  0.58232  0.29299  1.0000
  Fe  Fe15      1.0  0.14435  0.55141  0.37275  1.0000
  S   S31       1.0  0.15514  0.54244  0.40992  1.0000
  S   S32       1.0  0.12514  0.57130  0.31190  1.0000
  S   S33       1.0  0.11128  0.55134  0.37088  1.0000
  C   C55       1.0  0.07901  0.62650  0.43721  1.0000
  C   C56       1.0  0.19547  0.60111  0.20750  1.0000
  C   C57       1.0  0.17465  0.59345  0.21951  1.0000
  C   C58       1.0  0.17205  0.58783  0.24582  1.0000
  C   C59       1.0  0.19034  0.59000  0.26029  1.0000
  C   C60       1.0  0.21118  0.59813  0.24842  1.0000
  C   C61       1.0  0.21375  0.60367  0.22221  1.0000
  H   H56       1.0  0.16042  0.59151  0.20831  1.0000
  H   H57       1.0  0.15590  0.58159  0.25477  1.0000
  H   H58       1.0  0.22544  0.60000  0.25952  1.0000
  H   H59       1.0  0.22988  0.60988  0.21343  1.0000
  C   C62       1.0  0.32217  0.69249  0.16094  1.0000
  C   C63       1.0  0.31089  0.69824  0.14231  1.0000
  C   C64       1.0  0.32075  0.71937  0.13158  1.0000
  C   C65       1.0  0.31602  0.61843  0.19563  1.0000
  H   H60       1.0  0.34015  0.59370  0.12226  1.0000
  H   H61       1.0  0.26740  0.66080  0.01113  1.0000
  H   H62       1.0  0.29448  0.68652  0.13631  1.0000
  H   H63       1.0  0.31183  0.72383  0.11738  1.0000
  C   C66       1.0  0.09101  0.63132  0.46009  1.0000
  H   H64       1.0  0.33943  0.66491  0.12985  1.0000
  C   C67       1.0  0.32614  0.55866  0.12839  1.0000
  C   C68       1.0  0.30668  0.53950  0.13352  1.0000
  C   C69       1.0  0.28648  0.54041  0.13638  1.0000
  C   C70       1.0  0.28554  0.56047  0.13393  1.0000
  C   C71       1.0  0.30494  0.57965  0.12846  1.0000
  C   C72       1.0  0.32524  0.57877  0.12588  1.0000
  H   H65       1.0  0.06739  0.54248  0.33031  1.0000
  Fe  Fe16      1.0  0.15543  0.68049  0.49209  1.0000
  H   H66       1.0  0.30445  0.59524  0.12678  1.0000
  H   H67       1.0  0.33672  0.74359  0.20538  1.0000
  H   H68       1.0  0.22075  0.54830  0.23394  1.0000
  C   C73       1.0  0.25476  0.63100  0.03339  1.0000
  C   C74       1.0  0.24455  0.60794  0.03221  1.0000
  H   H69       1.0  0.35067  0.58697  0.18497  1.0000
  H   H70       1.0  0.24086  0.59853  0.04981  1.0000
  H   H71       1.0  0.03069  0.54247  0.33336  1.0000
  N   N5        1.0  0.18681  0.55144  0.17582  1.0000
  C   C75       1.0  0.34084  0.59566  0.18855  1.0000
  C   C76       1.0  0.31778  0.58416  0.18830  1.0000
  C   C77       1.0  0.20747  0.55294  0.17197  1.0000
  C   C78       1.0  0.15515  0.64692  0.44063  1.0000
  C   C79       1.0  0.15843  0.62927  0.43101  1.0000
  C   C80       1.0  0.14854  0.61878  0.40781  1.0000
  C   C81       1.0  0.13562  0.62614  0.39375  1.0000
  C   C82       1.0  0.13247  0.64394  0.40318  1.0000
  C   C83       1.0  0.14208  0.65422  0.42668  1.0000
  H   H72       1.0  0.16849  0.62352  0.44174  1.0000
  H   H73       1.0  0.15093  0.60496  0.40093  1.0000
  H   H74       1.0  0.12249  0.64974  0.39241  1.0000
  H   H75       1.0  0.13951  0.66787  0.43395  1.0000
  H   H76       1.0  0.15654  0.51876  0.45472  1.0000
  C   C84       1.0  0.21111  0.54882  0.21755  1.0000
  H   H77       1.0  0.18503  0.56410  0.13897  1.0000
  C   C85       1.0  0.21996  0.55175  0.19275  1.0000
  N   N6        1.0  0.33866  0.62953  0.19648  1.0000
  H   H78       1.0  0.11092  0.59375  0.45535  1.0000
  H   H79       1.0  0.07545  0.56372  0.41916  1.0000
  H   H80       1.0  0.16427  0.53610  0.14517  1.0000
  N   N7        1.0  0.17401  0.63952  0.32372  1.0000
  C   C86       1.0  0.17654  0.64799  0.34817  1.0000
  C   C87       1.0  0.18779  0.63124  0.31467  1.0000
  C   C88       1.0  0.19322  0.64833  0.36428  1.0000
  C   C89       1.0  0.20480  0.63152  0.33015  1.0000
  C   C90       1.0  0.20744  0.64004  0.35515  1.0000
  C   C91       1.0  0.15549  0.63787  0.30774  1.0000
  H   H81       1.0  0.16527  0.65406  0.35559  1.0000
  H   H82       1.0  0.18541  0.62393  0.29557  1.0000
  H   H83       1.0  0.19471  0.65450  0.38390  1.0000
  H   H84       1.0  0.21529  0.62439  0.32303  1.0000
  H   H85       1.0  0.22015  0.63977  0.36761  1.0000
  H   H86       1.0  0.15032  0.65074  0.31307  1.0000
  H   H87       1.0  0.16006  0.63987  0.28701  1.0000
  H   H88       1.0  0.14105  0.62148  0.31055  1.0000
  N   N8        1.0  0.34157  0.68237  0.09549  1.0000
  H   H89       1.0  0.10452  0.57912  0.41111  1.0000
  H   H90       1.0  0.21452  0.55527  0.15277  1.0000
  C   C92       1.0  0.34342  0.70790  0.16866  1.0000
  C   C93       1.0  0.05236  0.52731  0.32750  1.0000
  H   H91       1.0  0.18289  0.54480  0.24048  1.0000
  H   H92       1.0  0.08427  0.58151  0.39135  1.0000
  H   H93       1.0  0.30838  0.66127  0.08354  1.0000
  H   H94       1.0  0.23645  0.55326  0.18953  1.0000
  H   H95       1.0  0.09154  0.64444  0.47252  1.0000
  H   H96       1.0  0.30316  0.69069  0.06214  1.0000
  H   H97       1.0  0.04070  0.65702  0.45618  1.0000
  H   H98       1.0  0.30721  0.52390  0.13544  1.0000
  N   N9        1.0  0.08973  0.59792  0.42788  1.0000
  C   C94       1.0  0.17776  0.54793  0.19998  1.0000
  C   C95       1.0  0.10163  0.60265  0.45028  1.0000
  C   C96       1.0  0.03820  0.65526  0.47677  1.0000
  H   H99       1.0  0.06930  0.60602  0.40331  1.0000
  C   C97       1.0  0.32197  0.67780  0.08348  1.0000
  C   C98       1.0  0.31897  0.69445  0.07112  1.0000
  C   C99       1.0  0.34957  0.65353  0.20015  1.0000
  C   C100      1.0  0.33618  0.71591  0.07109  1.0000
  S   S34       1.0  0.08353  0.68134  0.47985  1.0000
  C   C101      1.0  0.05664  0.66529  0.49330  1.0000
  C   C102      1.0  0.34224  0.73454  0.13873  1.0000
  H   H100      1.0  0.34035  0.65874  0.21415  1.0000
  H   H101      1.0  0.30617  0.62726  0.19793  1.0000
  C   C103      1.0  0.25951  0.64299  0.01034  1.0000
  H   H102      1.0  0.23110  0.57917  0.00745  1.0000
  H   H103      1.0  0.27156  0.52552  0.14058  1.0000
  H   H104      1.0  0.28732  0.58690  0.19018  1.0000
  C   C104      1.0  0.30524  0.59560  0.19153  1.0000
  Fe  Fe17      1.0  0.11725  0.69184  0.49956  1.0000
  H   H105      1.0  0.30965  0.56652  0.18453  1.0000
  H   H106      1.0  0.16140  0.54676  0.20307  1.0000
  H   H107      1.0  0.33369  0.64842  0.10078  1.0000
  H   H108      1.0  0.33392  0.72918  0.06228  1.0000
  C   C105      1.0  0.10250  0.61943  0.46667  1.0000
  C   C106      1.0  0.17395  0.55272  0.15381  1.0000
  C   C107      1.0  0.18981  0.54673  0.22122  1.0000
  H   H109      1.0  0.16258  0.55972  0.15973  1.0000
  C   C108      1.0  0.35358  0.72879  0.15728  1.0000
  C   C109      1.0  0.03160  0.52726  0.32926  1.0000
  C   C110      1.0  0.23901  0.59701  0.00818  1.0000
  H   H110      1.0  0.35218  0.70356  0.18317  1.0000
  C   C111      1.0  0.35108  0.61851  0.19256  1.0000
  S   S35       1.0  0.35137  0.55705  0.12618  1.0000
  C   C112      1.0  0.34414  0.66495  0.10931  1.0000
  C   C113      1.0  0.34612  0.76129  0.20288  1.0000
  H   H111      1.0  0.11244  0.62347  0.48406  1.0000
  S   S36       1.0  0.35457  0.76051  0.12413  1.0000
  Fe  Fe18      1.0  0.14090  0.68532  0.54625  1.0000
  S   S37       1.0  0.13326  0.71292  0.53455  1.0000
  S   S38       1.0  0.13333  0.67223  0.58681  1.0000
  H   H112      1.0  0.13298  0.61570  0.64506  1.0000
  H   H113      1.0  0.20039  0.61297  0.73433  1.0000
  H   H114      1.0  0.12192  0.64420  0.63098  1.0000
  Fe  Fe19      1.0  0.10560  0.55497  0.69049  1.0000
  C   C114      1.0  0.33501  0.70867  0.94434  1.0000
  H   H115      1.0  0.16857  0.58380  0.89444  1.0000
  Fe  Fe20      1.0  0.14467  0.57664  0.65433  1.0000
  S   S39       1.0  0.15868  0.55358  0.66565  1.0000
  S   S40       1.0  0.16236  0.59985  0.62172  1.0000
  C   C115      1.0  0.31225  0.69762  0.94937  1.0000
  H   H116      1.0  0.30306  0.68045  0.94363  1.0000
  Fe  Fe21      1.0  0.15074  0.55941  0.70635  1.0000
  S   S41       1.0  0.17621  0.56256  0.73680  1.0000
  S   S42       1.0  0.11025  0.54949  0.64878  1.0000
  S   S43       1.0  0.13914  0.58447  0.69517  1.0000
  H   H117      1.0  0.20124  0.53219  0.90333  1.0000
  Fe  Fe22      1.0  0.22260  0.61879  0.86802  1.0000
  S   S44       1.0  0.23558  0.59509  0.87977  1.0000
  S   S45       1.0  0.19058  0.60959  0.84626  1.0000
  Fe  Fe23      1.0  0.26193  0.65795  0.89205  1.0000
  S   S46       1.0  0.27824  0.63760  0.90551  1.0000
  S   S47       1.0  0.27876  0.69421  0.90078  1.0000
  Fe  Fe24      1.0  0.26849  0.62138  0.86666  1.0000
  S   S48       1.0  0.29142  0.61524  0.84002  1.0000
  Fe  Fe25      1.0  0.24399  0.61351  0.91773  1.0000
  S   S49       1.0  0.23618  0.59470  0.95532  1.0000
  S   S50       1.0  0.25492  0.64384  0.85216  1.0000
  S   S51       1.0  0.22823  0.63513  0.90709  1.0000
  C   C116      1.0  0.24369  0.60901  0.98515  1.0000
  C   C117      1.0  0.02893  0.52196  0.70583  1.0000
  C   C118      1.0  0.02354  0.55512  0.66422  1.0000
  H   H118      1.0  0.25767  0.64138  0.96870  1.0000
  H   H119      1.0  0.20159  0.68248  0.59766  1.0000
  H   H120      1.0  0.20388  0.62810  0.76358  1.0000
  C   C119      1.0  0.33137  0.70550  0.85515  1.0000
  C   C120      1.0  0.31070  0.69526  0.86736  1.0000
  C   C121      1.0  0.30473  0.70685  0.88564  1.0000
  C   C122      1.0  0.31978  0.72851  0.89226  1.0000
  H   H121      1.0  0.34493  0.75937  0.96694  1.0000
  H   H122      1.0  0.33569  0.69660  0.84062  1.0000
  H   H123      1.0  0.29930  0.67848  0.86232  1.0000
  H   H124      1.0  0.31521  0.73754  0.90636  1.0000
  H   H125      1.0  0.22157  0.74132  0.52964  1.0000
  N   N10       1.0  0.21476  0.73128  0.56850  1.0000
  C   C123      1.0  0.04997  0.52732  0.69564  1.0000
  C   C124      1.0  0.32533  0.60396  0.84364  1.0000
  C   C125      1.0  0.30800  0.60575  0.85656  1.0000
  C   C126      1.0  0.30409  0.59999  0.88253  1.0000
  C   C127      1.0  0.31751  0.59248  0.89553  1.0000
  S   S52       1.0  0.17410  0.69961  0.52698  1.0000
  H   H126      1.0  0.17085  0.72537  0.60498  1.0000
  H   H127      1.0  0.29053  0.60100  0.89253  1.0000
  H   H128      1.0  0.31427  0.58780  0.91554  1.0000
  S   S53       1.0  0.11678  0.53066  0.70490  1.0000
  H   H129      1.0  0.22196  0.64108  0.73647  1.0000
  H   H130      1.0  0.27069  0.59803  0.78141  1.0000
  C   C128      1.0  0.34081  0.73848  0.88076  1.0000
  C   C129      1.0  0.17832  0.57398  0.76801  1.0000
  C   C130      1.0  0.16557  0.58446  0.77567  1.0000
  C   C131      1.0  0.16930  0.59512  0.79985  1.0000
  C   C132      1.0  0.18600  0.59568  0.81630  1.0000
  C   C133      1.0  0.19846  0.58487  0.80882  1.0000
  C   C134      1.0  0.19443  0.57384  0.78493  1.0000
  H   H131      1.0  0.15309  0.58464  0.76284  1.0000
  H   H132      1.0  0.15945  0.60329  0.80562  1.0000
  H   H133      1.0  0.21121  0.58499  0.82144  1.0000
  H   H134      1.0  0.20419  0.56556  0.77926  1.0000
  C   C135      1.0  0.03131  0.65163  0.52977  1.0000
  S   S54       1.0  0.07281  0.55210  0.70474  1.0000
  H   H135      1.0  0.02685  0.53314  0.71927  1.0000
  C   C136      1.0  0.14032  0.65111  0.59546  1.0000
  C   C137      1.0  0.15431  0.64591  0.58001  1.0000
  C   C138      1.0  0.16090  0.63009  0.58824  1.0000
  C   C139      1.0  0.15321  0.61910  0.61169  1.0000
  C   C140      1.0  0.13890  0.62402  0.62691  1.0000
  C   C141      1.0  0.13267  0.64015  0.61892  1.0000
  H   H136      1.0  0.16031  0.65431  0.56192  1.0000
  H   H137      1.0  0.17197  0.62635  0.57639  1.0000
  C   C142      1.0  0.19887  0.73608  0.57912  1.0000
  H   H138      1.0  0.24943  0.58216  0.74089  1.0000
  N   N11       1.0  0.18308  0.56952  0.92004  1.0000
  C   C143      1.0  0.19235  0.55540  0.92250  1.0000
  C   C144      1.0  0.17513  0.57198  0.89674  1.0000
  C   C145      1.0  0.19346  0.54300  0.90138  1.0000
  C   C146      1.0  0.17573  0.55964  0.87531  1.0000
  C   C147      1.0  0.18502  0.54512  0.87766  1.0000
  H   H139      1.0  0.32806  0.60789  0.82340  1.0000
  H   H140      1.0  0.19936  0.55397  0.94074  1.0000
  H   H141      1.0  0.18537  0.57641  0.96058  1.0000
  C   C148      1.0  0.27764  0.69709  0.96518  1.0000
  H   H142      1.0  0.22765  0.70789  0.56554  1.0000
  H   H143      1.0  0.13034  0.55892  0.59264  1.0000
  N   N12       1.0  0.30155  0.70859  0.96028  1.0000
  H   H144      1.0  0.15517  0.56933  0.57411  1.0000
  N   N13       1.0  0.22886  0.61781  0.75650  1.0000
  C   C149      1.0  0.24061  0.62673  0.77857  1.0000
  C   C150      1.0  0.23227  0.60233  0.74273  1.0000
  C   C151      1.0  0.25591  0.61984  0.78765  1.0000
  C   C152      1.0  0.24728  0.59489  0.75146  1.0000
  C   C153      1.0  0.25912  0.60371  0.77413  1.0000
  C   C154      1.0  0.21308  0.62546  0.74720  1.0000
  H   H145      1.0  0.23787  0.63894  0.78958  1.0000
  H   H146      1.0  0.22281  0.59508  0.72535  1.0000
  H   H147      1.0  0.26514  0.62677  0.80521  1.0000
  C   C155      1.0  0.14328  0.55465  0.58489  1.0000
  C   C156      1.0  0.33509  0.59107  0.88273  1.0000
  S   S55       1.0  0.35178  0.58183  0.89948  1.0000
  Fe  Fe26      1.0  0.16611  0.72656  0.51312  1.0000
  H   H148      1.0  0.17353  0.69164  0.61805  1.0000
  C   C157      1.0  0.33903  0.59687  0.85678  1.0000
  H   H149      1.0  0.16100  0.54628  0.54269  1.0000
  H   H150      1.0  0.16954  0.56181  0.85683  1.0000
  C   C158      1.0  0.34646  0.72708  0.86189  1.0000
  C   C159      1.0  0.31304  0.73044  0.96670  1.0000
  Fe  Fe27      1.0  0.12372  0.52703  0.66335  1.0000
  H   H151      1.0  0.06696  0.67075  0.53292  1.0000
  C   C160      1.0  0.20113  0.69780  0.59295  1.0000
  C   C161      1.0  0.18530  0.70290  0.60437  1.0000
  H   H152      1.0  0.15220  0.55195  0.60133  1.0000
  H   H153      1.0  0.16619  0.58308  0.94337  1.0000
  C   C162      1.0  0.21575  0.71222  0.57482  1.0000
  H   H154      1.0  0.15300  0.51937  0.62389  1.0000
  H   H155      1.0  0.30453  0.73917  0.97511  1.0000
  C   C163      1.0  0.11374  0.51772  0.57540  1.0000
  N   N14       1.0  0.13353  0.53488  0.56854  1.0000
  H   H156      1.0  0.26999  0.68011  0.95695  1.0000
  C   C164      1.0  0.18391  0.72196  0.59718  1.0000
  H   H157      1.0  0.26931  0.70595  0.95565  1.0000
  H   H158      1.0  0.02880  0.65063  0.55039  1.0000
  C   C165      1.0  0.25401  0.63206  0.98632  1.0000
  H   H159      1.0  0.03663  0.53787  0.64037  1.0000
  H   H160      1.0  0.19577  0.60002  0.94013  1.0000
  H   H161      1.0  0.35241  0.75517  0.88604  1.0000
  C   C166      1.0  0.05305  0.66307  0.51990  1.0000
  C   C167      1.0  0.34683  0.73097  0.95083  1.0000
  H   H162      1.0  0.03981  0.56791  0.66971  1.0000
  C   C168      1.0  0.33583  0.74195  0.96211  1.0000
  H   H163      1.0  0.27429  0.69605  0.98619  1.0000
  C   C169      1.0  0.14487  0.53308  0.54750  1.0000
  C   C170      1.0  0.18248  0.58286  0.94210  1.0000
  H   H164      1.0  0.23380  0.76334  0.55290  1.0000
  S   S56       1.0  0.12314  0.66370  0.51298  1.0000
  H   H165      1.0  0.35379  0.64935  0.82198  1.0000
  H   H166      1.0  0.24557  0.74470  0.54804  1.0000
  H   H167      1.0  0.18608  0.53591  0.86099  1.0000
  H   H168      1.0  0.19739  0.75065  0.57326  1.0000
  H   H169      1.0  0.34327  0.70014  0.93488  1.0000
  S   S57       1.0  0.19185  0.76262  0.52262  1.0000
  C   C171      1.0  0.22970  0.74582  0.54883  1.0000
  H   H170      1.0  0.35219  0.59525  0.84664  1.0000
  H   H171      1.0  0.10540  0.51866  0.59293  1.0000
  C   C172      1.0  0.02164  0.53799  0.64769  1.0000
  C   C173      1.0  0.35383  0.79415  0.17878  1.0000
  S   S58       1.0  0.34132  0.89425  0.47612  1.0000
  C   C174      1.0  0.24954  0.79921  0.48240  1.0000
  C   C175      1.0  0.22861  0.78210  0.48949  1.0000
  H   H172      1.0  0.35059  0.80207  0.16238  1.0000
  H   H173      1.0  0.29635  0.87565  0.44993  1.0000
  C   C176      1.0  0.26321  0.87386  0.49287  1.0000
  C   C177      1.0  0.34105  0.77159  0.18265  1.0000
  C   C178      1.0  0.26128  0.81754  0.49869  1.0000
  Fe  Fe28      1.0  0.31783  0.86915  0.50442  1.0000
  S   S59       1.0  0.28703  0.83935  0.48768  1.0000
  N   N15       1.0  0.27804  0.88639  0.47453  1.0000
  H   H174      1.0  0.25668  0.79822  0.46406  1.0000
  S   S60       1.0  0.34812  0.95290  0.48889  1.0000
  H   H175      1.0  0.27914  0.88581  0.43359  1.0000
  H   H176      1.0  0.26706  0.85899  0.44820  1.0000
  H   H177      1.0  0.30366  0.91820  0.46471  1.0000
  C   C179      1.0  0.29140  0.90836  0.47887  1.0000
  C   C180      1.0  0.28979  0.91845  0.50184  1.0000
  C   C181      1.0  0.28022  0.87629  0.45031  1.0000
  H   H178      1.0  0.25304  0.85630  0.48979  1.0000
  H   H179      1.0  0.21994  0.76824  0.47664  1.0000
  H   H180      1.0  0.24979  0.87323  0.53079  1.0000
  Fe  Fe29      1.0  0.34873  0.89254  0.54924  1.0000
  S   S61       1.0  0.31975  0.89588  0.53206  1.0000
  H   H181      1.0  0.22305  0.80286  0.54716  1.0000
  C   C182      1.0  0.23043  0.80165  0.52907  1.0000
  H   H182      1.0  0.26022  0.83239  0.53507  1.0000
  C   C183      1.0  0.25160  0.81849  0.52226  1.0000
  S   S62       1.0  0.34553  0.86468  0.52332  1.0000
  H   H183      1.0  0.27357  0.91335  0.53872  1.0000
  C   C184      1.0  0.27462  0.90583  0.52058  1.0000
  C   C185      1.0  0.21871  0.78328  0.51280  1.0000
  C   C186      1.0  0.26129  0.88336  0.51615  1.0000
  Fe  Fe30      1.0  0.34534  0.92052  0.50531  1.0000
  H   H184      1.0  0.30071  0.93581  0.50533  1.0000
  Fe  Fe31      1.0  0.61072  0.13417  0.36212  1.0000
  S   S63       1.0  0.58569  0.14574  0.35117  1.0000
  S   S64       1.0  0.63321  0.15071  0.39597  1.0000
  Fe  Fe32      1.0  0.59235  0.09625  0.32273  1.0000
  S   S65       1.0  0.56640  0.10545  0.30830  1.0000
  S   S66       1.0  0.59386  0.06454  0.31257  1.0000
  Fe  Fe33      1.0  0.59379  0.14044  0.31013  1.0000
  S   S67       1.0  0.60245  0.16950  0.28308  1.0000
  Fe  Fe34      1.0  0.56098  0.10998  0.35026  1.0000
  S   S68       1.0  0.52938  0.08996  0.37218  1.0000
  S   S69       1.0  0.62037  0.13082  0.32149  1.0000
  S   S70       1.0  0.58561  0.09906  0.36434  1.0000
  C   C187      1.0  0.40629  0.18840  0.45818  1.0000
  Fe  Fe35      1.0  0.63287  0.20443  0.13912  1.0000
  S   S71       1.0  0.66713  0.21437  0.12369  1.0000
  S   S72       1.0  0.61477  0.17251  0.16140  1.0000
  Fe  Fe36      1.0  0.63144  0.24499  0.11627  1.0000
  H   H185      1.0  0.54288  0.12560  0.50185  1.0000
  C   C188      1.0  0.53212  0.14101  0.47279  1.0000
  Fe  Fe37      1.0  0.65530  0.22350  0.08719  1.0000
  S   S73       1.0  0.66316  0.21440  0.04762  1.0000
  H   H186      1.0  0.66430  0.14910  0.21159  1.0000
  H   H187      1.0  0.64545  0.08551  0.40681  1.0000
  S   S74       1.0  0.62035  0.21052  0.10134  1.0000
  S   S75       1.0  0.64059  0.23776  0.15520  1.0000
  Fe  Fe38      1.0  0.46150  0.12060  0.46729  1.0000
  S   S76       1.0  0.42624  0.10785  0.48104  1.0000
  S   S77       1.0  0.47299  0.13160  0.42671  1.0000
  H   H188      1.0  0.57818  0.21885  0.12220  1.0000
  C   C189      1.0  0.57644  0.20095  0.19280  1.0000
  C   C190      1.0  0.56730  0.17577  0.12691  1.0000
  H   H189      1.0  0.57939  0.16884  0.12733  1.0000
  H   H190      1.0  0.56798  0.16882  0.17697  1.0000
  H   H191      1.0  0.38771  0.03387  0.47893  1.0000
  C   C191      1.0  0.66065  0.10918  0.43741  1.0000
  C   C192      1.0  0.65219  0.03197  0.46368  1.0000
  C   C193      1.0  0.54460  0.13088  0.48193  1.0000
  C   C194      1.0  0.65023  0.21890  0.02032  1.0000
  N   N16       1.0  0.57231  0.19216  0.14759  1.0000
  H   H192      1.0  0.63851  0.23968  0.03986  1.0000
  H   H193      1.0  0.56866  0.11951  0.47244  1.0000
  H   H194      1.0  0.40523  0.15670  0.46429  1.0000
  H   H195      1.0  0.49597  0.03781  0.36552  1.0000
  H   H196      1.0  0.56619  0.11641  0.40935  1.0000
  C   C195      1.0  0.64814  0.10127  0.41484  1.0000
  C   C196      1.0  0.38627  0.02002  0.49030  1.0000
  S   S78       1.0  0.66567  0.25851  0.09982  1.0000
  H   H197      1.0  0.46215  0.17051  0.44234  1.0000
  H   H198      1.0  0.44961  0.23220  0.43147  1.0000
  C   C197      1.0  0.57754  0.21361  0.14200  1.0000
  H   H199      1.0  0.55182  0.06004  0.29340  1.0000
  C   C198      1.0  0.57170  0.18573  0.17259  1.0000
  C   C199      1.0  0.51450  0.10232  0.38740  1.0000
  C   C200      1.0  0.51500  0.12184  0.37827  1.0000
  C   C201      1.0  0.50196  0.13058  0.39025  1.0000
  C   C202      1.0  0.48878  0.12009  0.41166  1.0000
  C   C203      1.0  0.48864  0.10081  0.42100  1.0000
  C   C204      1.0  0.50128  0.09183  0.40872  1.0000
  H   H200      1.0  0.52497  0.12988  0.36164  1.0000
  H   H201      1.0  0.50208  0.14549  0.38291  1.0000
  H   H202      1.0  0.47838  0.09249  0.43729  1.0000
  H   H203      1.0  0.50072  0.07664  0.41572  1.0000
  C   C205      1.0  0.61096  0.17188  0.19516  1.0000
  C   C206      1.0  0.61800  0.19125  0.20974  1.0000
  C   C207      1.0  0.61478  0.19015  0.23657  1.0000
  C   C208      1.0  0.60509  0.16972  0.24919  1.0000
  C   C209      1.0  0.59800  0.15033  0.23462  1.0000
  C   C210      1.0  0.60066  0.15143  0.20766  1.0000
  H   H204      1.0  0.62592  0.20710  0.20040  1.0000
  H   H205      1.0  0.62022  0.20522  0.24772  1.0000
  H   H206      1.0  0.59032  0.13450  0.24410  1.0000
  H   H207      1.0  0.59500  0.13633  0.19650  1.0000
  H   H208      1.0  0.46362  0.20428  0.42797  1.0000
  C   C211      1.0  0.55809  0.03698  0.37211  1.0000
  S   S79       1.0  0.47570  0.14870  0.49544  1.0000
  C   C212      1.0  0.66420  0.12963  0.44763  1.0000
  C   C213      1.0  0.65537  0.14217  0.43505  1.0000
  C   C214      1.0  0.64312  0.13434  0.41223  1.0000
  C   C215      1.0  0.63951  0.11385  0.40221  1.0000
  C   C216      1.0  0.41473  0.17305  0.45630  1.0000
  C   C217      1.0  0.54980  0.04393  0.29877  1.0000
  H   H209      1.0  0.65820  0.15805  0.44286  1.0000
  H   H210      1.0  0.63034  0.10781  0.38448  1.0000
  C   C218      1.0  0.67014  0.19091  0.19122  1.0000
  C   C219      1.0  0.54204  0.04259  0.36244  1.0000
  H   H211      1.0  0.55034  0.16213  0.12937  1.0000
  H   H212      1.0  0.58687  0.24633  0.15714  1.0000
  H   H213      1.0  0.52445  0.15538  0.43988  1.0000
  C   C220      1.0  0.63966  0.23246  0.02162  1.0000
  H   H214      1.0  0.57622  0.19579  0.21257  1.0000
  C   C221      1.0  0.58247  0.22928  0.16173  1.0000
  N   N17       1.0  0.43520  0.17889  0.44583  1.0000
  C   C222      1.0  0.67428  0.03907  0.45674  1.0000
  H   H215      1.0  0.63957  0.14682  0.22756  1.0000
  C   C223      1.0  0.65117  0.15462  0.21128  1.0000
  H   H216      1.0  0.58601  0.23495  0.20271  1.0000
  C   C224      1.0  0.58197  0.22289  0.18727  1.0000
  C   C225      1.0  0.54912  0.14428  0.43108  1.0000
  C   C226      1.0  0.41888  0.20978  0.44913  1.0000
  C   C227      1.0  0.44742  0.19965  0.43630  1.0000
  H   H217      1.0  0.57921  0.01815  0.32089  1.0000
  H   H218      1.0  0.58821  0.12634  0.43292  1.0000
  S   S80       1.0  0.61095  0.26263  0.10844  1.0000
  H   H219      1.0  0.57531  0.04928  0.37306  1.0000
  C   C228      1.0  0.56795  0.04140  0.30782  1.0000
  H   H220      1.0  0.56834  0.18303  0.10754  1.0000
  H   H221      1.0  0.44013  0.15318  0.46289  1.0000
  H   H222      1.0  0.58606  0.14524  0.41088  1.0000
  C   C229      1.0  0.53439  0.14780  0.44724  1.0000
  S   S81       1.0  0.67238  0.09338  0.45128  1.0000
  C   C230      1.0  0.57613  0.13033  0.42255  1.0000
  H   H223      1.0  0.55052  0.14928  0.41110  1.0000
  H   H224      1.0  0.43626  0.15095  0.42838  1.0000
  C   C231      1.0  0.55916  0.12757  0.46523  1.0000
  Fe  Fe39      1.0  0.67414  0.24828  0.13750  1.0000
  N   N18       1.0  0.56136  0.13440  0.44020  1.0000
  H   H225      1.0  0.67383  0.13581  0.46504  1.0000
  H   H226      1.0  0.39046  0.18395  0.46745  1.0000
  C   C232      1.0  0.52900  0.02554  0.29631  1.0000
  C   C233      1.0  0.68043  0.21397  0.19237  1.0000
  H   H227      1.0  0.66914  0.18280  0.17283  1.0000
  H   H228      1.0  0.41293  0.22211  0.45135  1.0000
  S   S82       1.0  0.46854  0.09758  0.49187  1.0000
  H   H229      1.0  0.54695  0.05932  0.35625  1.0000
  N   N19       1.0  0.66116  0.17875  0.21286  1.0000
  C   C234      1.0  0.44384  0.16263  0.44468  1.0000
  C   C235      1.0  0.43952  0.21545  0.43799  1.0000
  C   C236      1.0  0.66227  0.18902  0.23599  1.0000
  C   C237      1.0  0.67213  0.21207  0.23772  1.0000
  H   H230      1.0  0.67244  0.22011  0.25595  1.0000
  H   H231      1.0  0.64599  0.04402  0.46688  1.0000
  H   H232      1.0  0.64132  0.14859  0.19326  1.0000
  N   N20       1.0  0.52055  0.02698  0.35969  1.0000
  H   H233      1.0  0.65493  0.17941  0.25315  1.0000
  C   C238      1.0  0.50402  0.03323  0.34946  1.0000
  H   H234      1.0  0.51507  0.02768  0.28924  1.0000
  H   H235      1.0  0.51185  0.04772  0.33651  1.0000
  C   C239      1.0  0.68127  0.22459  0.21571  1.0000
  C   C240      1.0  0.56520  0.02023  0.31401  1.0000
  H   H236      1.0  0.52063  0.14350  0.48547  1.0000
  H   H237      1.0  0.49137  0.01957  0.33782  1.0000
  H   H238      1.0  0.68769  0.22360  0.17526  1.0000
  H   H239      1.0  0.68530  0.05657  0.45490  1.0000
  C   C241      1.0  0.68221  0.02358  0.45254  1.0000
  H   H240      1.0  0.47962  0.23193  0.48721  1.0000
  S   S83       1.0  0.45994  0.26124  0.49318  1.0000
  C   C242      1.0  0.45040  0.23308  0.50226  1.0000
  H   H241      1.0  0.46711  0.19237  0.49720  1.0000
  C   C243      1.0  0.45673  0.20015  0.50215  1.0000
  C   C244      1.0  0.46378  0.22264  0.49650  1.0000
  Fe  Fe40      1.0  0.62245  0.19799  0.85885  1.0000
  S   S84       1.0  0.64484  0.20505  0.89364  1.0000
  S   S85       1.0  0.60110  0.16468  0.83999  1.0000
  Fe  Fe41      1.0  0.63177  0.24569  0.85344  1.0000
  S   S86       1.0  0.41826  0.05085  0.52340  1.0000
  H   H242      1.0  0.50162  0.07721  0.53720  1.0000
  Fe  Fe42      1.0  0.66806  0.23468  0.87118  1.0000
  H   H243      1.0  0.62262  0.24736  0.00045  1.0000
  Fe  Fe43      1.0  0.63013  0.22723  0.90716  1.0000
  S   S87       1.0  0.62182  0.23459  0.94745  1.0000
  S   S88       1.0  0.64713  0.22588  0.83563  1.0000
  S   S89       1.0  0.60545  0.21747  0.87459  1.0000
  H   H244      1.0  0.62683  0.15690  0.66931  1.0000
  S   S90       1.0  0.44599  0.11305  0.53933  1.0000
  S   S91       1.0  0.51231  0.13207  0.53999  1.0000
  Fe  Fe44      1.0  0.58789  0.10519  0.63892  1.0000
  S   S92       1.0  0.57750  0.12875  0.65805  1.0000
  S   S93       1.0  0.60427  0.11353  0.59987  1.0000
  Fe  Fe45      1.0  0.56635  0.07057  0.68016  1.0000
  S   S94       1.0  0.55390  0.09111  0.70298  1.0000
  S   S95       1.0  0.56400  0.03732  0.69028  1.0000
  Fe  Fe46      1.0  0.54493  0.09906  0.66388  1.0000
  S   S96       1.0  0.51292  0.09998  0.65398  1.0000
  Fe  Fe47      1.0  0.58756  0.11930  0.69538  1.0000
  S   S97       1.0  0.61101  0.14773  0.72080  1.0000
  S   S98       1.0  0.55446  0.07610  0.64199  1.0000
  S   S99       1.0  0.60083  0.09815  0.67550  1.0000
  C   C245      1.0  0.60916  0.21377  0.75661  1.0000
  C   C246      1.0  0.42294  0.19826  0.52003  1.0000
  C   C247      1.0  0.51258  0.12470  0.57237  1.0000
  C   C248      1.0  0.53157  0.12400  0.58200  1.0000
  C   C249      1.0  0.53190  0.11687  0.60720  1.0000
  C   C250      1.0  0.51336  0.11075  0.62311  1.0000
  C   C251      1.0  0.49454  0.11200  0.61372  1.0000
  C   C252      1.0  0.49408  0.11882  0.58832  1.0000
  H   H245      1.0  0.54594  0.12854  0.56979  1.0000
  H   H246      1.0  0.54640  0.11574  0.61409  1.0000
  H   H247      1.0  0.48018  0.10735  0.62597  1.0000
  H   H248      1.0  0.47945  0.11953  0.58113  1.0000
  C   C253      1.0  0.60464  0.15933  0.80723  1.0000
  C   C254      1.0  0.58842  0.14040  0.79496  1.0000
  C   C255      1.0  0.59020  0.13633  0.76857  1.0000
  C   C256      1.0  0.60838  0.15108  0.75431  1.0000
  C   C257      1.0  0.62480  0.16971  0.76672  1.0000
  C   C258      1.0  0.62290  0.17387  0.79297  1.0000
  H   H249      1.0  0.57430  0.12896  0.80587  1.0000
  H   H250      1.0  0.57747  0.12189  0.75926  1.0000
  H   H251      1.0  0.63898  0.18116  0.75592  1.0000
  H   H252      1.0  0.63568  0.18828  0.80215  1.0000
  C   C259      1.0  0.63251  0.22796  0.97529  1.0000
  C   C260      1.0  0.66037  0.10696  0.61070  1.0000
  C   C261      1.0  0.64273  0.21410  0.97406  1.0000
  C   C262      1.0  0.67271  0.02370  0.58637  1.0000
  H   H253      1.0  0.64358  0.20668  0.95586  1.0000
  H   H254      1.0  0.42722  0.04372  0.57925  1.0000
  H   H255      1.0  0.68416  0.21822  0.95606  1.0000
  N   N21       1.0  0.65720  0.15516  0.66330  1.0000
  C   C263      1.0  0.46233  0.25917  0.56730  1.0000
  C   C264      1.0  0.67023  0.11177  0.58626  1.0000
  H   H256      1.0  0.65924  0.19868  0.99551  1.0000
  H   H257      1.0  0.56509  0.16474  0.76949  1.0000
  C   C265      1.0  0.63078  0.23689  0.99920  1.0000
  H   H258      1.0  0.51861  0.03108  0.69412  1.0000
  H   H259      1.0  0.55873  0.16252  0.81591  1.0000
  C   C266      1.0  0.63961  0.10646  0.61485  1.0000
  C   C267      1.0  0.62883  0.11116  0.59466  1.0000
  C   C268      1.0  0.63856  0.11561  0.57013  1.0000
  C   C269      1.0  0.65914  0.11574  0.56587  1.0000
  H   H260      1.0  0.63225  0.10302  0.63379  1.0000
  H   H261      1.0  0.63027  0.11926  0.55445  1.0000
  H   H262      1.0  0.66890  0.10386  0.62654  1.0000
  C   C270      1.0  0.49348  0.07144  0.55558  1.0000
  C   C271      1.0  0.67779  0.02224  0.52022  1.0000
  H   H263      1.0  0.62313  0.24111  0.78344  1.0000
  H   H264      1.0  0.54826  0.18284  0.81395  1.0000
  H   H265      1.0  0.66663  0.11944  0.54695  1.0000
  C   C272      1.0  0.56334  0.18045  0.81620  1.0000
  C   C273      1.0  0.65147  0.20953  0.99652  1.0000
  Fe  Fe48      1.0  0.47954  0.12452  0.52149  1.0000
  H   H266      1.0  0.62114  0.22209  0.74158  1.0000
  C   C274      1.0  0.54614  0.03445  0.75319  1.0000
  H   H267      1.0  0.57071  0.18655  0.83551  1.0000
  C   C275      1.0  0.50475  0.06770  0.57593  1.0000
  N   N22       1.0  0.68002  0.04602  0.58460  1.0000
  H   H268      1.0  0.68656  0.15310  0.65167  1.0000
  H   H269      1.0  0.65025  0.16504  0.59147  1.0000
  C   C276      1.0  0.63679  0.16194  0.62969  1.0000
  H   H270      1.0  0.40695  0.18883  0.52895  1.0000
  H   H271      1.0  0.59170  0.18370  0.73464  1.0000
  C   C277      1.0  0.65902  0.15045  0.69044  1.0000
  H   H272      1.0  0.68272  0.16004  0.60579  1.0000
  C   C278      1.0  0.66494  0.05574  0.58968  1.0000
  H   H273      1.0  0.52180  0.07060  0.57356  1.0000
  H   H274      1.0  0.62211  0.16320  0.62342  1.0000
  C   C279      1.0  0.65262  0.16300  0.61175  1.0000
  N   N23       1.0  0.46198  0.06271  0.58301  1.0000
  C   C280      1.0  0.47275  0.05860  0.60294  1.0000
  C   C281      1.0  0.63937  0.15802  0.65554  1.0000
  C   C282      1.0  0.49429  0.06106  0.59971  1.0000
  C   C283      1.0  0.43608  0.18766  0.51364  1.0000
  C   C284      1.0  0.47189  0.06865  0.55942  1.0000
  C   C285      1.0  0.43943  0.06014  0.58658  1.0000
  H   H275      1.0  0.46509  0.05418  0.62176  1.0000
  C   C286      1.0  0.67276  0.15603  0.64579  1.0000
  H   H276      1.0  0.50317  0.05885  0.61593  1.0000
  H   H277      1.0  0.67505  0.15039  0.69482  1.0000
  H   H278      1.0  0.59613  0.22163  0.81763  1.0000
  H   H279      1.0  0.43706  0.07297  0.57573  1.0000
  H   H280      1.0  0.46332  0.07183  0.54362  1.0000
  H   H281      1.0  0.43590  0.06194  0.60714  1.0000
  N   N24       1.0  0.57925  0.19194  0.79570  1.0000
  C   C287      1.0  0.59508  0.21321  0.79948  1.0000
  C   C288      1.0  0.57761  0.18161  0.77251  1.0000
  C   C289      1.0  0.61036  0.22438  0.78009  1.0000
  C   C290      1.0  0.59257  0.19231  0.75266  1.0000
  H   H282      1.0  0.67605  0.03706  0.52355  1.0000
  H   H283      1.0  0.64805  0.04320  0.59512  1.0000
  S   S100      1.0  0.65496  0.25727  0.88676  1.0000
  H   H284      1.0  0.65757  0.16308  0.70302  1.0000
  C   C291      1.0  0.39936  0.02380  0.51238  1.0000
  H   H285      1.0  0.53717  0.04019  0.73965  1.0000
  S   S101      1.0  0.42533  0.15864  0.51881  1.0000
  C   C292      1.0  0.67079  0.16013  0.61980  1.0000
  H   H286      1.0  0.67153  0.06802  0.60563  1.0000
  H   H287      1.0  0.41952  0.22851  0.51908  1.0000
  H   H288      1.0  0.64538  0.13408  0.69557  1.0000
  H   H289      1.0  0.54481  0.03989  0.77305  1.0000
  H   H290      1.0  0.56385  0.04270  0.74730  1.0000
  H   H291      1.0  0.66347  0.06440  0.57225  1.0000
  H   H292      1.0  0.48525  0.25728  0.53990  1.0000
  Fe  Fe49      1.0  0.43434  0.08655  0.50830  1.0000
  H   H293      1.0  0.59944  0.26106  0.87383  1.0000
  H   H294      1.0  0.45238  0.24140  0.56813  1.0000
  H   H295      1.0  0.68793  0.25272  0.98483  1.0000
  Fe  Fe50      1.0  0.44110  0.13542  0.51057  1.0000
  C   C293      1.0  0.43003  0.22081  0.51444  1.0000
  H   H296      1.0  0.44182  0.26637  0.59380  1.0000
  Fe  Fe51      1.0  0.61272  0.47975  0.34735  1.0000
  S   S102      1.0  0.58565  0.46966  0.37664  1.0000
  C   C294      1.0  0.43499  0.51698  0.45365  1.0000
  Fe  Fe52      1.0  0.58545  0.44278  0.31015  1.0000
  S   S103      1.0  0.55585  0.42979  0.33659  1.0000
  S   S104      1.0  0.58191  0.42136  0.27480  1.0000
  Fe  Fe53      1.0  0.56339  0.46516  0.34296  1.0000
  S   S105      1.0  0.53451  0.47239  0.35155  1.0000
  Fe  Fe54      1.0  0.57996  0.43509  0.36839  1.0000
  S   S106      1.0  0.57398  0.41254  0.40254  1.0000
  S   S107      1.0  0.59090  0.47801  0.31370  1.0000
  S   S108      1.0  0.60925  0.44550  0.34181  1.0000
  C   C295      1.0  0.50347  0.41369  0.43979  1.0000
  Fe  Fe55      1.0  0.46263  0.33368  0.47007  1.0000
  S   S109      1.0  0.43325  0.30022  0.46731  1.0000
  S   S110      1.0  0.47429  0.35291  0.43325  1.0000
  H   H297      1.0  0.65233  0.38810  0.21285  1.0000
  H   H298      1.0  0.53905  0.43743  0.39212  1.0000
  C   C296      1.0  0.52226  0.41066  0.47782  1.0000
  N   N25       1.0  0.60672  0.43453  0.07132  1.0000
  H   H299      1.0  0.50965  0.42433  0.39098  1.0000
  Fe  Fe56      1.0  0.64119  0.42292  0.14566  1.0000
  S   S111      1.0  0.65526  0.43087  0.10545  1.0000
  S   S112      1.0  0.63645  0.44830  0.17013  1.0000
  Fe  Fe57      1.0  0.64190  0.37871  0.14561  1.0000
  S   S113      1.0  0.65579  0.38247  0.10579  1.0000
  S   S114      1.0  0.63857  0.35110  0.17143  1.0000
  H   H300      1.0  0.36193  0.47912  0.37701  1.0000
  Fe  Fe58      1.0  0.63185  0.39566  0.09592  1.0000
  S   S115      1.0  0.61228  0.38474  0.05872  1.0000
  S   S116      1.0  0.66633  0.41232  0.15894  1.0000
  S   S117      1.0  0.61554  0.38872  0.13517  1.0000
  H   H301      1.0  0.60213  0.41986  0.03364  1.0000
  C   C297      1.0  0.63025  0.29062  0.14941  1.0000
  C   C298      1.0  0.63581  0.31008  0.16362  1.0000
  C   C299      1.0  0.63040  0.32632  0.15426  1.0000
  C   C300      1.0  0.61914  0.32295  0.13087  1.0000
  C   C301      1.0  0.61305  0.30324  0.11702  1.0000
  H   H302      1.0  0.57137  0.39987  0.11536  1.0000
  H   H303      1.0  0.64467  0.31273  0.18164  1.0000
  H   H304      1.0  0.61489  0.33543  0.12357  1.0000
  C   C302      1.0  0.47846  0.48890  0.29704  1.0000
  C   C303      1.0  0.64896  0.40902  0.02864  1.0000
  C   C304      1.0  0.62666  0.39347  0.02920  1.0000
  C   C305      1.0  0.46550  0.48121  0.31924  1.0000
  H   H305      1.0  0.65797  0.41515  0.04646  1.0000
  H   H306      1.0  0.63284  0.47779  0.39591  1.0000
  S   S118      1.0  0.38412  0.30806  0.50495  1.0000
  H   H307      1.0  0.62684  0.38785  0.20229  1.0000
  C   C306      1.0  0.37563  0.47758  0.38585  1.0000
  C   C307      1.0  0.51870  0.50278  0.35018  1.0000
  C   C308      1.0  0.52405  0.43568  0.40273  1.0000
  C   C309      1.0  0.41086  0.47319  0.40813  1.0000
  C   C310      1.0  0.38943  0.46155  0.41824  1.0000
  C   C311      1.0  0.37172  0.46366  0.40711  1.0000
  H   H308      1.0  0.66300  0.33874  0.10757  1.0000
  H   H309      1.0  0.42445  0.47133  0.41676  1.0000
  C   C312      1.0  0.53429  0.49659  0.33999  1.0000
  C   C313      1.0  0.49243  0.47978  0.28964  1.0000
  H   H310      1.0  0.61746  0.40799  0.29649  1.0000
  C   C314      1.0  0.65469  0.44076  0.25238  1.0000
  H   H311      1.0  0.61412  0.37972  0.26419  1.0000
  H   H312      1.0  0.40007  0.35552  0.49029  1.0000
  C   C315      1.0  0.59630  0.42963  0.24525  1.0000
  C   C316      1.0  0.59362  0.41333  0.22683  1.0000
  C   C317      1.0  0.60572  0.41886  0.20369  1.0000
  C   C318      1.0  0.62048  0.44083  0.19865  1.0000
  C   C319      1.0  0.62274  0.45724  0.21672  1.0000
  C   C320      1.0  0.61082  0.45166  0.24005  1.0000
  H   H313      1.0  0.58228  0.39627  0.23066  1.0000
  H   H314      1.0  0.60353  0.40615  0.18972  1.0000
  H   H315      1.0  0.63401  0.47430  0.21285  1.0000
  H   H316      1.0  0.61293  0.46436  0.25403  1.0000
  H   H317      1.0  0.45520  0.48882  0.32543  1.0000
  C   C321      1.0  0.54653  0.39301  0.40929  1.0000
  C   C322      1.0  0.54160  0.38177  0.43285  1.0000
  C   C323      1.0  0.51945  0.36837  0.44005  1.0000
  C   C324      1.0  0.50222  0.36616  0.42362  1.0000
  C   C325      1.0  0.50724  0.37652  0.39960  1.0000
  C   C326      1.0  0.52929  0.38982  0.39243  1.0000
  H   H318      1.0  0.55490  0.38404  0.44589  1.0000
  H   H319      1.0  0.51570  0.36039  0.45859  1.0000
  H   H320      1.0  0.49397  0.37466  0.38671  1.0000
  H   H321      1.0  0.53285  0.39793  0.37406  1.0000
  H   H322      1.0  0.47842  0.50248  0.28624  1.0000
  C   C327      1.0  0.58441  0.41484  0.10742  1.0000
  C   C328      1.0  0.64704  0.49267  0.40216  1.0000
  Fe  Fe59      1.0  0.67813  0.41709  0.11818  1.0000
  C   C329      1.0  0.61347  0.45189  0.11304  1.0000
  H   H323      1.0  0.66532  0.45801  0.24834  1.0000
  H   H324      1.0  0.50827  0.49367  0.36603  1.0000
  H   H325      1.0  0.60408  0.30056  0.09908  1.0000
  C   C330      1.0  0.61850  0.45238  0.08684  1.0000
  N   N26       1.0  0.52340  0.42699  0.42862  1.0000
  H   H326      1.0  0.35727  0.49229  0.44453  1.0000
  C   C331      1.0  0.65565  0.49398  0.42702  1.0000
  H   H327      1.0  0.43738  0.45804  0.35564  1.0000
  H   H328      1.0  0.66139  0.42935  0.21627  1.0000
  H   H329      1.0  0.59271  0.43224  0.14384  1.0000
  H   H330      1.0  0.59791  0.37372  0.00615  1.0000
  H   H331      1.0  0.63006  0.43831  0.04204  1.0000
  Fe  Fe60      1.0  0.45065  0.28994  0.49752  1.0000
  H   H332      1.0  0.48175  0.44368  0.33850  1.0000
  C   C332      1.0  0.54275  0.43266  0.44172  1.0000
  C   C333      1.0  0.50260  0.40525  0.46447  1.0000
  H   H333      1.0  0.40014  0.50056  0.35990  1.0000
  C   C334      1.0  0.41486  0.48746  0.38727  1.0000
  C   C335      1.0  0.58978  0.41594  0.08126  1.0000
  H   H334      1.0  0.61620  0.51329  0.42103  1.0000
  C   C336      1.0  0.61872  0.28712  0.12617  1.0000
  H   H335      1.0  0.52423  0.45209  0.40389  1.0000
  H   H336      1.0  0.52183  0.40365  0.49664  1.0000
  H   H337      1.0  0.42006  0.49622  0.48656  1.0000
  C   C337      1.0  0.59636  0.43296  0.12337  1.0000
  N   N27       1.0  0.46639  0.46483  0.33357  1.0000
  H   H338      1.0  0.55793  0.42826  0.47623  1.0000
  C   C338      1.0  0.49317  0.46304  0.30433  1.0000
  S   S119      1.0  0.68326  0.51453  0.46732  1.0000
  C   C339      1.0  0.54249  0.42450  0.46643  1.0000
  H   H339      1.0  0.45087  0.44145  0.36364  1.0000
  C   C340      1.0  0.45384  0.45822  0.35770  1.0000
  C   C341      1.0  0.62597  0.39676  0.26097  1.0000
  H   H340      1.0  0.38658  0.45069  0.43437  1.0000
  H   H341      1.0  0.48680  0.39379  0.47262  1.0000
  C   C342      1.0  0.39722  0.48972  0.37614  1.0000
  H   H342      1.0  0.63216  0.46698  0.07908  1.0000
  C   C343      1.0  0.64235  0.43477  0.27509  1.0000
  C   C344      1.0  0.62789  0.41264  0.27945  1.0000
  C   C345      1.0  0.63585  0.38614  0.21928  1.0000
  H   H343      1.0  0.58066  0.40159  0.06911  1.0000
  C   C346      1.0  0.41738  0.50415  0.46978  1.0000
  S   S120      1.0  0.44220  0.50208  0.37593  1.0000
  C   C347      1.0  0.65238  0.42446  0.23431  1.0000
  N   N28       1.0  0.63832  0.40276  0.23887  1.0000
  H   H344      1.0  0.55857  0.44276  0.43259  1.0000
  H   H345      1.0  0.62315  0.46587  0.12549  1.0000
  H   H346      1.0  0.64801  0.48004  0.43979  1.0000
  H   H347      1.0  0.48813  0.40869  0.42920  1.0000
  C   C348      1.0  0.48011  0.45585  0.32650  1.0000
  H   H348      1.0  0.50471  0.45651  0.29943  1.0000
  C   C349      1.0  0.61521  0.38565  0.00587  1.0000
  C   C350      1.0  0.61263  0.43553  0.04400  1.0000
  H   H349      1.0  0.61069  0.44909  0.03438  1.0000
  H   H350      1.0  0.46307  0.47026  0.37318  1.0000
  C   C351      1.0  0.39610  0.50145  0.46412  1.0000
  S   S121      1.0  0.36611  0.43255  0.48381  1.0000
  H   H351      1.0  0.63469  0.27828  0.15659  1.0000
  H   H352      1.0  0.38252  0.49137  0.47669  1.0000
  H   H353      1.0  0.62655  0.36903  0.22654  1.0000
  C   C352      1.0  0.67596  0.33817  0.11932  1.0000
  H   H354      1.0  0.60802  0.29725  0.00544  1.0000
  S   S122      1.0  0.44755  0.34656  0.50030  1.0000
  H   H355      1.0  0.50327  0.48626  0.27313  1.0000
  H   H356      1.0  0.68420  0.36924  0.13842  1.0000
  H   H357      1.0  0.64327  0.44729  0.28882  1.0000
  Fe  Fe61      1.0  0.41943  0.31268  0.49972  1.0000
  S   S123      1.0  0.64515  0.50989  0.35504  1.0000
  C   C353      1.0  0.38315  0.34888  0.49704  1.0000
  H   H358      1.0  0.55975  0.50375  0.31143  1.0000
  H   H359      1.0  0.38070  0.37955  0.49224  1.0000
  H   H360      1.0  0.67084  0.30640  0.10487  1.0000
  C   C354      1.0  0.54775  0.50850  0.31951  1.0000
  C   C355      1.0  0.65681  0.51057  0.38550  1.0000
  C   C356      1.0  0.68041  0.32004  0.11777  1.0000
  C   C357      1.0  0.68781  0.35527  0.13660  1.0000
  C   C358      1.0  0.37215  0.36249  0.49809  1.0000
  S   S124      1.0  0.48102  0.32324  0.49841  1.0000
  C   C359      1.0  0.67385  0.51328  0.43551  1.0000
  H   H361      1.0  0.36729  0.50886  0.41663  1.0000
  C   C360      1.0  0.37009  0.50854  0.43766  1.0000
  N   N29       1.0  0.39244  0.51115  0.44291  1.0000
  C   C361      1.0  0.37204  0.32662  0.50458  1.0000
  Fe  Fe62      1.0  0.46290  0.33277  0.52848  1.0000
  S   S125      1.0  0.43393  0.29907  0.52982  1.0000
  S   S126      1.0  0.47297  0.34981  0.56707  1.0000
  Fe  Fe63      1.0  0.57855  0.43122  0.63353  1.0000
  S   S127      1.0  0.56976  0.45912  0.63516  1.0000
  S   S128      1.0  0.57315  0.41242  0.59597  1.0000
  Fe  Fe64      1.0  0.59800  0.44082  0.68800  1.0000
  S   S129      1.0  0.59119  0.47013  0.69374  1.0000
  S   S130      1.0  0.61321  0.42585  0.71589  1.0000
  Fe  Fe65      1.0  0.55846  0.44847  0.67534  1.0000
  S   S131      1.0  0.52578  0.44633  0.68826  1.0000
  Fe  Fe66      1.0  0.60323  0.47867  0.65286  1.0000
  H   H362      1.0  0.36086  0.49912  0.57152  1.0000
  S   S132      1.0  0.56415  0.41838  0.67236  1.0000
  S   S133      1.0  0.61309  0.45143  0.64855  1.0000
  Fe  Fe67      1.0  0.62730  0.41049  0.86189  1.0000
  S   S134      1.0  0.66229  0.42566  0.87693  1.0000
  S   S135      1.0  0.61528  0.43109  0.83815  1.0000
  Fe  Fe68      1.0  0.61721  0.36549  0.88383  1.0000
  S   S136      1.0  0.65126  0.37689  0.89989  1.0000
  S   S137      1.0  0.59443  0.32972  0.89084  1.0000
  Fe  Fe69      1.0  0.64764  0.40654  0.91329  1.0000
  S   S138      1.0  0.66193  0.42090  0.95239  1.0000
  Fe  Fe70      1.0  0.66265  0.39465  0.86263  1.0000
  S   S139      1.0  0.61247  0.39399  0.89971  1.0000
  S   S140      1.0  0.62882  0.38076  0.84515  1.0000
  C   C362      1.0  0.60225  0.31246  0.87263  1.0000
  C   C363      1.0  0.59630  0.29091  0.88082  1.0000
  N   N30       1.0  0.40985  0.35551  0.56302  1.0000
  N   N31       1.0  0.67359  0.42752  0.78250  1.0000
  N   N32       1.0  0.37635  0.50333  0.63404  1.0000
  C   C364      1.0  0.61524  0.32039  0.85056  1.0000
  H   H363      1.0  0.58613  0.28465  0.89781  1.0000
  C   C365      1.0  0.67185  0.45420  0.81190  1.0000
  H   H364      1.0  0.44499  0.37401  0.56558  1.0000
  H   H365      1.0  0.61969  0.33681  0.84391  1.0000
  C   C366      1.0  0.64810  0.40946  0.98159  1.0000
  C   C367      1.0  0.62616  0.31933  0.93675  1.0000
  C   C368      1.0  0.62592  0.39349  0.98211  1.0000
  C   C369      1.0  0.67605  0.40737  0.77834  1.0000
  H   H366      1.0  0.61689  0.38762  0.96426  1.0000
  C   C370      1.0  0.67283  0.50135  0.53619  1.0000
  C   C371      1.0  0.67497  0.43551  0.80703  1.0000
  H   H367      1.0  0.48994  0.49483  0.68424  1.0000
  C   C372      1.0  0.61227  0.42699  0.74979  1.0000
  C   C373      1.0  0.61646  0.41178  0.76399  1.0000
  C   C374      1.0  0.61747  0.41292  0.79100  1.0000
  C   C375      1.0  0.61433  0.42932  0.80415  1.0000
  C   C376      1.0  0.60994  0.44445  0.78997  1.0000
  C   C377      1.0  0.60882  0.44326  0.76287  1.0000
  H   H368      1.0  0.61914  0.39914  0.75399  1.0000
  H   H369      1.0  0.62068  0.40108  0.80158  1.0000
  H   H370      1.0  0.60756  0.45725  0.79999  1.0000
  H   H371      1.0  0.60577  0.45518  0.75209  1.0000
  C   C378      1.0  0.50089  0.36770  0.57413  1.0000
  C   C379      1.0  0.50606  0.37878  0.59792  1.0000
  C   C380      1.0  0.52816  0.39271  0.60460  1.0000
  C   C381      1.0  0.54527  0.39548  0.58761  1.0000
  C   C382      1.0  0.54012  0.38449  0.56369  1.0000
  C   C383      1.0  0.51795  0.37070  0.55688  1.0000
  H   H372      1.0  0.49295  0.37654  0.61134  1.0000
  H   H373      1.0  0.53196  0.40115  0.62303  1.0000
  H   H374      1.0  0.55333  0.38662  0.55049  1.0000
  H   H375      1.0  0.51411  0.36230  0.53844  1.0000
  H   H376      1.0  0.66271  0.33868  0.86080  1.0000
  H   H377      1.0  0.55902  0.48949  0.70465  1.0000
  C   C384      1.0  0.66657  0.45684  0.76639  1.0000
  H   H378      1.0  0.50593  0.29414  0.51148  1.0000
  H   H379      1.0  0.61808  0.27587  0.97350  1.0000
  C   C385      1.0  0.50569  0.47341  0.68628  1.0000
  C   C386      1.0  0.52521  0.47184  0.69178  1.0000
  C   C387      1.0  0.66960  0.43800  0.76224  1.0000
  H   H380      1.0  0.49112  0.45893  0.67988  1.0000
  Fe  Fe71      1.0  0.35852  0.45198  0.51406  1.0000
  C   C388      1.0  0.39365  0.46643  0.60434  1.0000
  C   C389      1.0  0.38619  0.46480  0.57878  1.0000
  C   C390      1.0  0.39719  0.48231  0.56183  1.0000
  C   C391      1.0  0.42910  0.39511  0.56245  1.0000
  H   H381      1.0  0.54987  0.39291  0.73989  1.0000
  H   H382      1.0  0.37165  0.45030  0.57240  1.0000
  H   H383      1.0  0.61620  0.45224  0.59147  1.0000
  H   H384      1.0  0.66334  0.39361  0.78965  1.0000
  C   C392      1.0  0.40895  0.39594  0.55979  1.0000
  H   H385      1.0  0.40857  0.41170  0.55834  1.0000
  H   H386      1.0  0.53462  0.48921  0.63550  1.0000
  C   C393      1.0  0.61895  0.29167  0.96812  1.0000
  N   N33       1.0  0.49315  0.29061  0.54936  1.0000
  H   H387      1.0  0.44452  0.41024  0.56321  1.0000
  H   H388      1.0  0.60946  0.33323  0.99289  1.0000
  H   H389      1.0  0.37468  0.34102  0.55884  1.0000
  C   C394      1.0  0.61679  0.28563  0.84519  1.0000
  C   C395      1.0  0.65199  0.49684  0.52658  1.0000
  C   C396      1.0  0.56751  0.51404  0.64482  1.0000
  H   H390      1.0  0.54205  0.45208  0.74334  1.0000
  C   C397      1.0  0.65556  0.48271  0.57544  1.0000
  N   N34       1.0  0.63515  0.47816  0.56576  1.0000
  C   C398      1.0  0.41603  0.50103  0.57026  1.0000
  H   H391      1.0  0.61709  0.48203  0.53427  1.0000
  H   H392      1.0  0.63087  0.32551  0.91738  1.0000
  C   C399      1.0  0.41210  0.48551  0.61295  1.0000
  H   H393      1.0  0.49714  0.32222  0.56198  1.0000
  C   C400      1.0  0.66109  0.51574  0.62831  1.0000
  H   H394      1.0  0.52059  0.31784  0.53183  1.0000
  N   N35       1.0  0.55574  0.40894  0.77660  1.0000
  S   S141      1.0  0.41963  0.48841  0.64569  1.0000
  C   C401      1.0  0.41061  0.33431  0.56366  1.0000
  H   H395      1.0  0.56914  0.39804  0.80759  1.0000
  H   H396      1.0  0.52021  0.51635  0.62830  1.0000
  C   C402      1.0  0.38927  0.37636  0.55870  1.0000
  H   H397      1.0  0.38423  0.49726  0.67213  1.0000
  N   N36       1.0  0.62553  0.29970  0.94387  1.0000
  H   H398      1.0  0.65050  0.50241  0.50750  1.0000
  H   H399      1.0  0.56985  0.38656  0.77673  1.0000
  H   H400      1.0  0.41650  0.33128  0.54481  1.0000
  H   H401      1.0  0.54377  0.37739  0.79365  1.0000
  H   H402      1.0  0.55240  0.45626  0.78981  1.0000
  S   S142      1.0  0.38695  0.48234  0.53074  1.0000
  H   H403      1.0  0.38487  0.45309  0.61759  1.0000
  C   C403      1.0  0.62219  0.30690  0.83663  1.0000
  C   C404      1.0  0.61395  0.32377  0.97915  1.0000
  H   H404      1.0  0.46466  0.30709  0.59068  1.0000
  H   H405      1.0  0.59993  0.45937  0.57025  1.0000
  H   H406      1.0  0.57386  0.50229  0.64855  1.0000
  H   H407      1.0  0.63820  0.29573  0.90721  1.0000
  H   H408      1.0  0.37353  0.37676  0.55597  1.0000
  C   C405      1.0  0.55977  0.39188  0.78928  1.0000
  C   C406      1.0  0.66758  0.46488  0.79142  1.0000
  C   C407      1.0  0.68158  0.32037  0.85631  1.0000
  C   C408      1.0  0.50501  0.49372  0.68872  1.0000
  C   C409      1.0  0.54395  0.49057  0.70021  1.0000
  C   C410      1.0  0.42349  0.50263  0.59572  1.0000
  H   H409      1.0  0.67672  0.42940  0.00467  1.0000
  C   C411      1.0  0.55028  0.40667  0.75103  1.0000
  H   H410      1.0  0.62057  0.34704  0.94834  1.0000
  C   C412      1.0  0.55167  0.44231  0.77881  1.0000
  C   C413      1.0  0.63152  0.28679  0.92549  1.0000
  C   C414      1.0  0.55633  0.42639  0.79056  1.0000
  C   C415      1.0  0.54596  0.44003  0.75278  1.0000
  H   H411      1.0  0.56076  0.42825  0.81082  1.0000
  C   C416      1.0  0.54514  0.42206  0.73884  1.0000
  H   H412      1.0  0.66797  0.43147  0.74281  1.0000
  H   H413      1.0  0.61436  0.47778  0.59656  1.0000
  H   H414      1.0  0.63207  0.31311  0.81941  1.0000
  H   H415      1.0  0.42211  0.33433  0.57890  1.0000
  H   H416      1.0  0.54040  0.42003  0.71871  1.0000
  C   C417      1.0  0.61546  0.46641  0.58176  1.0000
  C   C418      1.0  0.51193  0.29950  0.53148  1.0000
  C   C419      1.0  0.62035  0.33163  0.95424  1.0000
  C   C420      1.0  0.63320  0.48527  0.54177  1.0000
  C   C421      1.0  0.39003  0.35616  0.56033  1.0000
  H   H417      1.0  0.42466  0.51460  0.55721  1.0000
  C   C422      1.0  0.48756  0.30447  0.56348  1.0000
  H   H418      1.0  0.66924  0.30754  0.84434  1.0000
  H   H419      1.0  0.67816  0.42717  0.82301  1.0000
  C   C423      1.0  0.48099  0.26824  0.55137  1.0000
  H   H420      1.0  0.39401  0.32032  0.56719  1.0000
  C   C424      1.0  0.42926  0.37461  0.56389  1.0000
  H   H421      1.0  0.52413  0.29340  0.53651  1.0000
  H   H422      1.0  0.66258  0.46460  0.75039  1.0000
  H   H423      1.0  0.67408  0.40222  0.75778  1.0000
  C   C425      1.0  0.45639  0.27317  0.58158  1.0000
  H   H424      1.0  0.65715  0.47773  0.59480  1.0000
  C   C426      1.0  0.67779  0.33767  0.86574  1.0000
  S   S143      1.0  0.61944  0.51280  0.63579  1.0000
  C   C427      1.0  0.52369  0.51238  0.69737  1.0000
  C   C428      1.0  0.46916  0.29597  0.57983  1.0000
  C   C429      1.0  0.37071  0.49016  0.65759  1.0000
  C   C430      1.0  0.36445  0.49447  0.61206  1.0000
  H   H425      1.0  0.36867  0.47328  0.65328  1.0000
  H   H426      1.0  0.65764  0.50483  0.64457  1.0000
  H   H427      1.0  0.66447  0.47899  0.79503  1.0000
  C   C431      1.0  0.67469  0.49431  0.56079  1.0000
  C   C432      1.0  0.54309  0.51073  0.70330  1.0000
  C   C433      1.0  0.54552  0.50675  0.63737  1.0000
  C   C434      1.0  0.61318  0.30363  0.98618  1.0000
  C   C435      1.0  0.60386  0.27760  0.86731  1.0000
  H   H428      1.0  0.64426  0.28267  0.93394  1.0000
  H   H429      1.0  0.61667  0.27106  0.92084  1.0000
  H   H430      1.0  0.67212  0.45999  0.83150  1.0000
  C   C436      1.0  0.36968  0.50656  0.58922  1.0000
  S   S144      1.0  0.62685  0.26964  0.82824  1.0000
  H   H431      1.0  0.68756  0.51053  0.52471  1.0000
  H   H432      1.0  0.35524  0.48921  0.66611  1.0000
  C   C437      1.0  0.65956  0.41709  0.00493  1.0000
  Fe  Fe72      1.0  0.45365  0.56171  0.30665  1.0000
  H   H433      1.0  0.64303  0.64961  0.48609  1.0000
  S   S145      1.0  0.43014  0.56432  0.27704  1.0000
  Fe  Fe73      1.0  0.48044  0.58314  0.35498  1.0000
  S   S146      1.0  0.48936  0.55571  0.36141  1.0000
  S   S147      1.0  0.49136  0.61297  0.38135  1.0000
  Fe  Fe74      1.0  0.49511  0.55666  0.31901  1.0000
  S   S148      1.0  0.52445  0.55277  0.30368  1.0000
  Fe  Fe75      1.0  0.45407  0.53277  0.35158  1.0000
  H   H434      1.0  0.37826  0.59607  0.03070  1.0000
  S   S149      1.0  0.48920  0.58638  0.31285  1.0000
  S   S150      1.0  0.44432  0.56021  0.34876  1.0000
  Fe  Fe76      1.0  0.59183  0.66900  0.47797  1.0000
  S   S151      1.0  0.62305  0.70018  0.47066  1.0000
  S   S152      1.0  0.57800  0.64151  0.44833  1.0000
  H   H435      1.0  0.43286  0.54121  0.14102  1.0000
  N   N37       1.0  0.41571  0.54955  0.17003  1.0000
  H   H436      1.0  0.40682  0.53176  0.41038  1.0000
  C   C438      1.0  0.40087  0.53634  0.21204  1.0000
  H   H437      1.0  0.53759  0.58883  0.34853  1.0000
  Fe  Fe77      1.0  0.41649  0.62508  0.08858  1.0000
  S   S153      1.0  0.41394  0.59391  0.10667  1.0000
  S   S154      1.0  0.42116  0.63910  0.04821  1.0000
  Fe  Fe78      1.0  0.39919  0.63793  0.13684  1.0000
  S   S155      1.0  0.39516  0.60830  0.15908  1.0000
  S   S156      1.0  0.38480  0.66002  0.15076  1.0000
  Fe  Fe79      1.0  0.42806  0.61469  0.14249  1.0000
  S   S157      1.0  0.45344  0.61005  0.16705  1.0000
  Fe  Fe80      1.0  0.38136  0.58976  0.12253  1.0000
  S   S158      1.0  0.43349  0.64644  0.12301  1.0000
  S   S159      1.0  0.38252  0.61870  0.10164  1.0000
  H   H438      1.0  0.43382  0.54365  0.20004  1.0000
  H   H439      1.0  0.36904  0.62744  0.19217  1.0000
  H   H440      1.0  0.36684  0.65962  0.20722  1.0000
  C   C439      1.0  0.40359  0.68798  0.15349  1.0000
  C   C440      1.0  0.39547  0.70360  0.15331  1.0000
  C   C441      1.0  0.41004  0.72611  0.15541  1.0000
  C   C442      1.0  0.43272  0.73301  0.15852  1.0000
  C   C443      1.0  0.44088  0.71738  0.15899  1.0000
  C   C444      1.0  0.42633  0.69484  0.15616  1.0000
  H   H441      1.0  0.67523  0.60670  0.43293  1.0000
  H   H442      1.0  0.40372  0.73813  0.15509  1.0000
  H   H443      1.0  0.45843  0.72268  0.16153  1.0000
  H   H444      1.0  0.43265  0.68279  0.15668  1.0000
  H   H445      1.0  0.50331  0.52423  0.34693  1.0000
  H   H446      1.0  0.36305  0.54264  0.17449  1.0000
  C   C445      1.0  0.64139  0.53857  0.44434  1.0000
  C   C446      1.0  0.39608  0.54915  0.16284  1.0000
  H   H447      1.0  0.44360  0.61148  0.03845  1.0000
  H   H448      1.0  0.56331  0.59932  0.33093  1.0000
  H   H449      1.0  0.36156  0.66748  0.10848  1.0000
  C   C447      1.0  0.43831  0.57965  0.24813  1.0000
  C   C448      1.0  0.42297  0.58490  0.23552  1.0000
  C   C449      1.0  0.42764  0.59474  0.21105  1.0000
  C   C450      1.0  0.44776  0.59953  0.19888  1.0000
  C   C451      1.0  0.46338  0.59484  0.21179  1.0000
  C   C452      1.0  0.45870  0.58495  0.23631  1.0000
  H   H450      1.0  0.40718  0.58091  0.24452  1.0000
  H   H451      1.0  0.41553  0.59836  0.20158  1.0000
  H   H452      1.0  0.47906  0.59859  0.20263  1.0000
  H   H453      1.0  0.47066  0.58099  0.24578  1.0000
  C   C453      1.0  0.51372  0.61935  0.40268  1.0000
  C   C454      1.0  0.52133  0.63851  0.41804  1.0000
  C   C455      1.0  0.54052  0.64509  0.43324  1.0000
  C   C456      1.0  0.55214  0.63249  0.43304  1.0000
  C   C457      1.0  0.54406  0.61298  0.41841  1.0000
  C   C458      1.0  0.52494  0.60642  0.40332  1.0000
  H   H454      1.0  0.51272  0.64860  0.41760  1.0000
  H   H455      1.0  0.54672  0.66023  0.44436  1.0000
  H   H456      1.0  0.55297  0.60316  0.41824  1.0000
  H   H457      1.0  0.51925  0.59165  0.39174  1.0000
  C   C459      1.0  0.54898  0.60242  0.33602  1.0000
  H   H458      1.0  0.37367  0.70724  0.10613  1.0000
  C   C460      1.0  0.65107  0.56500  0.40115  1.0000
  S   S160      1.0  0.60199  0.74720  0.48529  1.0000
  C   C461      1.0  0.37847  0.54264  0.18026  1.0000
  C   C462      1.0  0.42941  0.63032  0.01983  1.0000
  H   H459      1.0  0.54026  0.60180  0.31770  1.0000
  C   C463      1.0  0.68131  0.59552  0.42396  1.0000
  C   C464      1.0  0.43387  0.55597  0.15142  1.0000
  N   N38       1.0  0.66338  0.57292  0.42310  1.0000
  C   C465      1.0  0.40967  0.52411  0.42727  1.0000
  C   C466      1.0  0.54507  0.52615  0.30883  1.0000
  H   H460      1.0  0.55519  0.53506  0.29266  1.0000
  H   H461      1.0  0.65059  0.61775  0.47669  1.0000
  C   C467      1.0  0.38096  0.53631  0.20505  1.0000
  C   C468      1.0  0.37799  0.59170  0.01049  1.0000
  H   H462      1.0  0.36927  0.73722  0.08422  1.0000
  H   H463      1.0  0.46895  0.74891  0.11724  1.0000
  N   N39       1.0  0.55604  0.62367  0.34927  1.0000
  C   C469      1.0  0.57431  0.63161  0.36487  1.0000
  C   C470      1.0  0.54342  0.63467  0.34742  1.0000
  C   C471      1.0  0.58066  0.65132  0.37867  1.0000
  C   C472      1.0  0.54932  0.65444  0.36091  1.0000
  C   C473      1.0  0.56806  0.66278  0.37663  1.0000
  H   H464      1.0  0.39395  0.55404  0.14363  1.0000
  H   H465      1.0  0.58372  0.62239  0.36732  1.0000
  H   H466      1.0  0.52826  0.62782  0.33620  1.0000
  H   H467      1.0  0.59463  0.65713  0.39184  1.0000
  H   H468      1.0  0.53879  0.66264  0.36009  1.0000
  H   H469      1.0  0.57233  0.67761  0.38804  1.0000
  C   C474      1.0  0.66247  0.63158  0.48773  1.0000
  S   S161      1.0  0.57568  0.68604  0.50067  1.0000
  S   S162      1.0  0.68620  0.60772  0.48914  1.0000
  H   H470      1.0  0.65488  0.57505  0.38401  1.0000
  C   C475      1.0  0.46020  0.74835  0.09957  1.0000
  C   C476      1.0  0.51594  0.52024  0.33942  1.0000
  H   H471      1.0  0.44466  0.53679  0.41932  1.0000
  C   C477      1.0  0.35610  0.72043  0.08337  1.0000
  C   C478      1.0  0.44544  0.72783  0.08934  1.0000
  H   H472      1.0  0.37006  0.74051  0.16308  1.0000
  C   C479      1.0  0.63373  0.54355  0.40022  1.0000
  S   S163      1.0  0.46036  0.53216  0.30918  1.0000
  H   H473      1.0  0.42302  0.71108  0.05821  1.0000
  C   C480      1.0  0.41817  0.54302  0.19416  1.0000
  C   C481      1.0  0.52892  0.53185  0.31853  1.0000
  H   H474      1.0  0.43339  0.56794  0.13728  1.0000
  H   H475      1.0  0.37789  0.69826  0.15148  1.0000
  C   C482      1.0  0.43992  0.61670  0.02023  1.0000
  C   C483      1.0  0.43430  0.72693  0.06647  1.0000
  C   C484      1.0  0.43117  0.52712  0.43230  1.0000
  H   H476      1.0  0.62464  0.53694  0.38243  1.0000
  H   H477      1.0  0.68303  0.54356  0.38084  1.0000
  H   H478      1.0  0.40325  0.53209  0.23152  1.0000
  C   C485      1.0  0.65813  0.64967  0.49301  1.0000
  C   C486      1.0  0.68380  0.53115  0.41878  1.0000
  H   H479      1.0  0.68790  0.60163  0.40446  1.0000
  C   C487      1.0  0.65855  0.56012  0.44464  1.0000
  C   C488      1.0  0.67539  0.52971  0.39373  1.0000
  C   C489      1.0  0.62897  0.53025  0.42193  1.0000
  H   H480      1.0  0.45022  0.56457  0.16123  1.0000
  H   H481      1.0  0.66829  0.56639  0.46203  1.0000
  H   H482      1.0  0.42957  0.74611  0.03629  1.0000
  C   C490      1.0  0.68193  0.63118  0.49665  1.0000
  H   H483      1.0  0.36760  0.53160  0.21893  1.0000
  H   H484      1.0  0.44274  0.71274  0.09912  1.0000
  C   C491      1.0  0.43799  0.74650  0.05418  1.0000
  H   H485      1.0  0.39737  0.57436  0.01625  1.0000
  Fe  Fe81      1.0  0.60787  0.71722  0.49612  1.0000
  H   H486      1.0  0.63831  0.52819  0.46110  1.0000
  H   H487      1.0  0.36764  0.52187  0.44739  1.0000
  H   H488      1.0  0.52615  0.70053  0.48938  1.0000
  H   H489      1.0  0.45153  0.51897  0.45756  1.0000
  S   S164      1.0  0.45093  0.76118  0.16107  1.0000
  H   H490      1.0  0.36798  0.76565  0.23461  1.0000
  C   C492      1.0  0.35843  0.70342  0.09584  1.0000
  C   C493      1.0  0.45278  0.76673  0.06505  1.0000
  H   H491      1.0  0.55806  0.73465  0.50451  1.0000
  H   H492      1.0  0.59020  0.60683  0.55816  1.0000
  S   S165      1.0  0.45219  0.55316  0.64465  1.0000
  C   C494      1.0  0.60732  0.61924  0.55995  1.0000
  Fe  Fe82      1.0  0.49501  0.54065  0.68103  1.0000
  S   S166      1.0  0.50113  0.57515  0.67190  1.0000
  S   S167      1.0  0.52337  0.53803  0.70050  1.0000
  Fe  Fe83      1.0  0.46584  0.56374  0.68466  1.0000
  S   S168      1.0  0.45682  0.58648  0.70884  1.0000
  Fe  Fe84      1.0  0.48710  0.56134  0.63314  1.0000
  S   S169      1.0  0.50188  0.57372  0.59395  1.0000
  S   S170      1.0  0.46080  0.53017  0.69676  1.0000
  H   H493      1.0  0.58028  0.75591  0.54054  1.0000
  Fe  Fe85      1.0  0.59174  0.67962  0.53509  1.0000
  S   S171      1.0  0.62304  0.71133  0.53200  1.0000
  S   S172      1.0  0.57681  0.67098  0.57489  1.0000
  Fe  Fe86      1.0  0.38635  0.59426  0.88407  1.0000
  S   S173      1.0  0.41058  0.62606  0.90191  1.0000
  Fe  Fe87      1.0  0.42192  0.58901  0.85222  1.0000
  S   S174      1.0  0.44916  0.62049  0.86794  1.0000
  S   S175      1.0  0.42833  0.56564  0.82587  1.0000
  Fe  Fe88      1.0  0.43235  0.60943  0.90655  1.0000
  S   S176      1.0  0.44846  0.60773  0.94418  1.0000
  Fe  Fe89      1.0  0.42467  0.63406  0.86210  1.0000
  S   S177      1.0  0.42936  0.66492  0.84179  1.0000
  S   S178      1.0  0.40704  0.57683  0.89126  1.0000
  S   S179      1.0  0.39859  0.60335  0.84371  1.0000
  C   C495      1.0  0.48653  0.57251  0.79809  1.0000
  N   N40       1.0  0.63371  0.65639  0.57062  1.0000
  C   C496      1.0  0.43717  0.68838  0.86137  1.0000
  C   C497      1.0  0.43367  0.70593  0.85244  1.0000
  C   C498      1.0  0.43957  0.72485  0.86768  1.0000
  C   C499      1.0  0.44978  0.72668  0.89153  1.0000
  C   C500      1.0  0.45344  0.70919  0.90045  1.0000
  C   C501      1.0  0.44681  0.68987  0.88555  1.0000
  H   H494      1.0  0.42620  0.70480  0.83375  1.0000
  H   H495      1.0  0.43667  0.73818  0.86063  1.0000
  H   H496      1.0  0.46137  0.71054  0.91889  1.0000
  H   H497      1.0  0.44964  0.67638  0.89249  1.0000
  C   C502      1.0  0.44132  0.61686  0.97313  1.0000
  C   C503      1.0  0.43069  0.63034  0.97283  1.0000
  H   H498      1.0  0.67406  0.55585  0.57073  1.0000
  H   H499      1.0  0.42721  0.63582  0.95473  1.0000
  C   C504      1.0  0.55122  0.72034  0.51697  1.0000
  S   S180      1.0  0.45886  0.75117  0.90966  1.0000
  H   H500      1.0  0.40723  0.56613  0.94830  1.0000
  H   H501      1.0  0.59539  0.73987  0.54164  1.0000
  H   H502      1.0  0.52896  0.55435  0.61802  1.0000
  H   H503      1.0  0.37219  0.63728  0.82821  1.0000
  C   C505      1.0  0.53472  0.68299  0.54745  1.0000
  H   H504      1.0  0.43783  0.51733  0.60211  1.0000
  H   H505      1.0  0.49823  0.61594  0.75970  1.0000
  C   C506      1.0  0.67048  0.54459  0.58662  1.0000
  H   H506      1.0  0.56044  0.70285  0.57389  1.0000
  C   C507      1.0  0.57256  0.55150  0.64431  1.0000
  H   H507      1.0  0.41542  0.56534  0.98052  1.0000
  Fe  Fe90      1.0  0.44961  0.52026  0.65579  1.0000
  H   H508      1.0  0.39147  0.65875  0.91319  1.0000
  C   C508      1.0  0.44630  0.57940  0.74046  1.0000
  C   C509      1.0  0.44298  0.59491  0.75559  1.0000
  C   C510      1.0  0.43644  0.59052  0.78154  1.0000
  C   C511      1.0  0.43331  0.57060  0.79256  1.0000
  C   C512      1.0  0.43592  0.55483  0.77720  1.0000
  C   C513      1.0  0.44237  0.55919  0.75127  1.0000
  H   H509      1.0  0.44584  0.61054  0.74733  1.0000
  H   H510      1.0  0.43435  0.60274  0.79317  1.0000
  H   H511      1.0  0.43339  0.53934  0.78557  1.0000
  H   H512      1.0  0.44470  0.54705  0.73986  1.0000
  C   C514      1.0  0.52282  0.60079  0.58923  1.0000
  C   C515      1.0  0.53189  0.60702  0.56452  1.0000
  C   C516      1.0  0.54850  0.62851  0.55993  1.0000
  C   C517      1.0  0.55609  0.64390  0.58006  1.0000
  C   C518      1.0  0.54716  0.63767  0.60481  1.0000
  C   C519      1.0  0.53057  0.61614  0.60942  1.0000
  H   H513      1.0  0.52591  0.59521  0.54882  1.0000
  H   H514      1.0  0.55526  0.63317  0.54076  1.0000
  H   H515      1.0  0.55300  0.64953  0.62047  1.0000
  H   H516      1.0  0.52363  0.61150  0.62850  1.0000
  C   C520      1.0  0.37673  0.68461  0.85515  1.0000
  H   H517      1.0  0.63757  0.54131  0.59263  1.0000
  C   C521      1.0  0.49627  0.59997  0.76594  1.0000
  H   H518      1.0  0.35956  0.59898  0.95225  1.0000
  H   H519      1.0  0.65094  0.69123  0.56681  1.0000
  C   C522      1.0  0.54226  0.56019  0.63285  1.0000
  S   S181      1.0  0.40403  0.75294  0.91132  1.0000
  C   C523      1.0  0.36782  0.59367  0.96649  1.0000
  C   C524      1.0  0.48677  0.60782  0.80917  1.0000
  H   H520      1.0  0.48044  0.61843  0.79962  1.0000
  N   N41       1.0  0.48961  0.59295  0.79052  1.0000
  C   C525      1.0  0.39885  0.53695  0.61169  1.0000
  H   H521      1.0  0.45455  0.59998  0.99730  1.0000
  C   C526      1.0  0.68672  0.53890  0.59542  1.0000
  H   H522      1.0  0.47436  0.59840  0.82416  1.0000
  C   C527      1.0  0.38709  0.52787  0.58905  1.0000
  C   C528      1.0  0.40076  0.56181  0.96825  1.0000
  H   H523      1.0  0.52898  0.66830  0.55926  1.0000
  H   H524      1.0  0.59877  0.64377  0.57538  1.0000
  H   H525      1.0  0.41704  0.64791  0.99562  1.0000
  C   C529      1.0  0.48991  0.55841  0.78074  1.0000
  C   C530      1.0  0.38890  0.57952  0.00217  1.0000
  C   C531      1.0  0.63873  0.67862  0.57982  1.0000
  H   H526      1.0  0.38908  0.54397  0.96895  1.0000
  H   H527      1.0  0.58312  0.56891  0.64765  1.0000
  Fe  Fe91      1.0  0.39798  0.76386  0.87307  1.0000
  C   C532      1.0  0.65071  0.65182  0.56361  1.0000
  H   H528      1.0  0.65995  0.62755  0.54804  1.0000
  N   N42       1.0  0.37615  0.66428  0.85284  1.0000
  C   C533      1.0  0.53319  0.70106  0.50826  1.0000
  C   C534      1.0  0.61226  0.64027  0.56954  1.0000
  S   S182      1.0  0.66817  0.69068  0.51503  1.0000
  C   C535      1.0  0.49663  0.56541  0.75561  1.0000
  H   H529      1.0  0.37914  0.57755  0.93862  1.0000
  H   H530      1.0  0.48080  0.56678  0.81744  1.0000
  S   S183      1.0  0.48340  0.52748  0.64142  1.0000
  H   H531      1.0  0.66772  0.66465  0.56433  1.0000
  C   C536      1.0  0.37895  0.58153  0.95885  1.0000
  C   C537      1.0  0.58116  0.53651  0.64834  1.0000
  H   H532      1.0  0.37294  0.69216  0.83880  1.0000
  H   H533      1.0  0.55526  0.57638  0.62621  1.0000
  H   H534      1.0  0.50429  0.59166  0.72841  1.0000
  H   H535      1.0  0.41264  0.55340  0.61170  1.0000
  H   H536      1.0  0.49907  0.55457  0.74183  1.0000
  C   C538      1.0  0.58028  0.74081  0.54863  1.0000
  C   C539      1.0  0.64984  0.53635  0.59907  1.0000
  S   S184      1.0  0.60486  0.65966  0.51309  1.0000
  H   H537      1.0  0.58114  0.74261  0.56991  1.0000
  H   H538      1.0  0.62104  0.59856  0.54416  1.0000
  H   H539      1.0  0.38297  0.66358  0.81314  1.0000
  C   C540      1.0  0.38708  0.66605  0.89710  1.0000
  H   H540      1.0  0.38016  0.63857  0.87178  1.0000
  C   C541      1.0  0.55262  0.70259  0.55561  1.0000
  H   H541      1.0  0.50278  0.61839  0.81873  1.0000
  N   N43       1.0  0.38956  0.57489  0.97658  1.0000
  C   C542      1.0  0.64509  0.52191  0.61990  1.0000
  C   C543      1.0  0.39315  0.52440  0.63419  1.0000
  C   C544      1.0  0.52495  0.68226  0.52362  1.0000
  N   N44       1.0  0.56058  0.72094  0.54046  1.0000
  H   H542      1.0  0.53535  0.56266  0.65133  1.0000
  H   H543      1.0  0.55758  0.52515  0.71000  1.0000
  C   C545      1.0  0.37092  0.65303  0.82779  1.0000
  S   S185      1.0  0.37235  0.73956  0.84667  1.0000
  N   N45       1.0  0.55108  0.54427  0.63648  1.0000
  H   H544      1.0  0.64568  0.68122  0.59957  1.0000
  C   C546      1.0  0.49979  0.58630  0.74812  1.0000
  C   C547      1.0  0.62455  0.61461  0.55214  1.0000
  H   H545      1.0  0.48697  0.54204  0.78661  1.0000
  C   C548      1.0  0.53748  0.52219  0.63341  1.0000
  H   H546      1.0  0.59822  0.54214  0.65441  1.0000
  C   C549      1.0  0.38075  0.65474  0.87357  1.0000
  H   H547      1.0  0.39177  0.53712  0.57126  1.0000
  H   H548      1.0  0.40261  0.53142  0.65161  1.0000
  H   H549      1.0  0.51140  0.66700  0.51681  1.0000
  H   H550      1.0  0.62375  0.68140  0.58002  1.0000
  C   C550      1.0  0.67338  0.66785  0.50701  1.0000
  C   C551      1.0  0.64641  0.63088  0.55431  1.0000
  C   C552      1.0  0.38278  0.69626  0.87845  1.0000
  H   H551      1.0  0.38094  0.76261  0.79570  1.0000
  H   H552      1.0  0.36444  0.73987  0.94685  1.0000
  C   C553      1.0  0.38833  0.68705  0.89941  1.0000
  H   H553      1.0  0.39389  0.69632  0.91727  1.0000
  H   H554      1.0  0.38365  0.71253  0.87992  1.0000
  C   C554      1.0  0.68198  0.52451  0.61634  1.0000
  H   H555      1.0  0.48063  0.75682  0.84482  1.0000
  C   C555      1.0  0.36747  0.59887  0.99248  1.0000
  H   H556      1.0  0.49527  0.75815  0.87374  1.0000
  H   H557      1.0  0.35918  0.60854  0.99865  1.0000
  C   C556      1.0  0.44611  0.61023  0.99692  1.0000
  C   C557      1.0  0.42503  0.63725  0.99607  1.0000
  Fe  Fe92      1.0  0.63524  0.69142  0.50718  1.0000
  C   C558      1.0  0.38845  0.89070  0.43238  1.0000
  S   S186      1.0  0.40723  0.81632  0.12230  1.0000
  C   C559      1.0  0.40582  0.89534  0.44964  1.0000
  C   C560      1.0  0.41388  0.89808  0.39630  1.0000
  C   C561      1.0  0.39245  0.89191  0.40575  1.0000
  H   H558      1.0  0.37899  0.88842  0.39244  1.0000
  S   S187      1.0  0.40157  0.89482  0.48309  1.0000
  S   S188      1.0  0.40740  0.78529  0.17084  1.0000
  N   N46       1.0  0.40543  0.95067  0.44675  1.0000
  S   S189      1.0  0.41889  0.90210  0.36307  1.0000
  C   C562      1.0  0.38617  0.94653  0.43420  1.0000
  H   H559      1.0  0.37191  0.88603  0.43951  1.0000
  H   H560      1.0  0.39762  0.82630  0.23445  1.0000
  C   C563      1.0  0.37080  0.99829  0.48331  1.0000
  C   C564      1.0  0.39471  0.80887  0.23275  1.0000
  H   H561      1.0  0.40270  0.79450  0.05758  1.0000
  C   C565      1.0  0.41092  0.79756  0.03908  1.0000
  C   C566      1.0  0.38428  0.94261  0.40761  1.0000
  C   C567      1.0  0.42717  0.90108  0.44019  1.0000
  C   C568      1.0  0.36837  0.98000  0.49804  1.0000
  Fe  Fe93      1.0  0.42595  0.82091  0.15951  1.0000
  H   H562      1.0  0.38126  0.82374  0.19232  1.0000
  C   C569      1.0  0.42316  0.95123  0.43344  1.0000
  C   C570      1.0  0.40232  0.94319  0.39387  1.0000
  H   H563      1.0  0.40095  0.93948  0.37338  1.0000
  C   C571      1.0  0.37125  0.80625  0.19568  1.0000
  N   N47       1.0  0.37584  0.79611  0.21584  1.0000
  C   C572      1.0  0.42196  0.94774  0.40679  1.0000
  C   C573      1.0  0.40738  0.95466  0.47460  1.0000
  H   H564      1.0  0.41175  0.94255  0.48412  1.0000
  H   H565      1.0  0.42027  0.97169  0.47884  1.0000
  Fe  Fe94      1.0  0.39091  0.78043  0.13229  1.0000
  H   H566      1.0  0.39161  0.95291  0.48321  1.0000
  H   H567      1.0  0.37208  0.94604  0.44476  1.0000
  H   H568      1.0  0.36887  0.93888  0.39778  1.0000
  H   H569      1.0  0.45569  0.78186  0.05528  1.0000
  H   H570      1.0  0.38054  0.78104  0.01745  1.0000
  C   C574      1.0  0.39840  0.78996  0.01634  1.0000
  H   H571      1.0  0.39192  0.80201  0.25251  1.0000
  Fe  Fe95      1.0  0.36872  0.89161  0.49749  1.0000
  H   H572      1.0  0.40996  0.80885  0.22471  1.0000
  C   C575      1.0  0.36380  0.77385  0.21929  1.0000
  H   H573      1.0  0.36051  0.99570  0.46649  1.0000
  S   S190      1.0  0.41570  0.77289  0.11139  1.0000
  C   C576      1.0  0.43398  0.80971  0.03774  1.0000
  N   N48       1.0  0.52161  0.87517  0.44776  1.0000
  H   H574      1.0  0.55047  0.94230  0.44560  1.0000
  Fe  Fe96      1.0  0.43348  0.80915  0.10425  1.0000
  Fe  Fe97      1.0  0.43398  0.78126  0.14885  1.0000
  H   H575      1.0  0.43820  0.95390  0.44350  1.0000
  H   H576      1.0  0.43578  0.94751  0.39633  1.0000
  S   S191      1.0  0.42750  0.84775  0.18704  1.0000
  H   H577      1.0  0.56425  0.01054  0.38634  1.0000
  C   C577      1.0  0.47926  0.78875  0.09849  1.0000
  C   C578      1.0  0.43123  0.90254  0.41356  1.0000
  C   C579      1.0  0.60294  0.80795  0.49125  1.0000
  H   H578      1.0  0.47482  0.80209  0.09324  1.0000
  H   H579      1.0  0.67435  0.98925  0.45284  1.0000
  H   H580      1.0  0.46227  0.82309  0.01248  1.0000
  H   H581      1.0  0.42703  0.87316  0.23089  1.0000
  H   H582      1.0  0.59506  0.81649  0.48138  1.0000
  S   S192      1.0  0.59010  0.91507  0.50005  1.0000
  H   H583      1.0  0.57639  0.92709  0.45606  1.0000
  C   C580      1.0  0.44445  0.81367  0.01364  1.0000
  H   H584      1.0  0.58705  0.77838  0.46791  1.0000
  C   C581      1.0  0.59844  0.78625  0.48361  1.0000
  C   C582      1.0  0.49572  0.87883  0.41902  1.0000
  C   C583      1.0  0.54418  0.00187  0.31227  1.0000
  H   H585      1.0  0.51276  0.95135  0.26967  1.0000
  H   H586      1.0  0.48664  0.85108  0.24485  1.0000
  C   C584      1.0  0.47185  0.93234  0.22493  1.0000
  C   C585      1.0  0.46036  0.84869  0.21955  1.0000
  C   C586      1.0  0.60873  0.77479  0.49578  1.0000
  H   H587      1.0  0.49183  0.86307  0.38190  1.0000
  H   H588      1.0  0.62128  0.96382  0.44884  1.0000
  C   C587      1.0  0.66791  0.00112  0.45564  1.0000
  H   H589      1.0  0.47933  0.78823  0.11989  1.0000
  H   H590      1.0  0.54980  0.88112  0.47069  1.0000
  S   S193      1.0  0.52259  0.93677  0.40245  1.0000
  H   H591      1.0  0.56417  0.89485  0.38231  1.0000
  C   C588      1.0  0.57166  0.90942  0.42028  1.0000
  H   H592      1.0  0.53773  0.85651  0.43375  1.0000
  C   C589      1.0  0.49440  0.91320  0.22235  1.0000
  C   C590      1.0  0.52601  0.00456  0.30356  1.0000
  H   H593      1.0  0.44994  0.88524  0.27036  1.0000
  H   H594      1.0  0.44781  0.90737  0.40639  1.0000
  C   C591      1.0  0.52564  0.92200  0.25173  1.0000
  C   C592      1.0  0.56808  0.92323  0.43777  1.0000
  C   C593      1.0  0.52983  0.99950  0.37704  1.0000
  Fe  Fe98      1.0  0.45415  0.91296  0.35035  1.0000
  H   H595      1.0  0.54117  0.93384  0.24230  1.0000
  N   N49       1.0  0.50690  0.92537  0.24268  1.0000
  H   H596      1.0  0.48145  0.95746  0.25455  1.0000
  S   S194      1.0  0.48804  0.87935  0.28704  1.0000
  S   S195      1.0  0.45397  0.81723  0.14043  1.0000
  H   H597      1.0  0.52334  0.86602  0.48636  1.0000
  S   S196      1.0  0.57983  0.86316  0.49230  1.0000
  C   C594      1.0  0.47667  0.91645  0.21322  1.0000
  H   H598      1.0  0.49723  0.99337  0.36475  1.0000
  S   S197      1.0  0.45022  0.82019  0.06574  1.0000
  H   H599      1.0  0.62123  0.00397  0.47230  1.0000
  H   H600      1.0  0.49615  0.79309  0.09122  1.0000
  C   C595      1.0  0.43996  0.86819  0.23392  1.0000
  S   S198      1.0  0.51481  0.93498  0.32575  1.0000
  H   H601      1.0  0.53820  0.91037  0.37157  1.0000
  H   H602      1.0  0.64101  0.96123  0.47020  1.0000
  H   H603      1.0  0.52496  0.98250  0.38241  1.0000
  Fe  Fe99      1.0  0.50197  0.92747  0.36624  1.0000
  H   H604      1.0  0.52745  0.92415  0.27297  1.0000
  S   S199      1.0  0.46291  0.91955  0.30853  1.0000
  C   C596      1.0  0.55348  0.93201  0.43169  1.0000
  C   C597      1.0  0.45298  0.87513  0.25633  1.0000
  H   H605      1.0  0.53470  0.89540  0.48132  1.0000
  C   C598      1.0  0.51426  0.00572  0.36714  1.0000
  H   H606      1.0  0.46334  0.83854  0.20540  1.0000
  H   H607      1.0  0.45793  0.93478  0.21833  1.0000
  H   H608      1.0  0.52295  0.90484  0.24772  1.0000
  C   C599      1.0  0.52560  0.86247  0.42991  1.0000
  C   C600      1.0  0.53282  0.87959  0.47277  1.0000
  C   C601      1.0  0.63156  0.97073  0.46637  1.0000
  N   N50       1.0  0.64637  0.99431  0.46304  1.0000
  C   C602      1.0  0.51486  0.85780  0.40603  1.0000
  H   H609      1.0  0.44065  0.90464  0.45349  1.0000
  C   C603      1.0  0.55191  0.01525  0.37936  1.0000
  H   H610      1.0  0.51859  0.84831  0.39163  1.0000
  C   C604      1.0  0.63835  0.00938  0.46670  1.0000
  H   H611      1.0  0.49768  0.90044  0.21352  1.0000
  C   C605      1.0  0.56129  0.90532  0.39609  1.0000
  Fe  Fe100     1.0  0.59686  0.89492  0.47043  1.0000
  S   S200      1.0  0.63095  0.90297  0.48562  1.0000
  C   C606      1.0  0.47354  0.85582  0.24190  1.0000
  H   H612      1.0  0.46640  0.90626  0.19759  1.0000
  C   C607      1.0  0.47005  0.86924  0.26026  1.0000
  S   S201      1.0  0.49914  0.98237  0.30229  1.0000
  S   S202      1.0  0.58782  0.89600  0.42866  1.0000
  H   H613      1.0  0.54208  0.98574  0.31780  1.0000
  C   C608      1.0  0.44372  0.85513  0.21535  1.0000
  C   C609      1.0  0.54239  0.92715  0.40800  1.0000
  H   H614      1.0  0.48454  0.88588  0.41474  1.0000
  Fe  Fe101     1.0  0.49192  0.95047  0.32212  1.0000
  H   H615      1.0  0.62056  0.96803  0.48333  1.0000
  C   C610      1.0  0.48497  0.94500  0.24528  1.0000
  C   C611      1.0  0.49987  0.86612  0.40057  1.0000
  C   C612      1.0  0.50672  0.88314  0.44271  1.0000
  C   C613      1.0  0.50263  0.94137  0.25386  1.0000
  S   S203      1.0  0.48110  0.94534  0.36327  1.0000
  C   C614      1.0  0.54657  0.91407  0.38998  1.0000
  H   H616      1.0  0.50372  0.89342  0.45671  1.0000
  S   S204      1.0  0.47392  0.89430  0.35657  1.0000
  Fe  Fe102     1.0  0.48472  0.90326  0.31538  1.0000
  N   N51       1.0  0.46339  0.76745  0.08768  1.0000
  C   C615      1.0  0.44854  0.88960  0.55514  1.0000
  H   H617      1.0  0.41033  0.90683  0.53947  1.0000
  H   H618      1.0  0.46898  0.89989  0.58916  1.0000
  Fe  Fe103     1.0  0.50112  0.89784  0.66735  1.0000
  S   S205      1.0  0.49586  0.90589  0.70821  1.0000
  Fe  Fe104     1.0  0.45231  0.87991  0.65351  1.0000
  S   S206      1.0  0.44289  0.88652  0.69285  1.0000
  S   S207      1.0  0.42904  0.86337  0.62045  1.0000
  Fe  Fe105     1.0  0.47394  0.91878  0.68988  1.0000
  S   S208      1.0  0.47368  0.95105  0.70005  1.0000
  Fe  Fe106     1.0  0.46547  0.87294  0.70768  1.0000
  S   S209      1.0  0.45349  0.84418  0.73562  1.0000
  S   S210      1.0  0.48144  0.91317  0.64922  1.0000
  S   S211      1.0  0.47272  0.86397  0.66815  1.0000
  Fe  Fe107     1.0  0.43598  0.80940  0.87803  1.0000
  S   S212      1.0  0.39982  0.79562  0.88819  1.0000
  S   S213      1.0  0.45354  0.84231  0.85774  1.0000
  Fe  Fe108     1.0  0.40950  0.78613  0.92589  1.0000
  S   S214      1.0  0.39259  0.78503  0.96395  1.0000
  S   S215      1.0  0.44595  0.80260  0.91719  1.0000
  H   H619      1.0  0.43197  0.94880  0.57446  1.0000
  C   C616      1.0  0.40886  0.79417  0.99218  1.0000
  C   C617      1.0  0.43196  0.80583  0.99095  1.0000
  H   H620      1.0  0.44019  0.80929  0.97250  1.0000
  C   C618      1.0  0.49802  0.97497  0.69229  1.0000
  C   C619      1.0  0.40808  0.87121  0.61387  1.0000
  C   C620      1.0  0.40408  0.88553  0.63018  1.0000
  C   C621      1.0  0.38780  0.89215  0.62368  1.0000
  C   C622      1.0  0.37592  0.88499  0.60054  1.0000
  C   C623      1.0  0.37994  0.87064  0.58437  1.0000
  C   C624      1.0  0.39576  0.86358  0.59116  1.0000
  H   H621      1.0  0.41349  0.89147  0.64778  1.0000
  H   H622      1.0  0.38473  0.90321  0.63633  1.0000
  H   H623      1.0  0.39873  0.85244  0.57854  1.0000
  C   C625      1.0  0.45615  0.84477  0.76944  1.0000
  C   C626      1.0  0.44878  0.82458  0.78226  1.0000
  C   C627      1.0  0.44792  0.82370  0.80924  1.0000
  C   C628      1.0  0.45484  0.84307  0.82375  1.0000
  C   C629      1.0  0.46302  0.86341  0.81101  1.0000
  C   C630      1.0  0.46359  0.86428  0.78388  1.0000
  H   H624      1.0  0.44312  0.80944  0.77119  1.0000
  H   H625      1.0  0.44167  0.80797  0.81870  1.0000
  H   H626      1.0  0.46857  0.87851  0.82213  1.0000
  H   H627      1.0  0.46931  0.87993  0.77417  1.0000
  C   C631      1.0  0.44758  0.91566  0.58636  1.0000
  N   N52       1.0  0.43102  0.91719  0.57281  1.0000
  H   H628      1.0  0.50145  0.87814  0.61626  1.0000
  H   H629      1.0  0.45339  0.92449  0.60445  1.0000
  H   H630      1.0  0.40443  0.92591  0.57583  1.0000
  H   H631      1.0  0.42186  0.93258  0.60340  1.0000
  C   C632      1.0  0.45659  0.90186  0.57773  1.0000
  C   C633      1.0  0.42197  0.93195  0.58200  1.0000
  C   C634      1.0  0.42348  0.90571  0.55024  1.0000
  N   N53       1.0  0.40081  0.82491  0.78442  1.0000
  C   C635      1.0  0.39576  0.81658  0.80880  1.0000
  C   C636      1.0  0.38849  0.79406  0.81315  1.0000
  C   C637      1.0  0.38641  0.78008  0.79242  1.0000
  C   C638      1.0  0.40778  0.84844  0.78017  1.0000
  H   H632      1.0  0.39771  0.82740  0.82511  1.0000
  C   C639      1.0  0.49837  0.99573  0.69442  1.0000
  C   C640      1.0  0.43200  0.89164  0.54115  1.0000
  H   H633      1.0  0.50423  0.86523  0.57215  1.0000
  C   C641      1.0  0.49188  0.82047  0.84874  1.0000
  S   S216      1.0  0.43333  0.77811  0.86035  1.0000
  H   H634      1.0  0.48323  0.99679  0.69885  1.0000
  C   C642      1.0  0.39853  0.81127  0.76391  1.0000
  H   H635      1.0  0.39304  0.85144  0.77819  1.0000
  H   H636      1.0  0.41806  0.85427  0.76243  1.0000
  H   H637      1.0  0.41821  0.85853  0.79639  1.0000
  H   H638      1.0  0.45483  0.87823  0.54883  1.0000
  C   C643      1.0  0.51748  0.88383  0.60712  1.0000
  C   C644      1.0  0.51909  0.87652  0.58217  1.0000
  H   H639      1.0  0.48874  0.82963  0.83363  1.0000
  C   C645      1.0  0.49186  0.80025  0.84333  1.0000
  N   N54       1.0  0.49552  0.78857  0.86248  1.0000
  H   H640      1.0  0.48866  0.79385  0.82378  1.0000
  C   C646      1.0  0.49563  0.76754  0.85614  1.0000
  C   C647      1.0  0.51836  0.01514  0.69173  1.0000
  S   S217      1.0  0.37389  0.91906  0.52491  1.0000
  C   C648      1.0  0.49960  0.79671  0.88713  1.0000
  C   C649      1.0  0.39146  0.78869  0.76761  1.0000
  H   H641      1.0  0.39013  0.77804  0.75136  1.0000
  H   H642      1.0  0.40283  0.81793  0.74461  1.0000
  C   C650      1.0  0.49551  0.82863  0.87391  1.0000
  H   H643      1.0  0.49491  0.84400  0.87843  1.0000
  C   C651      1.0  0.49945  0.81674  0.89326  1.0000
  H   H644      1.0  0.48752  0.96484  0.75726  1.0000
  H   H645      1.0  0.50239  0.78744  0.90240  1.0000
  H   H646      1.0  0.38459  0.78743  0.83246  1.0000
  H   H647      1.0  0.38013  0.96998  0.53145  1.0000
  H   H648      1.0  0.50194  0.82277  0.91298  1.0000
  C   C652      1.0  0.39705  0.00546  0.52693  1.0000
  C   C653      1.0  0.51758  0.97367  0.68637  1.0000
  H   H649      1.0  0.51746  0.95773  0.68458  1.0000
  H   H650      1.0  0.42542  0.88208  0.52364  1.0000
  C   C654      1.0  0.50528  0.97475  0.75503  1.0000
  S   S218      1.0  0.35710  0.89511  0.59153  1.0000
  H   H651      1.0  0.40695  0.00808  0.54409  1.0000
  C   C655      1.0  0.51471  0.99777  0.75640  1.0000
  H   H652      1.0  0.51068  0.77048  0.84491  1.0000
  H   H653      1.0  0.37078  0.86481  0.56669  1.0000
  C   C656      1.0  0.38182  0.98375  0.51976  1.0000
  H   H654      1.0  0.51128  0.94679  0.74682  1.0000
  C   C657      1.0  0.51863  0.96459  0.74906  1.0000
  Fe  Fe109     1.0  0.43964  0.76979  0.90012  1.0000
  H   H655      1.0  0.50408  0.00555  0.76019  1.0000
  Fe  Fe110     1.0  0.61304  0.87223  0.51009  1.0000
  C   C658      1.0  0.62350  0.78539  0.51597  1.0000
  H   H656      1.0  0.56747  0.01046  0.74156  1.0000
  H   H657      1.0  0.57037  0.87417  0.63050  1.0000
  H   H658      1.0  0.53158  0.83808  0.58509  1.0000
  H   H659      1.0  0.60729  0.84551  0.57432  1.0000
  C   C659      1.0  0.68176  0.98326  0.51242  1.0000
  C   C660      1.0  0.53816  0.01380  0.68754  1.0000
  S   S219      1.0  0.54145  0.87252  0.54005  1.0000
  H   H660      1.0  0.68362  0.96834  0.50994  1.0000
  C   C661      1.0  0.61794  0.81867  0.51121  1.0000
  C   C662      1.0  0.53665  0.89800  0.62045  1.0000
  H   H661      1.0  0.55289  0.99190  0.68099  1.0000
  N   N55       1.0  0.56361  0.84922  0.60204  1.0000
  C   C663      1.0  0.54121  0.97751  0.74466  1.0000
  H   H662      1.0  0.54150  0.82477  0.54511  1.0000
  H   H663      1.0  0.55155  0.96978  0.73907  1.0000
  C   C664      1.0  0.55011  0.00052  0.74614  1.0000
  H   H664      1.0  0.59692  0.85919  0.61407  1.0000
  C   C665      1.0  0.66186  0.98195  0.52205  1.0000
  C   C666      1.0  0.53764  0.99304  0.68432  1.0000
  C   C667      1.0  0.59052  0.84348  0.57688  1.0000
  C   C668      1.0  0.65996  0.00155  0.52571  1.0000
  Fe  Fe111     1.0  0.62299  0.92160  0.51695  1.0000
  H   H665      1.0  0.57222  0.91631  0.61867  1.0000
  S   S220      1.0  0.62456  0.84623  0.52170  1.0000
  H   H666      1.0  0.64472  0.00076  0.53338  1.0000
  S   S221      1.0  0.64012  0.95687  0.53324  1.0000
  H   H667      1.0  0.54163  0.85775  0.62406  1.0000
  C   C669      1.0  0.55357  0.83165  0.56049  1.0000
  S   S222      1.0  0.53531  0.90561  0.65264  1.0000
  H   H668      1.0  0.63174  0.77703  0.52550  1.0000
  H   H669      1.0  0.57502  0.90353  0.57447  1.0000
  Fe  Fe112     1.0  0.57564  0.88427  0.52315  1.0000
  H   H670      1.0  0.68095  0.99661  0.58150  1.0000
  H   H671      1.0  0.55642  0.84607  0.64206  1.0000
  H   H672      1.0  0.63975  0.81515  0.53894  1.0000
  C   C670      1.0  0.58457  0.85126  0.59919  1.0000
  C   C671      1.0  0.55771  0.85710  0.62584  1.0000
  C   C672      1.0  0.55897  0.89800  0.58347  1.0000
  S   S223      1.0  0.60771  0.89175  0.54276  1.0000
  C   C673      1.0  0.55736  0.90525  0.60846  1.0000
  H   H673      1.0  0.57948  0.82813  0.53972  1.0000
  C   C674      1.0  0.54811  0.83936  0.58315  1.0000
  C   C675      1.0  0.53983  0.88346  0.57038  1.0000
  C   C676      1.0  0.57490  0.83371  0.55740  1.0000
  C   C677      1.0  0.62804  0.80711  0.52357  1.0000
  N   N56       1.0  0.53685  0.01034  0.75193  1.0000
  H   H674      1.0  0.65563  0.01286  0.59133  1.0000
  C   C678      1.0  0.68702  0.01439  0.58105  1.0000
  Fe  Fe113     1.0  0.69678  0.10585  0.48410  1.0000
  S   S224      1.0  0.72877  0.10500  0.47519  1.0000
  S   S225      1.0  0.77492  0.16542  0.48651  1.0000
  N   N57       1.0  0.73064  0.16888  0.43438  1.0000
  H   H675      1.0  0.72065  0.11745  0.41546  1.0000
  H   H676      1.0  0.76231  0.19048  0.44953  1.0000
  C   C679      1.0  0.73278  0.14983  0.43279  1.0000
  C   C680      1.0  0.74452  0.18612  0.45267  1.0000
  H   H677      1.0  0.74019  0.18001  0.47272  1.0000
  C   C681      1.0  0.70399  0.13552  0.40060  1.0000
  C   C682      1.0  0.81232  0.20573  0.48218  1.0000
  H   H678      1.0  0.69953  0.02903  0.44779  1.0000
  H   H679      1.0  0.74476  0.14764  0.44473  1.0000
  C   C683      1.0  0.71941  0.13282  0.41603  1.0000
  C   C684      1.0  0.70198  0.15505  0.40223  1.0000
  H   H680      1.0  0.69311  0.12223  0.38802  1.0000
  H   H681      1.0  0.74259  0.20142  0.45078  1.0000
  H   H682      1.0  0.68954  0.15700  0.39084  1.0000
  H   H683      1.0  0.71323  0.18642  0.42113  1.0000
  C   C685      1.0  0.83167  0.22425  0.49091  1.0000
  H   H684      1.0  0.80776  0.20458  0.46210  1.0000
  H   H685      1.0  0.84168  0.23705  0.47758  1.0000
  C   C686      1.0  0.71537  0.17158  0.41952  1.0000
  C   C687      1.0  0.79902  0.18863  0.49903  1.0000
  Fe  Fe114     1.0  0.74501  0.13438  0.50212  1.0000
  H   H686      1.0  0.68896  0.24250  0.21657  1.0000
  Fe  Fe115     1.0  0.70786  0.11288  0.54112  1.0000
  S   S226      1.0  0.74049  0.11188  0.53586  1.0000
  C   C688      1.0  0.82491  0.20887  0.53358  1.0000
  H   H687      1.0  0.79559  0.17754  0.53819  1.0000
  S   S227      1.0  0.86298  0.24855  0.52900  1.0000
  S   S228      1.0  0.69677  0.11355  0.58203  1.0000
  C   C689      1.0  0.83826  0.22592  0.51671  1.0000
  H   H688      1.0  0.69977  0.21203  0.91541  1.0000
  H   H689      1.0  0.70719  0.07718  0.57613  1.0000
  H   H690      1.0  0.82975  0.20979  0.55355  1.0000
  Fe  Fe116     1.0  0.72093  0.08286  0.50952  1.0000
  C   C690      1.0  0.70977  0.22584  0.92791  1.0000
  C   C691      1.0  0.70884  0.02805  0.57381  1.0000
  C   C692      1.0  0.71615  0.05076  0.57219  1.0000
  S   S229      1.0  0.70476  0.24680  0.86734  1.0000
  C   C693      1.0  0.69800  0.02368  0.51156  1.0000
  C   C694      1.0  0.80543  0.19046  0.52491  1.0000
  C   C695      1.0  0.70094  0.22962  0.95073  1.0000
  S   S230      1.0  0.71294  0.13654  0.50867  1.0000
  C   C696      1.0  0.70324  0.25124  0.98950  1.0000
  H   H691      1.0  0.73289  0.06143  0.56574  1.0000
  C   C697      1.0  0.70145  0.05952  0.57774  1.0000
  N   N58       1.0  0.71314  0.24762  0.96587  1.0000
  C   C698      1.0  0.73130  0.24048  0.92074  1.0000
  H   H692      1.0  0.73798  0.23813  0.90257  1.0000
  H   H693      1.0  0.69881  0.23713  0.00285  1.0000
  H   H694      1.0  0.71986  0.02099  0.56855  1.0000
  C   C699      1.0  0.73424  0.26218  0.95888  1.0000
  C   C700      1.0  0.74365  0.25880  0.93626  1.0000
  H   H695      1.0  0.69441  0.26454  0.91310  1.0000
  S   S231      1.0  0.72155  0.04955  0.50656  1.0000
  S   S232      1.0  0.68846  0.08269  0.51729  1.0000
  H   H696      1.0  0.71462  0.26647  0.99995  1.0000
  Fe  Fe117     1.0  0.91907  0.45924  0.37345  1.0000
  S   S233      1.0  0.95408  0.46446  0.37640  1.0000
  S   S234      1.0  0.90428  0.46731  0.40844  1.0000
  Fe  Fe118     1.0  0.91246  0.43752  0.31997  1.0000
  S   S235      1.0  0.94744  0.44157  0.31870  1.0000
  S   S236      1.0  0.88351  0.41578  0.29415  1.0000
  Fe  Fe119     1.0  0.94175  0.43053  0.35996  1.0000
  S   S237      1.0  0.95375  0.40707  0.37623  1.0000
  Fe  Fe120     1.0  0.95678  0.47535  0.33545  1.0000
  H   H697      1.0  0.79750  0.35508  0.07217  1.0000
  S   S238      1.0  0.90636  0.42420  0.36026  1.0000
  S   S239      1.0  0.92221  0.47237  0.33344  1.0000
  Fe  Fe121     1.0  0.81834  0.40459  0.10169  1.0000
  S   S240      1.0  0.83989  0.38854  0.11168  1.0000
  S   S241      1.0  0.81489  0.42016  0.06471  1.0000
  Fe  Fe122     1.0  0.79375  0.39226  0.15300  1.0000
  S   S242      1.0  0.81248  0.37442  0.16730  1.0000
  S   S243      1.0  0.76771  0.39628  0.17629  1.0000
  Fe  Fe123     1.0  0.84234  0.40342  0.15146  1.0000
  S   S244      1.0  0.87475  0.42257  0.17312  1.0000
  Fe  Fe124     1.0  0.80847  0.36103  0.12682  1.0000
  S   S245      1.0  0.79576  0.32612  0.11256  1.0000
  S   S246      1.0  0.82362  0.42219  0.13977  1.0000
  S   S247      1.0  0.78684  0.37608  0.11432  1.0000
  H   H698      1.0  0.90231  0.49053  0.45349  1.0000
  Fe  Fe125     1.0  0.90536  0.32758  0.49070  1.0000
  S   S248      1.0  0.90833  0.29699  0.47903  1.0000
  S   S249      1.0  0.89334  0.34685  0.46542  1.0000
  H   H699      1.0  0.99796  0.41504  0.39767  1.0000
  H   H700      1.0  0.81090  0.41880  0.20094  1.0000
  Fe  Fe126     1.0  0.94030  0.31273  0.50206  1.0000
  C   C701      1.0  0.88214  0.47178  0.21746  1.0000
  C   C702      1.0  0.01330  0.48806  0.32016  1.0000
  C   C703      1.0  0.90609  0.50169  0.43742  1.0000
  H   H701      1.0  0.83421  0.42657  0.27908  1.0000
  N   N59       1.0  0.86077  0.45412  0.22567  1.0000
  C   C704      1.0  0.75317  0.40655  0.15714  1.0000
  C   C705      1.0  0.73722  0.41179  0.16823  1.0000
  C   C706      1.0  0.72482  0.41897  0.15271  1.0000
  C   C707      1.0  0.72845  0.42103  0.12611  1.0000
  C   C708      1.0  0.74441  0.41581  0.11511  1.0000
  C   C709      1.0  0.75686  0.40881  0.13061  1.0000
  H   H702      1.0  0.73439  0.41022  0.18879  1.0000
  C   C710      1.0  0.70411  0.35407  0.15199  1.0000
  H   H703      1.0  0.74690  0.41678  0.09450  1.0000
  H   H704      1.0  0.76921  0.40503  0.12190  1.0000
  C   C711      1.0  0.74612  0.29874  0.16427  1.0000
  C   C712      1.0  0.76672  0.31185  0.15295  1.0000
  C   C713      1.0  0.77003  0.30945  0.12677  1.0000
  C   C714      1.0  0.75259  0.29399  0.11189  1.0000
  H   H705      1.0  0.74377  0.30049  0.18463  1.0000
  H   H706      1.0  0.78019  0.32357  0.16457  1.0000
  C   C715      1.0  0.91279  0.50896  0.39190  1.0000
  H   H707      1.0  0.91403  0.50342  0.37266  1.0000
  C   C716      1.0  0.82573  0.41607  0.03528  1.0000
  C   C717      1.0  0.84193  0.40863  0.03432  1.0000
  C   C718      1.0  0.72845  0.28384  0.14928  1.0000
  H   H708      1.0  0.84819  0.40521  0.05198  1.0000
  N   N60       1.0  0.70860  0.33639  0.15012  1.0000
  H   H709      1.0  0.83009  0.34115  0.00891  1.0000
  H   H710      1.0  0.99830  0.47290  0.31713  1.0000
  C   C719      1.0  0.93885  0.39234  0.40341  1.0000
  C   C720      1.0  0.92102  0.39532  0.41294  1.0000
  C   C721      1.0  0.90760  0.38169  0.43255  1.0000
  C   C722      1.0  0.91217  0.36531  0.44319  1.0000
  C   C723      1.0  0.93067  0.36301  0.43461  1.0000
  C   C724      1.0  0.94389  0.37641  0.41459  1.0000
  H   H711      1.0  0.91726  0.40784  0.40497  1.0000
  H   H712      1.0  0.89343  0.38367  0.43926  1.0000
  H   H713      1.0  0.93432  0.35040  0.44277  1.0000
  H   H714      1.0  0.95770  0.37403  0.40740  1.0000
  C   C725      1.0  0.88254  0.41637  0.26012  1.0000
  C   C726      1.0  0.90017  0.43156  0.24556  1.0000
  C   C727      1.0  0.89793  0.43250  0.21869  1.0000
  C   C728      1.0  0.87796  0.41860  0.20624  1.0000
  C   C729      1.0  0.86058  0.40302  0.22075  1.0000
  C   C730      1.0  0.86294  0.40182  0.24752  1.0000
  H   H715      1.0  0.91541  0.44274  0.25500  1.0000
  H   H716      1.0  0.91155  0.44445  0.20756  1.0000
  H   H717      1.0  0.84520  0.39213  0.21144  1.0000
  H   H718      1.0  0.84927  0.38992  0.25861  1.0000
  S   S250      1.0  0.71381  0.43079  0.10641  1.0000
  N   N61       1.0  0.90053  0.36911  0.34198  1.0000
  C   C731      1.0  0.90775  0.35761  0.35767  1.0000
  C   C732      1.0  0.88097  0.36979  0.34704  1.0000
  C   C733      1.0  0.89553  0.34678  0.37941  1.0000
  C   C734      1.0  0.86858  0.35954  0.36895  1.0000
  C   C735      1.0  0.87601  0.34805  0.38526  1.0000
  C   C736      1.0  0.91370  0.38026  0.31934  1.0000
  H   H719      1.0  0.92345  0.35740  0.35393  1.0000
  H   H720      1.0  0.87516  0.37882  0.33450  1.0000
  H   H721      1.0  0.90164  0.33823  0.39227  1.0000
  H   H722      1.0  0.85354  0.36084  0.37346  1.0000
  H   H723      1.0  0.86699  0.34053  0.40276  1.0000
  H   H724      1.0  0.90832  0.39208  0.31098  1.0000
  H   H725      1.0  0.93145  0.38990  0.32473  1.0000
  H   H726      1.0  0.91210  0.36795  0.30427  1.0000
  C   C737      1.0  0.76670  0.45981  0.07690  1.0000
  H   H727      1.0  0.76155  0.46127  0.09635  1.0000
  C   C738      1.0  0.75868  0.45562  0.03139  1.0000
  H   H728      1.0  0.81762  0.46620  0.08917  1.0000
  C   C739      1.0  0.84434  0.44393  0.20786  1.0000
  C   C740      1.0  0.81487  0.34704  0.04248  1.0000
  C   C741      1.0  0.01898  0.33407  0.48760  1.0000
  H   H729      1.0  0.87022  0.45613  0.26518  1.0000
  C   C742      1.0  0.80040  0.35493  0.05169  1.0000
  H   H730      1.0  0.75514  0.29205  0.09164  1.0000
  C   C743      1.0  0.73168  0.28139  0.12305  1.0000
  H   H731      1.0  0.82308  0.34099  0.05595  1.0000
  H   H732      1.0  0.88110  0.48757  0.21610  1.0000
  H   H733      1.0  0.70042  0.30533  0.13210  1.0000
  H   H734      1.0  0.84738  0.44829  0.18769  1.0000
  C   C744      1.0  0.00021  0.33589  0.49653  1.0000
  C   C745      1.0  0.72614  0.33558  0.16582  1.0000
  H   H735      1.0  0.71303  0.36727  0.16558  1.0000
  C   C746      1.0  0.01374  0.42943  0.39449  1.0000
  C   C747      1.0  0.83670  0.43162  0.25908  1.0000
  S   S251      1.0  0.97339  0.31418  0.48944  1.0000
  C   C748      1.0  0.78986  0.36276  0.03450  1.0000
  H   H736      1.0  0.73310  0.34938  0.18002  1.0000
  C   C749      1.0  0.69698  0.31946  0.13335  1.0000
  H   H737      1.0  0.71814  0.26980  0.11140  1.0000
  H   H738      1.0  0.80416  0.40768  0.24677  1.0000
  C   C750      1.0  0.82373  0.42717  0.21521  1.0000
  C   C751      1.0  0.85710  0.44836  0.25107  1.0000
  H   H739      1.0  0.89560  0.47385  0.23109  1.0000
  C   C752      1.0  0.01203  0.50764  0.32564  1.0000
  H   H740      1.0  0.88698  0.46770  0.19837  1.0000
  C   C753      1.0  0.81995  0.42095  0.24098  1.0000
  H   H741      1.0  0.71951  0.31986  0.17666  1.0000
  H   H742      1.0  0.96864  0.51190  0.37607  1.0000
  C   C754      1.0  0.79976  0.45855  0.09439  1.0000
  H   H743      1.0  0.79777  0.46769  0.11123  1.0000
  C   C755      1.0  0.75265  0.45819  0.05643  1.0000
  C   C756      1.0  0.90783  0.49443  0.41259  1.0000
  S   S252      1.0  0.98623  0.50807  0.32768  1.0000
  N   N62       1.0  0.78615  0.45871  0.07257  1.0000
  C   C757      1.0  0.96333  0.51537  0.41645  1.0000
  H   H744      1.0  0.95942  0.49845  0.42104  1.0000
  H   H745      1.0  0.79484  0.44124  0.10013  1.0000
  C   C758      1.0  0.79220  0.45620  0.04807  1.0000
  C   C759      1.0  0.81867  0.34714  0.01597  1.0000
  H   H746      1.0  0.73997  0.33681  0.15323  1.0000
  H   H747      1.0  0.80751  0.45508  0.04466  1.0000
  H   H748      1.0  0.71286  0.42341  0.16142  1.0000
  H   H749      1.0  0.77905  0.36947  0.04168  1.0000
  H   H750      1.0  0.01684  0.32058  0.47483  1.0000
  H   H751      1.0  0.74779  0.45412  0.01538  1.0000
  S   S253      1.0  0.70232  0.26938  0.16369  1.0000
  H   H752      1.0  0.73692  0.45839  0.06017  1.0000
  C   C760      1.0  0.01432  0.44794  0.38240  1.0000
  H   H753      1.0  0.99901  0.44790  0.37605  1.0000
  C   C761      1.0  0.77864  0.45471  0.02710  1.0000
  H   H754      1.0  0.80536  0.42632  0.01274  1.0000
  C   C762      1.0  0.85042  0.40607  0.01038  1.0000
  C   C763      1.0  0.81790  0.42062  0.01223  1.0000
  H   H755      1.0  0.86316  0.40061  0.00973  1.0000
  H   H756      1.0  0.78347  0.45256  0.00773  1.0000
  C   C764      1.0  0.79390  0.36246  0.00810  1.0000
  H   H757      1.0  0.00834  0.47570  0.75773  1.0000
  Fe  Fe127     1.0  0.78588  0.36274  0.90774  1.0000
  S   S254      1.0  0.79599  0.39451  0.92893  1.0000
  S   S255      1.0  0.75796  0.33558  0.92887  1.0000
  Fe  Fe128     1.0  0.82150  0.38454  0.86633  1.0000
  S   S256      1.0  0.83496  0.41790  0.88549  1.0000
  S   S257      1.0  0.83096  0.37743  0.82654  1.0000
  Fe  Fe129     1.0  0.83053  0.39935  0.92271  1.0000
  S   S258      1.0  0.85297  0.40676  0.95745  1.0000
  Fe  Fe130     1.0  0.79902  0.40964  0.89027  1.0000
  S   S259      1.0  0.78533  0.43385  0.88460  1.0000
  S   S260      1.0  0.82032  0.36651  0.90309  1.0000
  S   S261      1.0  0.78559  0.37734  0.86934  1.0000
  Fe  Fe131     1.0  0.91907  0.32630  0.54582  1.0000
  C   C765      1.0  0.82618  0.41782  0.98839  1.0000
  S   S262      1.0  0.92962  0.34196  0.58521  1.0000
  Fe  Fe132     1.0  0.91728  0.44680  0.71699  1.0000
  S   S263      1.0  0.92924  0.42470  0.69651  1.0000
  S   S264      1.0  0.91014  0.44768  0.75980  1.0000
  Fe  Fe133     1.0  0.92491  0.47598  0.66957  1.0000
  S   S265      1.0  0.93739  0.45645  0.64567  1.0000
  S   S266      1.0  0.92294  0.50652  0.65600  1.0000
  Fe  Fe134     1.0  0.90941  0.42687  0.66287  1.0000
  S   S267      1.0  0.88805  0.40025  0.63468  1.0000
  Fe  Fe135     1.0  0.95626  0.45620  0.68087  1.0000
  S   S268      1.0  0.99131  0.46161  0.67405  1.0000
  S   S269      1.0  0.89521  0.44649  0.68450  1.0000
  S   S270      1.0  0.94607  0.47820  0.70359  1.0000
  C   C766      1.0  0.91949  0.36026  0.59635  1.0000
  C   C767      1.0  0.90012  0.35975  0.58624  1.0000
  C   C768      1.0  0.89070  0.37229  0.59792  1.0000
  C   C769      1.0  0.90086  0.38576  0.61938  1.0000
  C   C770      1.0  0.92066  0.38689  0.62884  1.0000
  C   C771      1.0  0.92981  0.37400  0.61751  1.0000
  H   H758      1.0  0.89204  0.34916  0.56994  1.0000
  H   H759      1.0  0.87540  0.37141  0.59047  1.0000
  H   H760      1.0  0.92864  0.39726  0.64533  1.0000
  H   H761      1.0  0.94478  0.37444  0.62545  1.0000
  Fe  Fe136     1.0  0.89050  0.28267  0.51647  1.0000
  H   H762      1.0  0.88999  0.47471  0.52576  1.0000
  C   C772      1.0  0.84248  0.41055  0.98732  1.0000
  C   C773      1.0  0.87364  0.28135  0.58680  1.0000
  H   H763      1.0  0.86448  0.43678  0.61233  1.0000
  H   H764      1.0  0.82040  0.42194  0.97086  1.0000
  C   C774      1.0  0.84849  0.29762  0.58788  1.0000
  C   C775      1.0  0.85365  0.39660  0.80849  1.0000
  C   C776      1.0  0.87001  0.41578  0.81973  1.0000
  C   C777      1.0  0.88769  0.43075  0.80470  1.0000
  C   C778      1.0  0.88896  0.42697  0.77822  1.0000
  C   C779      1.0  0.87265  0.40775  0.76698  1.0000
  C   C780      1.0  0.85515  0.39257  0.78212  1.0000
  H   H765      1.0  0.86918  0.41897  0.84004  1.0000
  H   H766      1.0  0.90027  0.44556  0.81357  1.0000
  H   H767      1.0  0.87343  0.40464  0.74663  1.0000
  H   H768      1.0  0.84261  0.37770  0.77332  1.0000
  C   C781      1.0  0.74069  0.28668  0.87584  1.0000
  C   C782      1.0  0.75272  0.30645  0.88949  1.0000
  C   C783      1.0  0.74366  0.31095  0.91167  1.0000
  C   C784      1.0  0.72256  0.29591  0.92001  1.0000
  C   C785      1.0  0.99640  0.34685  0.58262  1.0000
  H   H769      1.0  0.76903  0.31810  0.88295  1.0000
  H   H770      1.0  0.69268  0.40995  0.78494  1.0000
  C   C786      1.0  0.71532  0.40338  0.85133  1.0000
  C   C787      1.0  0.73101  0.39711  0.84164  1.0000
  C   C788      1.0  0.75246  0.40625  0.85198  1.0000
  C   C789      1.0  0.75843  0.42202  0.87171  1.0000
  C   C790      1.0  0.74278  0.42845  0.88124  1.0000
  C   C791      1.0  0.72112  0.41888  0.87134  1.0000
  H   H771      1.0  0.72652  0.38505  0.82621  1.0000
  H   H772      1.0  0.76445  0.40138  0.84432  1.0000
  H   H773      1.0  0.74735  0.44067  0.89649  1.0000
  N   N63       1.0  0.00520  0.31694  0.55395  1.0000
  H   H774      1.0  0.87904  0.26995  0.57821  1.0000
  H   H775      1.0  0.80918  0.36701  0.96132  1.0000
  C   C792      1.0  0.71042  0.27637  0.90614  1.0000
  H   H776      1.0  0.90014  0.29438  0.61429  1.0000
  H   H777      1.0  0.70906  0.42375  0.87896  1.0000
  H   H778      1.0  0.84588  0.27205  0.56112  1.0000
  C   C793      1.0  0.89067  0.32314  0.64016  1.0000
  H   H779      1.0  0.88432  0.46568  0.61523  1.0000
  C   C794      1.0  0.85500  0.28254  0.57718  1.0000
  H   H780      1.0  0.88420  0.31360  0.65809  1.0000
  H   H781      1.0  0.90874  0.32826  0.63862  1.0000
  C   C795      1.0  0.89824  0.44771  0.53016  1.0000
  N   N64       1.0  0.83150  0.43713  0.80858  1.0000
  C   C796      1.0  0.83605  0.43403  0.78362  1.0000
  C   C797      1.0  0.84644  0.45458  0.82272  1.0000
  C   C798      1.0  0.85587  0.44880  0.77202  1.0000
  C   C799      1.0  0.86656  0.46952  0.81180  1.0000
  C   C800      1.0  0.87124  0.46658  0.78627  1.0000
  C   C801      1.0  0.81041  0.42154  0.81998  1.0000
  H   H782      1.0  0.82458  0.41974  0.77276  1.0000
  H   H783      1.0  0.84299  0.45687  0.84265  1.0000
  H   H784      1.0  0.85985  0.44591  0.75252  1.0000
  H   H785      1.0  0.87862  0.48301  0.82320  1.0000
  H   H786      1.0  0.88710  0.47750  0.77777  1.0000
  H   H787      1.0  0.80908  0.40462  0.81951  1.0000
  H   H788      1.0  0.80883  0.42574  0.84036  1.0000
  H   H789      1.0  0.79635  0.42164  0.80914  1.0000
  C   C802      1.0  0.88544  0.29516  0.60722  1.0000
  C   C803      1.0  0.81187  0.35411  0.97146  1.0000
  C   C804      1.0  0.88551  0.46292  0.56491  1.0000
  C   C805      1.0  0.89096  0.46280  0.53890  1.0000
  H   H790      1.0  0.78582  0.36875  0.99480  1.0000
  H   H791      1.0  0.96625  0.50850  0.64578  1.0000
  C   C806      1.0  0.97919  0.32897  0.57049  1.0000
  H   H792      1.0  0.00807  0.28719  0.55095  1.0000
  S   S271      1.0  0.68851  0.39131  0.83833  1.0000
  C   C807      1.0  0.01650  0.45693  0.72976  1.0000
  S   S272      1.0  0.92293  0.29566  0.53833  1.0000
  H   H793      1.0  0.76008  0.27072  0.93027  1.0000
  C   C808      1.0  0.89458  0.43365  0.57336  1.0000
  H   H794      1.0  0.89602  0.42215  0.58668  1.0000
  S   S273      1.0  0.88584  0.31266  0.52670  1.0000
  H   H795      1.0  0.93443  0.48752  0.61140  1.0000
  C   C809      1.0  0.88195  0.44903  0.60903  1.0000
  H   H796      1.0  0.70464  0.30643  0.85489  1.0000
  N   N65       1.0  0.88777  0.44874  0.58185  1.0000
  H   H797      1.0  0.88025  0.47501  0.57157  1.0000
  H   H798      1.0  0.74629  0.37712  0.89472  1.0000
  H   H799      1.0  0.01489  0.50163  0.62376  1.0000
  H   H800      1.0  0.99453  0.49791  0.70709  1.0000
  C   C810      1.0  0.86060  0.31110  0.60841  1.0000
  C   C811      1.0  0.89996  0.43293  0.54744  1.0000
  H   H801      1.0  0.97051  0.30054  0.54617  1.0000
  C   C812      1.0  0.72966  0.36999  0.90381  1.0000
  C   C813      1.0  0.69380  0.35397  0.88127  1.0000
  C   C814      1.0  0.98388  0.31401  0.55626  1.0000
  H   H802      1.0  0.93444  0.49477  0.56481  1.0000
  H   H803      1.0  0.72572  0.38393  0.90786  1.0000
  C   C815      1.0  0.93009  0.50010  0.60497  1.0000
  C   C816      1.0  0.00333  0.35356  0.51288  1.0000
  H   H804      1.0  0.98608  0.48738  0.63065  1.0000
  N   N66       1.0  0.87884  0.30977  0.61777  1.0000
  N   N67       1.0  0.71324  0.35331  0.88682  1.0000
  H   H805      1.0  0.73289  0.33645  0.88121  1.0000
  H   H806      1.0  0.99554  0.50682  0.60434  1.0000
  H   H807      1.0  0.99953  0.44425  0.72759  1.0000
  H   H808      1.0  0.85550  0.32283  0.61661  1.0000
  C   C817      1.0  0.71729  0.33667  0.87722  1.0000
  C   C818      1.0  0.01333  0.48743  0.68181  1.0000
  H   H809      1.0  0.74379  0.27675  0.97046  1.0000
  H   H810      1.0  0.88885  0.33860  0.64144  1.0000
  H   H811      1.0  0.71553  0.29939  0.93718  1.0000
  H   H812      1.0  0.89269  0.44477  0.62161  1.0000
  H   H813      1.0  0.99298  0.35888  0.59307  1.0000
  H   H814      1.0  0.96240  0.32708  0.57150  1.0000
  H   H815      1.0  0.99818  0.29477  0.52212  1.0000
  C   C819      1.0  0.01804  0.34944  0.58065  1.0000
  H   H816      1.0  0.74777  0.28305  0.85881  1.0000
  C   C820      1.0  0.99939  0.50348  0.62410  1.0000
  C   C821      1.0  0.00979  0.30119  0.53874  1.0000
  H   H817      1.0  0.98912  0.35534  0.51980  1.0000
  C   C822      1.0  0.93009  0.50424  0.57855  1.0000
  S   S274      1.0  0.93815  0.34398  0.51092  1.0000
  C   C823      1.0  0.92419  0.51206  0.62280  1.0000
  C   C824      1.0  0.70146  0.31980  0.86210  1.0000
  H   H818      1.0  0.90551  0.42103  0.54085  1.0000
  H   H819      1.0  0.73058  0.36237  0.92233  1.0000
  H   H820      1.0  0.69093  0.49849  0.56875  1.0000
  C   C825      1.0  0.71945  0.27174  0.88401  1.0000
  H   H821      1.0  0.80025  0.33779  0.96337  1.0000
  H   H822      1.0  0.83426  0.29892  0.58016  1.0000
  N   N68       1.0  0.80831  0.35489  0.99920  1.0000
  H   H823      1.0  0.82928  0.35757  0.96724  1.0000
  C   C826      1.0  0.01059  0.50208  0.69882  1.0000
  H   H824      1.0  0.90262  0.44755  0.51004  1.0000
  C   C827      1.0  0.02143  0.47468  0.74652  1.0000
  H   H825      1.0  0.69073  0.36740  0.88837  1.0000
  Fe  Fe137     1.0  0.92253  0.57393  0.46909  1.0000
  S   S275      1.0  0.92131  0.56597  0.42675  1.0000
  S   S276      1.0  0.92711  0.60655  0.48579  1.0000
  H   H826      1.0  0.81719  0.54809  0.43875  1.0000
  S   S277      1.0  0.72451  0.58084  0.46931  1.0000
  C   C828      1.0  0.83185  0.54246  0.47273  1.0000
  H   H827      1.0  0.00253  0.63609  0.47366  1.0000
  S   S278      1.0  0.94916  0.57214  0.49290  1.0000
  H   H828      1.0  0.95757  0.57783  0.38777  1.0000
  H   H829      1.0  0.84671  0.54411  0.46291  1.0000
  C   C829      1.0  0.81514  0.54476  0.45923  1.0000
  C   C830      1.0  0.97314  0.57971  0.39701  1.0000
  C   C831      1.0  0.91486  0.53810  0.42115  1.0000
  C   C832      1.0  0.84687  0.59578  0.49089  1.0000
  C   C833      1.0  0.01649  0.64334  0.48664  1.0000
  H   H830      1.0  0.98720  0.58808  0.38352  1.0000
  H   H831      1.0  0.86046  0.59800  0.47826  1.0000
  H   H832      1.0  0.82780  0.60121  0.46095  1.0000
  C   C834      1.0  0.96828  0.52281  0.39118  1.0000
  N   N69       1.0  0.79675  0.54343  0.47176  1.0000
  C   C835      1.0  0.91604  0.53071  0.39614  1.0000
  Fe  Fe138     1.0  0.70523  0.54725  0.48598  1.0000
  H   H833      1.0  0.78739  0.56191  0.44604  1.0000
  C   C836      1.0  0.97191  0.54420  0.38524  1.0000
  H   H834      1.0  0.91983  0.54188  0.38011  1.0000
  C   C837      1.0  0.77973  0.54629  0.45713  1.0000
  H   H835      1.0  0.95780  0.52367  0.45508  1.0000
  H   H836      1.0  0.96443  0.56135  0.44365  1.0000
  H   H837      1.0  0.93928  0.66378  0.50336  1.0000
  H   H838      1.0  0.69796  0.54602  0.42511  1.0000
  H   H839      1.0  0.90932  0.52906  0.46113  1.0000
  S   S279      1.0  0.89473  0.55312  0.49545  1.0000
  C   C838      1.0  0.90990  0.52352  0.44174  1.0000
  C   C839      1.0  0.96623  0.55085  0.42895  1.0000
  H   H840      1.0  0.89337  0.63313  0.50177  1.0000
  C   C840      1.0  0.79425  0.53944  0.49765  1.0000
  S   S280      1.0  0.78680  0.59608  0.48325  1.0000
  N   N70       1.0  0.97085  0.55793  0.40405  1.0000
  Fe  Fe139     1.0  0.70929  0.59276  0.50088  1.0000
  C   C841      1.0  0.82826  0.59753  0.48110  1.0000
  H   H841      1.0  0.97606  0.59056  0.41419  1.0000
  C   C842      1.0  0.96243  0.52951  0.43554  1.0000
  H   H842      1.0  0.69541  0.59642  0.43572  1.0000
  H   H843      1.0  0.76718  0.54765  0.46995  1.0000
  C   C843      1.0  0.81016  0.59439  0.49703  1.0000
  Fe  Fe140     1.0  0.75123  0.58480  0.49820  1.0000
  H   H844      1.0  0.77107  0.53215  0.44376  1.0000
  H   H845      1.0  0.97505  0.54951  0.36535  1.0000
  C   C844      1.0  0.82957  0.53868  0.49918  1.0000
  H   H846      1.0  0.90075  0.66139  0.51105  1.0000
  S   S281      1.0  0.87103  0.58919  0.53071  1.0000
  H   H847      1.0  0.91389  0.54487  0.58095  1.0000
  S   S282      1.0  0.92095  0.52247  0.53642  1.0000
  Fe  Fe141     1.0  0.90068  0.58529  0.51402  1.0000
  H   H848      1.0  0.89656  0.62618  0.56383  1.0000
  H   H849      1.0  0.80901  0.53474  0.53242  1.0000
  H   H850      1.0  0.71222  0.64931  0.51772  1.0000
  S   S283      1.0  0.92608  0.58454  0.54183  1.0000
  Fe  Fe142     1.0  0.71726  0.56408  0.54091  1.0000
  S   S284      1.0  0.73754  0.59949  0.52871  1.0000
  H   H851      1.0  0.69454  0.52015  0.62330  1.0000
  N   N71       1.0  0.00125  0.52129  0.64159  1.0000
  H   H852      1.0  0.96623  0.64539  0.56808  1.0000
  H   H853      1.0  0.84277  0.53770  0.51008  1.0000
  C   C845      1.0  0.83000  0.58863  0.53302  1.0000
  S   S285      1.0  0.71292  0.54918  0.58053  1.0000
  H   H854      1.0  0.91443  0.53798  0.62778  1.0000
  H   H855      1.0  0.83059  0.58533  0.55327  1.0000
  S   S286      1.0  0.98568  0.62920  0.52700  1.0000
  C   C846      1.0  0.95219  0.64579  0.55843  1.0000
  H   H856      1.0  0.88204  0.63891  0.53046  1.0000
  H   H857      1.0  0.97158  0.66427  0.52620  1.0000
  H   H858      1.0  0.92843  0.62618  0.58698  1.0000
  C   C847      1.0  0.95519  0.65641  0.53484  1.0000
  C   C848      1.0  0.81115  0.58986  0.52309  1.0000
  C   C849      1.0  0.93100  0.63500  0.56899  1.0000
  C   C850      1.0  0.91868  0.53259  0.58757  1.0000
  C   C851      1.0  0.84788  0.59132  0.51698  1.0000
  C   C852      1.0  0.91888  0.52858  0.61406  1.0000
  H   H859      1.0  0.00566  0.56836  0.68718  1.0000
  C   C853      1.0  0.92393  0.52015  0.56974  1.0000
  C   C854      1.0  0.91305  0.63504  0.55574  1.0000
  H   H860      1.0  0.79751  0.58757  0.53569  1.0000
  C   C855      1.0  0.69291  0.66753  0.51582  1.0000
  C   C856      1.0  0.00441  0.55526  0.67419  1.0000
  N   N72       1.0  0.91616  0.64555  0.53261  1.0000
  H   H861      1.0  0.96861  0.53833  0.67486  1.0000
  C   C857      1.0  0.98242  0.52150  0.65093  1.0000
  C   C858      1.0  0.01286  0.64172  0.51327  1.0000
  C   C859      1.0  0.93687  0.65601  0.52203  1.0000
  C   C860      1.0  0.98368  0.53841  0.66742  1.0000
  Fe  Fe143     1.0  0.92183  0.55389  0.52096  1.0000
  C   C861      1.0  0.89718  0.64479  0.51828  1.0000
  H   H862      1.0  0.70487  0.68150  0.52662  1.0000
  S   S287      1.0  0.68855  0.55845  0.51570  1.0000
  S   S288      1.0  0.73256  0.55012  0.51228  1.0000
  Fe  Fe144     1.0  0.95214  0.60306  0.51185  1.0000
  C   C862      1.0  0.69711  0.64926  0.51086  1.0000
  H   H863      1.0  0.77991  0.53887  0.50773  1.0000
  C   C863      1.0  0.81061  0.53703  0.51174  1.0000
  H   H864      1.0  0.71533  0.00489  0.50076  1.0000
  C   C864      1.0  0.69978  0.00403  0.50742  1.0000
