data_image0
_chemical_formula_structural       FeSFeS2FeS2FeHFeS3HFeS2FeSFeS2HNHSHSC2FeS2H3CHNSH5CHC2HFeHSHCSC4SC3H2CH3SC6HCH2C6H5CHCSHC8H4C6H4FeHC4H3CHNC3H6CH4C2HCHSFeHFeCH3C5SC4H3CHCHCH2SNH2CSHC4H2C2HCSCHNHC2HC2H4SH2C2N2H2CFeC5HCH2SNCFeCHCH3NH2SHCH2C3H3FeSNFeS2FeSFeS3HSC5HCHFeS2FeS2FeSFeHS2FeS2FeS2FeSFeS3FeHFeHSH2FeH2SHC5NCHSHCH2CHCNCH2C2HC2HC6H4NCHC5H4C6H5CS2C2H2C8H4NCHC2HC5H2SHSCHCHCHCSHC2HC2H4FeH3CH4CH2SCH3CH2C2H2SCHC3NC2H2SCHCHCH4NC6H7CHC2HC2HFeHC2HCNH5SH2C3HCHCH2CHCHSC2SFeS2FeHSH2FeCS2C2H2CHC3H2CHCFeS2FeS2FeSFeS3FeSHFeS2FeSFeS3FeHSFeHSFeS2HCHC6H4C6H4C4H2C6H4C2HC2H3CHC6H3CSHCHCHCH5NHC6H4C6NC7H3SHC2HSH2CHC2H3C2SCHNCH4CHSH2C2H2C2H2NC6H9CHC2H2CHCH2CH2C2NC5H6CSHNC3HSC2N2H2CNFeCSH2C2H3FeHC2HCFeS2FeS2FeSFeS3C2SHS3CSH5FeS2HC3SHC2H4CH2CHCH2CHC7H4C5H4FeHC5H3C3FeCFeH4C2HC2SC2FeCHC2H3CHCHCSC2SHC2HC2HNCSC2NHFeC2HC2HC3H2CHSCHFeCFeSH2CHCHNC2H3CHCH2CHCSCHCHCHSH2SH2NHCNFeHCHCFeCSHCHNC2HS2H6FeHC2NCH3SC2FeHSC2HCSC2HFeS2FeS2FeSFeS3HFeS2FeSCFeSFeS3FeS2FeSHFeSFeHSHSFeSHSHFeS2C7H4CSFeHSC3H3C6H4C3HNCH3C6H4C6H4C6H2CH2C3HC4H2CHFeHC3H2CHC2NC6H2CHFeH3C2SH4CNH2CSHCSHCHC3HC2SH3CNCHCNC6H8NC6H9CSHCSCHCSH5FeHCH3C2H3SHCSCH2CH2SH2NHSH2FeH2SFeS2CHSCFeSCSCFeS2FeSHFeSFeS3H2SH4NFeHCHC5NH2C6HC6H5SCH2FeC2HCHC7H4C2H3NC5H7CHSHC2SH2FeHSHCSHC2H3C2HCH2S2CH3CH2SHFeCNCHC2HFe2CH3NHCH2C3HSC4NC6H3CH5FeSC2HCFeS2HC2H3CS2FeS2CFeS2FeS2FeS2FeHFeS3H2FeS2FeSFeS3HSC8H4C3HCH2C2NC6H4CHCSHC6H4CHC3HNH4CH2C6H5CH5CHNC3HC2H4CFeCHFeH5CH3C3HCS2HNH2FeC2H2C3H3CH2C2SH2NFeH2SHC3SCNH2FeNCSHCH2CHC4H2C5HCH2CHSC2H2FeSC2H2CFeH3S2C2NFeSHNH2FeS2FeS2FeSFeS3FeS2HCNFeSH2SNHCNCFeS2FeS2FeSFeS3C2HSC3HC3H3SCH2C2H2CFeHC6H4NSHC2H2C6H4C6H4CH3C6H5SH6CHCHCH3C3H2C2FeC3HFeHC2HNC6HC4HC3HC4H2NSC2HNC6H8CFeH2CH2SHNH3C2H4CSH3CHC4HCH7CH3CH2SC3HCH2CH2CHSC3SH2SHFeS2HFeSC3H2SH3SCFeS2FeS2FeSFeS3NHFeC3HFeSCSFeS2FeS2FeSFeS3FeS2FeS2FeSFeS2HCH2C6H4C7H3C6H4C6H4C4H3C2HC5H4NCHC6H5CNCFeHCHNC6H4CH4NHNCH2CHNH2CH2C2H5C2HC3HSH3C5H2CNHC2HCHCHCHCNH2C3HCS2H2CHSC2FeH4C2HCSCH3SC3HCH3C2HCH4CHC3HCH6CHCNFeSH5FeCH3CFeSCFeS2FeSFeS3HSHSCH2C2FeSCS2HFeHFeCSHCH2CS2HC5FeH2FeC6H8C2H5CHC3HFeH2CHNC6H4C3HCH2C3H2C3HC2SHC2HC5H2CH2C3HSCHNHC3H2NCHFeSC5FeHNC5H9CH2NHC2H5CHCHS2CHC2HC2SFeSCHCHCSHNH5NCHCHCHSNH2CH3NCFeS2FeCSFeH2S3FeS2FeS2FeSFeS4CFeS2FeH2C3HCSHCHFeC2H3C2FeCFeCH2CHC6H4CH2C4FeH2C6H4SCHC5H2C4HCHCHC2FeCHC2HNHCH9CS3NCHSHSH2C2H4CHNHC2HC2H3SHCH3NHCNC2SCS2FeSH4C3H4C3H2C2NC6H4CH3C4SH3C2H2CHFeHFeS2FeS2FeSFeS3FeS2FeSFeSCHS2FeS2CHCHFeSHSC2HFeHCHFeHFeS2FeSFeCS2CSCHSC4FeC6H4NHSCH2SHNHC6H4SCHC3H2SC2HCH3C6H4C6H5C4H2FeH2CHCS2H3CH2SCH2FeH2SHCHFeC2HC2H4FeCH3NSHC4HCNH3CHCHNC3HNCH2CSCHCH2CH3C2H4CH2CHSCH2C6HSCHC2HNC2SHCHCH2C4HCHC2FeS2FeS2FeS2FeSFeS3FeS2FeS2FeSFeS3H2SFeS2FeSFeSHSC5HCH3NC5H4C6H4C6H4C5H2C6HC2HCHC5H5SC6H4CH2CNCH2CHC3HCSHCH2NCHC3HFeHCSC2HFeH3CH3SH2FeNH3CH2SCH2C2HCNCH2C4NHC2SCSHCHSHC2NH2C2H3CHC2HCH2CH2C2H4CH3CSFeC2FeSHC2FeSHSCSFeS2FeSFeSCSCSFeS2FeSFeS3FeS2FeS2FeHFeS3C6H4CHC5H3C2NFeSC6H4C6H4C3HSC2HSC7H4CHC4HNH2FeC2HSH2CH3CH3CHFeC2H2C2H3C3H2NHCHCHC2HCSCHC2HNHSC2NH2CSC3H2C3HCH3CH5CSH6N2H5SCH4NHSH2C4HCHCHCHC2H3C2H5CH2CH2SCHFeSFeS2Fe2S3FeS2FeS2FeSFeS2CHCH6CFeS2FeSFeSFeS3CHCH3CHNHCFeS2FeSFeSFeCS2C7H5CHCNHC3HCSCH2C5H3C7H4C6H4C6H6NC6H4C6H3CS2C2H5CHC2SC3HNC6H9C2NH3C2HC3H2NH2CHCHCHC2H2C2H3C2H3NC2SCH2CH7C3HC2H3NHS2C7HC3H2C2H2CSHSCSCHFeS2FeS2FeSFeS3HFeSFeCSFeHSH4S2HNC2HSFeH2C8H4C3HFeHCSHSC2HC4H3C3HCHN2C2NHNHFeC6H2NCSC3H2C3HCH2CHCFeSH2CHCHSCHC2HC3HCHC2NH2C2H4CH2CHNHFeC4HCH2CHSCHSH2CNHCSC2HC2H3CHFeHCH3C2H2CH5CH2C2H3CHC2N
_chemical_formula_sum              "Fe256 S512 H1536 N128 C1536"
_cell_length_a       66.6313
_cell_length_b       66.7361
_cell_length_c       67.0789
_cell_angle_alpha    74.3298
_cell_angle_beta     74.9925
_cell_angle_gamma    75.1106

_space_group_name_H-M_alt    "P 1"
_space_group_IT_number       1

loop_
  _space_group_symop_operation_xyz
  'x, y, z'

loop_
  _atom_site_type_symbol
  _atom_site_label
  _atom_site_symmetry_multiplicity
  _atom_site_fract_x
  _atom_site_fract_y
  _atom_site_fract_z
  _atom_site_occupancy
  Fe  Fe1       1.0  0.31276  0.11839  0.15403  1.0000
  S   S1        1.0  0.28423  0.12554  0.13970  1.0000
  Fe  Fe2       1.0  0.25162  0.27625  0.15537  1.0000
  S   S2        1.0  0.25596  0.24096  0.16549  1.0000
  S   S3        1.0  0.27840  0.29201  0.15252  1.0000
  Fe  Fe3       1.0  0.20508  0.28264  0.15419  1.0000
  S   S4        1.0  0.20516  0.24773  0.16532  1.0000
  S   S5        1.0  0.17381  0.30457  0.14990  1.0000
  Fe  Fe4       1.0  0.22487  0.24818  0.18761  1.0000
  H   H1        1.0  0.26754  0.21477  0.20656  1.0000
  Fe  Fe5       1.0  0.23614  0.24385  0.14220  1.0000
  S   S6        1.0  0.24240  0.22334  0.11883  1.0000
  S   S7        1.0  0.22175  0.28340  0.17895  1.0000
  S   S8        1.0  0.23486  0.27883  0.12942  1.0000
  H   H2        1.0  0.19080  0.27697  0.11335  1.0000
  Fe  Fe6       1.0  0.12895  0.37164  0.05340  1.0000
  S   S9        1.0  0.10024  0.37485  0.07936  1.0000
  S   S10       1.0  0.16230  0.36015  0.05927  1.0000
  Fe  Fe7       1.0  0.08607  0.36035  0.06111  1.0000
  S   S11       1.0  0.07126  0.33242  0.07908  1.0000
  Fe  Fe8       1.0  0.08908  0.40569  0.05820  1.0000
  S   S12       1.0  0.07385  0.43546  0.07022  1.0000
  S   S13       1.0  0.11569  0.35493  0.03645  1.0000
  H   H3        1.0  0.11668  0.31740  0.07560  1.0000
  N   N1        1.0  0.07985  0.46909  0.00526  1.0000
  H   H4        1.0  0.16383  0.43056  0.10713  1.0000
  S   S14       1.0  0.99588  0.34179  0.98964  1.0000
  H   H5        1.0  0.09657  0.44039  0.99597  1.0000
  S   S15       1.0  0.11891  0.40386  0.03336  1.0000
  C   C1        1.0  0.43462  0.10976  0.09240  1.0000
  C   C2        1.0  0.33246  0.14944  0.21991  1.0000
  Fe  Fe9       1.0  0.43076  0.01342  0.05883  1.0000
  S   S16       1.0  0.46118  0.02087  0.03718  1.0000
  S   S17       1.0  0.40069  0.03760  0.06510  1.0000
  H   H6        1.0  0.18256  0.40064  0.09352  1.0000
  H   H7        1.0  0.05628  0.34846  0.99842  1.0000
  H   H8        1.0  0.06922  0.47400  0.08399  1.0000
  C   C3        1.0  0.02961  0.47743  0.05383  1.0000
  H   H9        1.0  0.10665  0.29891  0.11292  1.0000
  N   N2        1.0  0.02632  0.46456  0.04082  1.0000
  S   S18       1.0  0.39358  0.09230  0.13109  1.0000
  H   H10       1.0  0.07121  0.30605  0.99414  1.0000
  H   H11       1.0  0.35402  0.04268  0.14947  1.0000
  H   H12       1.0  0.29039  0.27339  0.11680  1.0000
  H   H13       1.0  0.01750  0.46871  0.99216  1.0000
  H   H14       1.0  0.41845  0.11014  0.09167  1.0000
  C   C4        1.0  0.44771  0.09355  0.06134  1.0000
  H   H15       1.0  0.39959  0.00432  0.10974  1.0000
  C   C5        1.0  0.28886  0.24447  0.10930  1.0000
  C   C6        1.0  0.37963  0.04362  0.17384  1.0000
  H   H16       1.0  0.13800  0.47921  0.99963  1.0000
  Fe  Fe10      1.0  0.33254  0.09220  0.19102  1.0000
  H   H17       1.0  0.38312  0.05983  0.16770  1.0000
  S   S19       1.0  0.31561  0.27301  0.23499  1.0000
  H   H18       1.0  0.09972  0.45417  0.02761  1.0000
  C   C7        1.0  0.02786  0.30994  0.05059  1.0000
  S   S20       1.0  0.30811  0.12238  0.18701  1.0000
  C   C8        1.0  0.22557  0.17498  0.21124  1.0000
  C   C9        1.0  0.30839  0.24580  0.13445  1.0000
  C   C10       1.0  0.29552  0.25623  0.11977  1.0000
  C   C11       1.0  0.29266  0.26398  0.21052  1.0000
  S   S21       1.0  0.36003  0.10867  0.18078  1.0000
  C   C12       1.0  0.09266  0.44828  0.07289  1.0000
  C   C13       1.0  0.11435  0.43986  0.06756  1.0000
  C   C14       1.0  0.12933  0.45080  0.06844  1.0000
  H   H19       1.0  0.36308  0.02448  0.11970  1.0000
  H   H20       1.0  0.29300  0.20085  0.19457  1.0000
  C   C15       1.0  0.08598  0.46742  0.07971  1.0000
  H   H21       1.0  0.11969  0.42482  0.06295  1.0000
  H   H22       1.0  0.14609  0.44436  0.06401  1.0000
  H   H23       1.0  0.09638  0.44091  0.12874  1.0000
  S   S22       1.0  0.22192  0.23261  0.22192  1.0000
  C   C16       1.0  0.05475  0.32432  0.06740  1.0000
  C   C17       1.0  0.05115  0.30361  0.07504  1.0000
  C   C18       1.0  0.03802  0.29637  0.06647  1.0000
  C   C19       1.0  0.10099  0.47824  0.08091  1.0000
  C   C20       1.0  0.03119  0.33083  0.04294  1.0000
  C   C21       1.0  0.04492  0.33794  0.05117  1.0000
  H   H24       1.0  0.05864  0.29305  0.08759  1.0000
  C   C22       1.0  0.32769  0.18647  0.23414  1.0000
  H   H25       1.0  0.01962  0.42987  0.00616  1.0000
  H   H26       1.0  0.04759  0.35400  0.04525  1.0000
  C   C23       1.0  0.17122  0.32062  0.12484  1.0000
  C   C24       1.0  0.15085  0.33035  0.12118  1.0000
  C   C25       1.0  0.14801  0.34235  0.10110  1.0000
  C   C26       1.0  0.16553  0.34514  0.08463  1.0000
  C   C27       1.0  0.18599  0.33575  0.08837  1.0000
  C   C28       1.0  0.18884  0.32338  0.10842  1.0000
  H   H27       1.0  0.13717  0.32818  0.13381  1.0000
  H   H28       1.0  0.13222  0.34911  0.09842  1.0000
  H   H29       1.0  0.19965  0.33791  0.07571  1.0000
  H   H30       1.0  0.20464  0.31612  0.11117  1.0000
  H   H31       1.0  0.32146  0.30283  0.19586  1.0000
  C   C29       1.0  0.36992  0.03354  0.14552  1.0000
  H   H32       1.0  0.42903  0.00941  0.00052  1.0000
  C   C30       1.0  0.39544  0.01189  0.12312  1.0000
  S   S23       1.0  0.33409  0.17059  0.17863  1.0000
  H   H33       1.0  0.22629  0.20661  0.19241  1.0000
  C   C31       1.0  0.12269  0.47002  0.07507  1.0000
  C   C32       1.0  0.12327  0.29723  0.10513  1.0000
  C   C33       1.0  0.39532  0.07704  0.11289  1.0000
  C   C34       1.0  0.41489  0.06436  0.10587  1.0000
  C   C35       1.0  0.41679  0.05238  0.09095  1.0000
  C   C36       1.0  0.39913  0.05317  0.08295  1.0000
  C   C37       1.0  0.37965  0.06604  0.08981  1.0000
  C   C38       1.0  0.37769  0.07786  0.10488  1.0000
  H   H34       1.0  0.42856  0.06366  0.11208  1.0000
  H   H35       1.0  0.43185  0.04242  0.08574  1.0000
  H   H36       1.0  0.36598  0.06671  0.08358  1.0000
  H   H37       1.0  0.18149  0.25371  0.11356  1.0000
  C   C39       1.0  0.27189  0.15259  0.13516  1.0000
  C   C40       1.0  0.27139  0.16558  0.14868  1.0000
  C   C41       1.0  0.26163  0.18727  0.14437  1.0000
  C   C42       1.0  0.25278  0.19598  0.12631  1.0000
  C   C43       1.0  0.25323  0.18289  0.11299  1.0000
  C   C44       1.0  0.26247  0.16125  0.11756  1.0000
  H   H38       1.0  0.27841  0.15890  0.16247  1.0000
  H   H39       1.0  0.26124  0.19731  0.15474  1.0000
  H   H40       1.0  0.24645  0.18951  0.09901  1.0000
  H   H41       1.0  0.26272  0.15129  0.10712  1.0000
  Fe  Fe11      1.0  0.33591  0.13841  0.17324  1.0000
  H   H42       1.0  0.27826  0.25231  0.09840  1.0000
  C   C45       1.0  0.28401  0.26856  0.19233  1.0000
  C   C46       1.0  0.28907  0.28539  0.17541  1.0000
  C   C47       1.0  0.30283  0.29743  0.17671  1.0000
  C   C48       1.0  0.31114  0.29311  0.19492  1.0000
  H   H43       1.0  0.03555  0.28023  0.07240  1.0000
  H   H44       1.0  0.27331  0.25923  0.19151  1.0000
  H   H45       1.0  0.30684  0.31040  0.16369  1.0000
  C   C49       1.0  0.33246  0.16896  0.20545  1.0000
  H   H46       1.0  0.45587  0.07658  0.06290  1.0000
  N   N3        1.0  0.30840  0.21230  0.12754  1.0000
  C   C50       1.0  0.29554  0.22238  0.11335  1.0000
  C   C51       1.0  0.31463  0.22364  0.13825  1.0000
  C   C52       1.0  0.31514  0.18915  0.13188  1.0000
  H   H47       1.0  0.29008  0.21337  0.10527  1.0000
  H   H48       1.0  0.32446  0.21552  0.14986  1.0000
  H   H49       1.0  0.31113  0.18199  0.12060  1.0000
  H   H50       1.0  0.33258  0.18455  0.13085  1.0000
  H   H51       1.0  0.30722  0.18222  0.14809  1.0000
  H   H52       1.0  0.33046  0.20254  0.20135  1.0000
  C   C53       1.0  0.43812  0.11678  0.10884  1.0000
  H   H53       1.0  0.48478  0.09674  0.06665  1.0000
  H   H54       1.0  0.07640  0.36879  0.00898  1.0000
  H   H55       1.0  0.02085  0.47312  0.07040  1.0000
  H   H56       1.0  0.28857  0.25117  0.22360  1.0000
  C   C54       1.0  0.16843  0.39394  0.09520  1.0000
  C   C55       1.0  0.28558  0.06600  0.20231  1.0000
  H   H57       1.0  0.22776  0.16808  0.19777  1.0000
  C   C56       1.0  0.27450  0.08480  0.19147  1.0000
  H   H58       1.0  0.30124  0.05863  0.19490  1.0000
  S   S24       1.0  0.33459  0.08648  0.15910  1.0000
  Fe  Fe12      1.0  0.36081  0.10469  0.14846  1.0000
  H   H59       1.0  0.17104  0.37746  0.10491  1.0000
  Fe  Fe13      1.0  0.10246  0.38754  0.01931  1.0000
  C   C57       1.0  0.24430  0.11475  0.18964  1.0000
  H   H60       1.0  0.23856  0.30213  0.20569  1.0000
  H   H61       1.0  0.36257  0.04503  0.18160  1.0000
  H   H62       1.0  0.13059  0.45232  0.12269  1.0000
  C   C58       1.0  0.33030  0.18744  0.21253  1.0000
  C   C59       1.0  0.37488  0.02319  0.12876  1.0000
  C   C60       1.0  0.02283  0.47373  0.02081  1.0000
  C   C61       1.0  0.47161  0.10218  0.07853  1.0000
  C   C62       1.0  0.22196  0.20568  0.22562  1.0000
  S   S25       1.0  0.22488  0.13497  0.23542  1.0000
  C   C63       1.0  0.22472  0.19677  0.20821  1.0000
  C   C64       1.0  0.22336  0.16222  0.23169  1.0000
  C   C65       1.0  0.30603  0.27650  0.21192  1.0000
  C   C66       1.0  0.11114  0.43099  0.12263  1.0000
  H   H63       1.0  0.41747  0.02157  0.15895  1.0000
  H   H64       1.0  0.03032  0.43593  0.06443  1.0000
  H   H65       1.0  0.02551  0.41361  0.04264  1.0000
  C   C67       1.0  0.15025  0.30566  0.07418  1.0000
  H   H66       1.0  0.05522  0.28794  0.01250  1.0000
  C   C68       1.0  0.05563  0.30121  0.99832  1.0000
  H   H67       1.0  0.31317  0.25485  0.14303  1.0000
  C   C69       1.0  0.25686  0.06714  0.23268  1.0000
  H   H68       1.0  0.18234  0.29196  0.07778  1.0000
  H   H69       1.0  0.28165  0.09171  0.17545  1.0000
  S   S26       1.0  0.14164  0.48323  0.07665  1.0000
  N   N4        1.0  0.14882  0.40666  0.10505  1.0000
  H   H70       1.0  0.12982  0.38594  0.10378  1.0000
  H   H71       1.0  0.15478  0.31422  0.05801  1.0000
  C   C70       1.0  0.07996  0.44892  0.00039  1.0000
  S   S27       1.0  0.33921  0.13613  0.13982  1.0000
  H   H72       1.0  0.46181  0.12156  0.12278  1.0000
  C   C71       1.0  0.13919  0.28488  0.11601  1.0000
  C   C72       1.0  0.11097  0.41229  0.11718  1.0000
  C   C73       1.0  0.09076  0.46895  0.02000  1.0000
  C   C74       1.0  0.12889  0.30764  0.08410  1.0000
  H   H73       1.0  0.13471  0.27700  0.13243  1.0000
  H   H74       1.0  0.17107  0.26763  0.13494  1.0000
  C   C75       1.0  0.17664  0.26962  0.11752  1.0000
  C   C76       1.0  0.02523  0.43042  0.03618  1.0000
  H   H75       1.0  0.07167  0.43872  0.01440  1.0000
  C   C77       1.0  0.40533  0.02178  0.15077  1.0000
  S   S28       1.0  0.07164  0.39173  0.04262  1.0000
  C   C78       1.0  0.16575  0.29316  0.08550  1.0000
  H   H76       1.0  0.22701  0.11817  0.19648  1.0000
  N   N5        1.0  0.16012  0.28308  0.10618  1.0000
  H   H77       1.0  0.36261  0.08779  0.11007  1.0000
  C   C79       1.0  0.13009  0.40023  0.10839  1.0000
  C   C80       1.0  0.14915  0.42497  0.11040  1.0000
  H   H78       1.0  0.16730  0.39327  0.07913  1.0000
  C   C81       1.0  0.06894  0.48782  0.99526  1.0000
  C   C82       1.0  0.02190  0.43958  0.01570  1.0000
  H   H79       1.0  0.42479  0.12217  0.12076  1.0000
  H   H80       1.0  0.09605  0.40753  0.11910  1.0000
  H   H81       1.0  0.25114  0.12790  0.19062  1.0000
  H   H82       1.0  0.02341  0.34138  0.03059  1.0000
  S   S29       1.0  0.33333  0.06300  0.21715  1.0000
  H   H83       1.0  0.24619  0.11469  0.17268  1.0000
  H   H84       1.0  0.33416  0.13511  0.21451  1.0000
  C   C83       1.0  0.13035  0.43733  0.11935  1.0000
  C   C84       1.0  0.45885  0.11635  0.11001  1.0000
  N   N6        1.0  0.25503  0.09447  0.20099  1.0000
  N   N7        1.0  0.27576  0.18185  0.22048  1.0000
  H   H85       1.0  0.26870  0.19716  0.19018  1.0000
  H   H86       1.0  0.27707  0.15929  0.20273  1.0000
  C   C85       1.0  0.41083  0.01121  0.13412  1.0000
  Fe  Fe14      1.0  0.47660  0.99688  0.06229  1.0000
  C   C86       1.0  0.27693  0.16188  0.21803  1.0000
  C   C87       1.0  0.07729  0.37002  0.99240  1.0000
  C   C88       1.0  0.27632  0.19955  0.20201  1.0000
  C   C89       1.0  0.27668  0.05715  0.22304  1.0000
  C   C90       1.0  0.02762  0.44319  0.04853  1.0000
  H   H87       1.0  0.45398  0.10264  0.04541  1.0000
  C   C91       1.0  0.47574  0.10914  0.09465  1.0000
  H   H88       1.0  0.28543  0.04295  0.23186  1.0000
  H   H89       1.0  0.10020  0.48778  0.03623  1.0000
  S   S30       1.0  0.44620  0.99193  0.08507  1.0000
  N   N8        1.0  0.45130  0.10215  0.07778  1.0000
  C   C92       1.0  0.24059  0.29434  0.22169  1.0000
  Fe  Fe15      1.0  0.46153  0.99258  0.02493  1.0000
  C   C93       1.0  0.02061  0.46139  0.00792  1.0000
  H   H90       1.0  0.23089  0.09369  0.22909  1.0000
  C   C94       1.0  0.24619  0.08592  0.22137  1.0000
  H   H91       1.0  0.29580  0.09395  0.22962  1.0000
  H   H92       1.0  0.43057  0.09419  0.06261  1.0000
  H   H93       1.0  0.04675  0.47477  0.05386  1.0000
  N   N9        1.0  0.38499  0.03243  0.15651  1.0000
  H   H94       1.0  0.38879  0.03500  0.18637  1.0000
  H   H95       1.0  0.21773  0.27491  0.22707  1.0000
  S   S31       1.0  0.01171  0.29978  0.04038  1.0000
  H   H96       1.0  0.04347  0.31520  0.00237  1.0000
  C   C95       1.0  0.09097  0.48788  0.02504  1.0000
  H   H97       1.0  0.27863  0.12879  0.23327  1.0000
  H   H98       1.0  0.26496  0.31072  0.22056  1.0000
  C   C96       1.0  0.27795  0.14454  0.23521  1.0000
  C   C97       1.0  0.25537  0.29924  0.23006  1.0000
  C   C98       1.0  0.22897  0.27885  0.23382  1.0000
  H   H99       1.0  0.42700  0.00293  0.12945  1.0000
  H   H100      1.0  0.01881  0.29484  0.99578  1.0000
  H   H101      1.0  0.49027  0.03842  0.04962  1.0000
  Fe  Fe16      1.0  0.30828  0.24613  0.26236  1.0000
  S   S32       1.0  0.33516  0.22137  0.27372  1.0000
  N   N10       1.0  0.38527  0.43699  0.45747  1.0000
  Fe  Fe17      1.0  0.27562  0.22918  0.29931  1.0000
  S   S33       1.0  0.29963  0.20351  0.31428  1.0000
  S   S34       1.0  0.24103  0.23309  0.31389  1.0000
  Fe  Fe18      1.0  0.31945  0.22841  0.30564  1.0000
  S   S35       1.0  0.34043  0.22997  0.32657  1.0000
  Fe  Fe19      1.0  0.31300  0.19905  0.28122  1.0000
  S   S36       1.0  0.32201  0.16603  0.27580  1.0000
  S   S37       1.0  0.29394  0.25476  0.29380  1.0000
  S   S38       1.0  0.28743  0.22310  0.26673  1.0000
  H   H102      1.0  0.37829  0.43381  0.36844  1.0000
  S   S39       1.0  0.05485  0.02698  0.48777  1.0000
  C   C99       1.0  0.02666  0.00104  0.40149  1.0000
  C   C100      1.0  0.25842  0.28862  0.25035  1.0000
  C   C101      1.0  0.39005  0.41537  0.42589  1.0000
  C   C102      1.0  0.43432  0.39854  0.36934  1.0000
  C   C103      1.0  0.21989  0.19291  0.24603  1.0000
  H   H103      1.0  0.48036  0.39475  0.40724  1.0000
  C   C104      1.0  0.15895  0.12237  0.35971  1.0000
  H   H104      1.0  0.41917  0.36086  0.45054  1.0000
  Fe  Fe20      1.0  0.24034  0.08859  0.30250  1.0000
  S   S40       1.0  0.22087  0.08562  0.28125  1.0000
  S   S41       1.0  0.27133  0.06650  0.30564  1.0000
  Fe  Fe21      1.0  0.21072  0.12810  0.31425  1.0000
  S   S42       1.0  0.18882  0.12895  0.29354  1.0000
  S   S43       1.0  0.20298  0.15037  0.33615  1.0000
  Fe  Fe22      1.0  0.19297  0.09376  0.30693  1.0000
  S   S44       1.0  0.16402  0.07909  0.31546  1.0000
  Fe  Fe23      1.0  0.21868  0.12070  0.27013  1.0000
  H   H105      1.0  0.21851  0.16150  0.26491  1.0000
  S   S45       1.0  0.21282  0.09352  0.32940  1.0000
  S   S46       1.0  0.24019  0.12312  0.28967  1.0000
  Fe  Fe24      1.0  0.37255  0.32334  0.35032  1.0000
  S   S47       1.0  0.39397  0.29722  0.36864  1.0000
  S   S48       1.0  0.34928  0.32016  0.33267  1.0000
  Fe  Fe25      1.0  0.38536  0.35851  0.36219  1.0000
  S   S49       1.0  0.40782  0.33562  0.38138  1.0000
  S   S50       1.0  0.37808  0.39368  0.36053  1.0000
  Fe  Fe26      1.0  0.41757  0.31858  0.35487  1.0000
  S   S51       1.0  0.45253  0.30611  0.34605  1.0000
  Fe  Fe27      1.0  0.38256  0.31644  0.39359  1.0000
  S   S52       1.0  0.37676  0.30221  0.42840  1.0000
  S   S53       1.0  0.39725  0.34321  0.33422  1.0000
  S   S54       1.0  0.35894  0.34072  0.37670  1.0000
  Fe  Fe28      1.0  0.06180  0.02357  0.41322  1.0000
  H   H106      1.0  0.09983  0.00914  0.48541  1.0000
  Fe  Fe29      1.0  0.10661  0.01772  0.41911  1.0000
  H   H107      1.0  0.35607  0.41918  0.43400  1.0000
  S   S55       1.0  0.13841  0.02727  0.40906  1.0000
  H   H108      1.0  0.47765  0.35890  0.38781  1.0000
  H   H109      1.0  0.30430  0.30433  0.36715  1.0000
  Fe  Fe30      1.0  0.07023  0.01698  0.45705  1.0000
  H   H110      1.0  0.41712  0.34467  0.42198  1.0000
  H   H111      1.0  0.38687  0.27393  0.28587  1.0000
  S   S56       1.0  0.07686  0.04146  0.42727  1.0000
  H   H112      1.0  0.21772  0.19979  0.25951  1.0000
  C   C105      1.0  0.49033  0.45222  0.33841  1.0000
  C   C106      1.0  0.48554  0.32161  0.34932  1.0000
  C   C107      1.0  0.27821  0.14769  0.25483  1.0000
  C   C108      1.0  0.36777  0.43334  0.45303  1.0000
  C   C109      1.0  0.36275  0.26158  0.26741  1.0000
  N   N11       1.0  0.11004  0.06010  0.46885  1.0000
  C   C110      1.0  0.44756  0.35038  0.40322  1.0000
  H   H113      1.0  0.47196  0.42634  0.31290  1.0000
  S   S57       1.0  0.10102  0.99432  0.45014  1.0000
  H   H114      1.0  0.44678  0.34357  0.39051  1.0000
  C   C111      1.0  0.08863  0.06774  0.47127  1.0000
  H   H115      1.0  0.16155  0.14684  0.33123  1.0000
  H   H116      1.0  0.17135  0.12597  0.36516  1.0000
  C   C112      1.0  0.38266  0.44892  0.47371  1.0000
  H   H117      1.0  0.38464  0.33053  0.48583  1.0000
  C   C113      1.0  0.46533  0.32644  0.34461  1.0000
  N   N12       1.0  0.46608  0.36781  0.41766  1.0000
  C   C114      1.0  0.45578  0.34758  0.33759  1.0000
  H   H118      1.0  0.40618  0.44734  0.37628  1.0000
  H   H119      1.0  0.44017  0.35140  0.33395  1.0000
  C   C115      1.0  0.37594  0.32245  0.44088  1.0000
  C   C116      1.0  0.37086  0.34364  0.43033  1.0000
  H   H120      1.0  0.36700  0.34753  0.41489  1.0000
  C   C117      1.0  0.39823  0.40339  0.36507  1.0000
  C   C118      1.0  0.41852  0.39080  0.36519  1.0000
  H   H121      1.0  0.42209  0.37523  0.36174  1.0000
  C   C119      1.0  0.15812  0.06285  0.34085  1.0000
  C   C120      1.0  0.17118  0.05873  0.35537  1.0000
  C   C121      1.0  0.16513  0.04747  0.37616  1.0000
  C   C122      1.0  0.14599  0.04023  0.38256  1.0000
  C   C123      1.0  0.13305  0.04399  0.36798  1.0000
  C   C124      1.0  0.13920  0.05516  0.34712  1.0000
  H   H122      1.0  0.18589  0.06429  0.35067  1.0000
  H   H123      1.0  0.17529  0.04441  0.38733  1.0000
  H   H124      1.0  0.11831  0.03835  0.37276  1.0000
  H   H125      1.0  0.12913  0.05808  0.33590  1.0000
  N   N13       1.0  0.23191  0.26866  0.25381  1.0000
  C   C125      1.0  0.12074  0.06121  0.48328  1.0000
  H   H126      1.0  0.47267  0.44600  0.46942  1.0000
  C   C126      1.0  0.26819  0.11059  0.32958  1.0000
  C   C127      1.0  0.28481  0.08240  0.26308  1.0000
  C   C128      1.0  0.28871  0.06649  0.28098  1.0000
  C   C129      1.0  0.30664  0.05020  0.27922  1.0000
  C   C130      1.0  0.46507  0.35899  0.40184  1.0000
  H   H127      1.0  0.32985  0.13336  0.25271  1.0000
  H   H128      1.0  0.27084  0.09487  0.26425  1.0000
  H   H129      1.0  0.30969  0.03785  0.29297  1.0000
  H   H130      1.0  0.04185  0.99444  0.40599  1.0000
  C   C131      1.0  0.34294  0.25509  0.32804  1.0000
  C   C132      1.0  0.35938  0.25669  0.33666  1.0000
  C   C133      1.0  0.36159  0.27659  0.33816  1.0000
  C   C134      1.0  0.34717  0.29491  0.33124  1.0000
  C   C135      1.0  0.33072  0.29329  0.32267  1.0000
  C   C136      1.0  0.32867  0.27345  0.32097  1.0000
  H   H131      1.0  0.37050  0.24250  0.34211  1.0000
  H   H132      1.0  0.37440  0.27773  0.34465  1.0000
  H   H133      1.0  0.31952  0.30744  0.31731  1.0000
  H   H134      1.0  0.31585  0.27238  0.31450  1.0000
  H   H135      1.0  0.31466  0.12481  0.30160  1.0000
  C   C137      1.0  0.15351  0.13406  0.34058  1.0000
  S   S58       1.0  0.40974  0.47381  0.40698  1.0000
  S   S59       1.0  0.37482  0.37653  0.47078  1.0000
  C   C138      1.0  0.42982  0.41872  0.37377  1.0000
  C   C139      1.0  0.37538  0.35535  0.45981  1.0000
  H   H136      1.0  0.36617  0.37637  0.43162  1.0000
  H   H137      1.0  0.21404  0.25386  0.28279  1.0000
  C   C140      1.0  0.36989  0.42258  0.43712  1.0000
  C   C141      1.0  0.13811  0.12876  0.33327  1.0000
  C   C142      1.0  0.23032  0.21040  0.31847  1.0000
  C   C143      1.0  0.23899  0.19499  0.30624  1.0000
  C   C144      1.0  0.23020  0.17674  0.31082  1.0000
  C   C145      1.0  0.21307  0.17383  0.32790  1.0000
  C   C146      1.0  0.20445  0.18937  0.33986  1.0000
  C   C147      1.0  0.21284  0.20769  0.33499  1.0000
  H   H138      1.0  0.25238  0.19715  0.29331  1.0000
  H   H139      1.0  0.23691  0.16482  0.30148  1.0000
  H   H140      1.0  0.19126  0.18720  0.35307  1.0000
  H   H141      1.0  0.20606  0.21957  0.34443  1.0000
  N   N14       1.0  0.12798  0.11266  0.34502  1.0000
  C   C148      1.0  0.13295  0.10136  0.36402  1.0000
  H   H142      1.0  0.37962  0.25428  0.26210  1.0000
  C   C149      1.0  0.40507  0.43052  0.44611  1.0000
  C   C150      1.0  0.43092  0.35108  0.42081  1.0000
  H   H143      1.0  0.35402  0.33879  0.28085  1.0000
  C   C151      1.0  0.11212  0.10735  0.33675  1.0000
  C   C152      1.0  0.32038  0.04946  0.25959  1.0000
  C   C153      1.0  0.24647  0.27330  0.26208  1.0000
  C   C154      1.0  0.02038  0.02301  0.39466  1.0000
  C   C155      1.0  0.14866  0.10587  0.37154  1.0000
  H   H144      1.0  0.11424  0.05639  0.43729  1.0000
  H   H145      1.0  0.39189  0.40656  0.41387  1.0000
  S   S60       1.0  0.44947  0.42724  0.38056  1.0000
  H   H146      1.0  0.32888  0.33180  0.26294  1.0000
  S   S61       1.0  0.09230  0.00194  0.40217  1.0000
  C   C156      1.0  0.37457  0.28677  0.28014  1.0000
  H   H147      1.0  0.45960  0.38008  0.32818  1.0000
  C   C157      1.0  0.34447  0.29894  0.26412  1.0000
  H   H148      1.0  0.42345  0.41424  0.42137  1.0000
  C   C158      1.0  0.37266  0.30699  0.28359  1.0000
  H   H149      1.0  0.10455  0.09452  0.34808  1.0000
  C   C159      1.0  0.39393  0.42392  0.36876  1.0000
  S   S62       1.0  0.03654  0.04018  0.39445  1.0000
  H   H150      1.0  0.24903  0.26504  0.27778  1.0000
  C   C160      1.0  0.34196  0.31931  0.26754  1.0000
  C   C161      1.0  0.00079  0.03136  0.38855  1.0000
  H   H151      1.0  0.37975  0.46624  0.46670  1.0000
  C   C162      1.0  0.46683  0.36380  0.33428  1.0000
  C   C163      1.0  0.22044  0.17120  0.24908  1.0000
  H   H152      1.0  0.45010  0.38894  0.36890  1.0000
  H   H153      1.0  0.33320  0.29585  0.25672  1.0000
  H   H154      1.0  0.27036  0.29186  0.25674  1.0000
  H   H155      1.0  0.47853  0.32932  0.29438  1.0000
  Fe  Fe31      1.0  0.43946  0.46029  0.38621  1.0000
  H   H156      1.0  0.45058  0.37566  0.44750  1.0000
  H   H157      1.0  0.45262  0.41786  0.48537  1.0000
  H   H158      1.0  0.09947  0.12153  0.33331  1.0000
  C   C164      1.0  0.25981  0.12794  0.33927  1.0000
  H   H159      1.0  0.15313  0.09631  0.38618  1.0000
  H   H160      1.0  0.35405  0.26162  0.25528  1.0000
  H   H161      1.0  0.07991  0.06576  0.46056  1.0000
  H   H162      1.0  0.12534  0.08823  0.37314  1.0000
  C   C165      1.0  0.31661  0.06534  0.24172  1.0000
  H   H163      1.0  0.45728  0.44250  0.33147  1.0000
  H   H164      1.0  0.38491  0.30128  0.46910  1.0000
  S   S63       1.0  0.42731  0.47466  0.45676  1.0000
  C   C166      1.0  0.07747  0.07735  0.48814  1.0000
  H   H165      1.0  0.24431  0.12876  0.34973  1.0000
  H   H166      1.0  0.12037  0.03222  0.45652  1.0000
  H   H167      1.0  0.23082  0.23611  0.26628  1.0000
  C   C167      1.0  0.37038  0.36002  0.43985  1.0000
  H   H168      1.0  0.25939  0.09809  0.33260  1.0000
  H   H169      1.0  0.29465  0.09608  0.30829  1.0000
  C   C168      1.0  0.40778  0.41943  0.43031  1.0000
  C   C169      1.0  0.43868  0.48963  0.46698  1.0000
  H   H170      1.0  0.13825  0.05045  0.44678  1.0000
  H   H171      1.0  0.27682  0.17077  0.27248  1.0000
  S   S64       1.0  0.05243  0.00125  0.44384  1.0000
  C   C170      1.0  0.40970  0.43159  0.37318  1.0000
  H   H172      1.0  0.33396  0.03652  0.25827  1.0000
  C   C171      1.0  0.47197  0.43052  0.32783  1.0000
  C   C172      1.0  0.27647  0.16818  0.25732  1.0000
  C   C173      1.0  0.12126  0.04930  0.45158  1.0000
  N   N15       1.0  0.27099  0.14361  0.33557  1.0000
  C   C174      1.0  0.29049  0.14252  0.32232  1.0000
  C   C175      1.0  0.22020  0.25197  0.26619  1.0000
  H   H173      1.0  0.28008  0.13425  0.26800  1.0000
  H   H174      1.0  0.35624  0.25149  0.28265  1.0000
  S   S65       1.0  0.46134  0.46755  0.40228  1.0000
  C   C176      1.0  0.26275  0.16100  0.34684  1.0000
  H   H175      1.0  0.29950  0.15480  0.31953  1.0000
  C   C177      1.0  0.29896  0.08198  0.24350  1.0000
  H   H176      1.0  0.25002  0.06061  0.24897  1.0000
  C   C178      1.0  0.38087  0.31767  0.46096  1.0000
  H   H177      1.0  0.11989  0.10159  0.32195  1.0000
  H   H178      1.0  0.26583  0.17633  0.33619  1.0000
  H   H179      1.0  0.24529  0.16313  0.35271  1.0000
  H   H180      1.0  0.27049  0.15775  0.36051  1.0000
  N   N16       1.0  0.34339  0.27383  0.40403  1.0000
  C   C179      1.0  0.33601  0.29522  0.40233  1.0000
  C   C180      1.0  0.33698  0.26316  0.39277  1.0000
  C   C181      1.0  0.32172  0.30646  0.38919  1.0000
  C   C182      1.0  0.32240  0.27384  0.37979  1.0000
  C   C183      1.0  0.31487  0.29566  0.37789  1.0000
  C   C184      1.0  0.35903  0.26265  0.41724  1.0000
  H   H181      1.0  0.34137  0.30376  0.41096  1.0000
  H   H182      1.0  0.34330  0.24635  0.39352  1.0000
  H   H183      1.0  0.31639  0.32353  0.38737  1.0000
  H   H184      1.0  0.31760  0.26541  0.37060  1.0000
  H   H185      1.0  0.37485  0.26638  0.40902  1.0000
  H   H186      1.0  0.35453  0.26783  0.43252  1.0000
  H   H187      1.0  0.36035  0.24516  0.42095  1.0000
  C   C185      1.0  0.35615  0.32330  0.27738  1.0000
  H   H188      1.0  0.47579  0.45725  0.34915  1.0000
  C   C186      1.0  0.33007  0.14844  0.24152  1.0000
  C   C187      1.0  0.38082  0.33416  0.47036  1.0000
  H   H189      1.0  0.13458  0.13736  0.31796  1.0000
  C   C188      1.0  0.29921  0.12553  0.31219  1.0000
  C   C189      1.0  0.32741  0.16700  0.24865  1.0000
  H   H190      1.0  0.38323  0.30979  0.29201  1.0000
  Fe  Fe32      1.0  0.43173  0.48334  0.42134  1.0000
  H   H191      1.0  0.20642  0.25232  0.25955  1.0000
  C   C190      1.0  0.28798  0.10946  0.31591  1.0000
  C   C191      1.0  0.44985  0.36856  0.43498  1.0000
  H   H192      1.0  0.99586  0.00809  0.33662  1.0000
  C   C192      1.0  0.43205  0.36020  0.43682  1.0000
  N   N17       1.0  0.36074  0.28305  0.27026  1.0000
  H   H193      1.0  0.02948  0.99562  0.34998  1.0000
  H   H194      1.0  0.41886  0.43402  0.44920  1.0000
  H   H195      1.0  0.35207  0.43848  0.46200  1.0000
  H   H196      1.0  0.47135  0.41604  0.34069  1.0000
  H   H197      1.0  0.39706  0.44481  0.48061  1.0000
  S   S66       1.0  0.43944  0.49000  0.36080  1.0000
  H   H198      1.0  0.13747  0.05411  0.48208  1.0000
  H   H199      1.0  0.99588  0.04835  0.38323  1.0000
  C   C193      1.0  0.48727  0.35897  0.33834  1.0000
  C   C194      1.0  0.47379  0.44626  0.48519  1.0000
  C   C195      1.0  0.99719  0.03070  0.44944  1.0000
  H   H200      1.0  0.01646  0.02102  0.47295  1.0000
  C   C196      1.0  0.48401  0.37776  0.41539  1.0000
  H   H201      1.0  0.27449  0.20101  0.24166  1.0000
  C   C197      1.0  0.27534  0.18519  0.23982  1.0000
  H   H202      1.0  0.32587  0.20082  0.23955  1.0000
  H   H203      1.0  0.36937  0.44512  0.48712  1.0000
  C   C198      1.0  0.00235  0.03151  0.46813  1.0000
  H   H204      1.0  0.00709  0.01967  0.43987  1.0000
  C   C199      1.0  0.99363  0.99583  0.39648  1.0000
  H   H205      1.0  0.48752  0.37664  0.43104  1.0000
  S   S67       1.0  0.46772  0.37018  0.48738  1.0000
  C   C200      1.0  0.48694  0.45846  0.48752  1.0000
  C   C201      1.0  0.00128  0.99132  0.34289  1.0000
  S   S68       1.0  0.43707  0.45855  0.58083  1.0000
  Fe  Fe33      1.0  0.40077  0.34931  0.54058  1.0000
  S   S69       1.0  0.41641  0.34276  0.50821  1.0000
  S   S70       1.0  0.39581  0.32303  0.56962  1.0000
  Fe  Fe34      1.0  0.39608  0.39695  0.52578  1.0000
  H   H206      1.0  0.08993  0.19542  0.72723  1.0000
  S   S71       1.0  0.38635  0.43105  0.52844  1.0000
  H   H207      1.0  0.16399  0.01831  0.67130  1.0000
  H   H208      1.0  0.11842  0.07069  0.51230  1.0000
  Fe  Fe35      1.0  0.43477  0.36752  0.50598  1.0000
  C   C202      1.0  0.23144  0.17397  0.70003  1.0000
  S   S72       1.0  0.37402  0.37509  0.53003  1.0000
  S   S73       1.0  0.42149  0.37182  0.53920  1.0000
  C   C203      1.0  0.39887  0.24711  0.59439  1.0000
  C   C204      1.0  0.02339  0.02802  0.57090  1.0000
  H   H209      1.0  0.23925  0.10396  0.70439  1.0000
  H   H210      1.0  0.35470  0.11579  0.67486  1.0000
  C   C205      1.0  0.40188  0.28078  0.53941  1.0000
  H   H211      1.0  0.45241  0.42864  0.53611  1.0000
  C   C206      1.0  0.38238  0.23700  0.59609  1.0000
  C   C207      1.0  0.44661  0.42446  0.49982  1.0000
  C   C208      1.0  0.33058  0.15050  0.65517  1.0000
  H   H212      1.0  0.07148  0.07146  0.66418  1.0000
  H   H213      1.0  0.38820  0.28992  0.53198  1.0000
  C   C209      1.0  0.31331  0.09104  0.68614  1.0000
  H   H214      1.0  0.18116  0.17768  0.72850  1.0000
  C   C210      1.0  0.07225  0.02522  0.50412  1.0000
  Fe  Fe36      1.0  0.29641  0.21219  0.63579  1.0000
  S   S74       1.0  0.30169  0.21105  0.66768  1.0000
  S   S75       1.0  0.28712  0.18344  0.63238  1.0000
  Fe  Fe37      1.0  0.31337  0.25291  0.61567  1.0000
  S   S76       1.0  0.32013  0.25502  0.64598  1.0000
  S   S77       1.0  0.31959  0.27693  0.58498  1.0000
  Fe  Fe38      1.0  0.33265  0.21999  0.65010  1.0000
  S   S78       1.0  0.36419  0.20506  0.65895  1.0000
  Fe  Fe39      1.0  0.28862  0.24593  0.66071  1.0000
  S   S79       1.0  0.26764  0.26069  0.68711  1.0000
  S   S80       1.0  0.32857  0.21844  0.61856  1.0000
  S   S81       1.0  0.28045  0.24667  0.63003  1.0000
  Fe  Fe40      1.0  0.16115  0.11705  0.69963  1.0000
  S   S82       1.0  0.15289  0.14030  0.67045  1.0000
  H   H215      1.0  0.46989  0.44992  0.60759  1.0000
  Fe  Fe41      1.0  0.20583  0.10121  0.67759  1.0000
  S   S83       1.0  0.20130  0.12331  0.64662  1.0000
  S   S84       1.0  0.23605  0.07668  0.67794  1.0000
  Fe  Fe42      1.0  0.18502  0.14735  0.66639  1.0000
  S   S85       1.0  0.18940  0.18106  0.65882  1.0000
  Fe  Fe43      1.0  0.16974  0.11394  0.65367  1.0000
  S   S86       1.0  0.15926  0.10715  0.62705  1.0000
  S   S87       1.0  0.19211  0.12599  0.69695  1.0000
  S   S88       1.0  0.17545  0.08995  0.68323  1.0000
  Fe  Fe44      1.0  0.05581  0.02926  0.60495  1.0000
  H   H216      1.0  0.30871  0.07597  0.69434  1.0000
  S   S89       1.0  0.02096  0.04313  0.60589  1.0000
  Fe  Fe45      1.0  0.09414  0.02741  0.62285  1.0000
  H   H217      1.0  0.10310  0.22464  0.73209  1.0000
  S   S90       1.0  0.10370  0.03717  0.64830  1.0000
  Fe  Fe46      1.0  0.10000  0.02247  0.57817  1.0000
  S   S91       1.0  0.11740  0.02641  0.54436  1.0000
  S   S92       1.0  0.08123  0.04866  0.59473  1.0000
  H   H218      1.0  0.02545  0.01505  0.54419  1.0000
  C   C211      1.0  0.33412  0.21644  0.70981  1.0000
  H   H219      1.0  0.07243  0.04116  0.54819  1.0000
  C   C212      1.0  0.14225  0.08905  0.63323  1.0000
  C   C213      1.0  0.13491  0.07922  0.65417  1.0000
  C   C214      1.0  0.12277  0.06358  0.65856  1.0000
  C   C215      1.0  0.11790  0.05769  0.64207  1.0000
  C   C216      1.0  0.12477  0.06787  0.62115  1.0000
  C   C217      1.0  0.13695  0.08350  0.61675  1.0000
  H   H220      1.0  0.13887  0.08341  0.66697  1.0000
  H   H221      1.0  0.11746  0.05578  0.67479  1.0000
  H   H222      1.0  0.12106  0.06343  0.60835  1.0000
  H   H223      1.0  0.14260  0.09107  0.60052  1.0000
  C   C218      1.0  0.25985  0.18338  0.63926  1.0000
  C   C219      1.0  0.25327  0.16412  0.64324  1.0000
  C   C220      1.0  0.23168  0.16340  0.64945  1.0000
  C   C221      1.0  0.21647  0.18204  0.65093  1.0000
  C   C222      1.0  0.22298  0.20141  0.64663  1.0000
  C   C223      1.0  0.24469  0.20205  0.64109  1.0000
  H   H224      1.0  0.26482  0.14968  0.64156  1.0000
  H   H225      1.0  0.22685  0.14837  0.65298  1.0000
  H   H226      1.0  0.21123  0.21589  0.64769  1.0000
  H   H227      1.0  0.24964  0.21699  0.63796  1.0000
  C   C224      1.0  0.01018  0.03541  0.58838  1.0000
  C   C225      1.0  0.26347  0.05273  0.70292  1.0000
  C   C226      1.0  0.25023  0.07255  0.69796  1.0000
  C   C227      1.0  0.24934  0.08854  0.70831  1.0000
  H   H228      1.0  0.46718  0.35956  0.53218  1.0000
  H   H229      1.0  0.26431  0.04038  0.69491  1.0000
  C   C228      1.0  0.36644  0.13794  0.69978  1.0000
  C   C229      1.0  0.38491  0.14393  0.68659  1.0000
  C   C230      1.0  0.38419  0.16466  0.67426  1.0000
  C   C231      1.0  0.36489  0.17924  0.67467  1.0000
  C   C232      1.0  0.34641  0.17314  0.68776  1.0000
  C   C233      1.0  0.34720  0.15261  0.70050  1.0000
  H   H230      1.0  0.39983  0.13259  0.68605  1.0000
  H   H231      1.0  0.39857  0.16928  0.66425  1.0000
  H   H232      1.0  0.33157  0.18433  0.68866  1.0000
  H   H233      1.0  0.33288  0.14814  0.71077  1.0000
  C   C234      1.0  0.37889  0.25599  0.56061  1.0000
  C   C235      1.0  0.29893  0.10770  0.67660  1.0000
  H   H234      1.0  0.12437  0.00925  0.50750  1.0000
  C   C236      1.0  0.10768  0.01614  0.51158  1.0000
  C   C237      1.0  0.26196  0.08459  0.72347  1.0000
  H   H235      1.0  0.36108  0.19346  0.71944  1.0000
  H   H236      1.0  0.22187  0.07768  0.64050  1.0000
  H   H237      1.0  0.28317  0.10557  0.67712  1.0000
  C   C238      1.0  0.05188  0.09375  0.61957  1.0000
  H   H238      1.0  0.18624  0.06235  0.61518  1.0000
  C   C239      1.0  0.20407  0.23971  0.70664  1.0000
  C   C240      1.0  0.21830  0.23545  0.68818  1.0000
  C   C241      1.0  0.23808  0.24131  0.68251  1.0000
  C   C242      1.0  0.24345  0.25209  0.69495  1.0000
  C   C243      1.0  0.22932  0.25627  0.71352  1.0000
  C   C244      1.0  0.20971  0.24986  0.71949  1.0000
  H   H239      1.0  0.21397  0.22771  0.67816  1.0000
  H   H240      1.0  0.24894  0.23779  0.66831  1.0000
  H   H241      1.0  0.23343  0.26456  0.72322  1.0000
  C   C245      1.0  0.06168  0.07415  0.65269  1.0000
  S   S93       1.0  0.36736  0.11189  0.71466  1.0000
  H   H242      1.0  0.11910  0.15512  0.70359  1.0000
  C   C246      1.0  0.18862  0.03315  0.67285  1.0000
  H   H243      1.0  0.18906  0.02545  0.68924  1.0000
  C   C247      1.0  0.06413  0.09044  0.63461  1.0000
  H   H244      1.0  0.04799  0.04134  0.52587  1.0000
  C   C248      1.0  0.48738  0.45997  0.50775  1.0000
  H   H245      1.0  0.41752  0.26978  0.57461  1.0000
  H   H246      1.0  0.34462  0.08138  0.69331  1.0000
  H   H247      1.0  0.02782  0.08307  0.61116  1.0000
  H   H248      1.0  0.37722  0.22600  0.61069  1.0000
  H   H249      1.0  0.29372  0.14018  0.65935  1.0000
  N   N18       1.0  0.20822  0.15599  0.73859  1.0000
  H   H250      1.0  0.21262  0.05059  0.66968  1.0000
  C   C249      1.0  0.37286  0.31257  0.57472  1.0000
  C   C250      1.0  0.36790  0.29803  0.59380  1.0000
  C   C251      1.0  0.35128  0.28736  0.59726  1.0000
  C   C252      1.0  0.33946  0.29125  0.58169  1.0000
  C   C253      1.0  0.34389  0.30640  0.56292  1.0000
  C   C254      1.0  0.36053  0.31710  0.55945  1.0000
  H   H251      1.0  0.37739  0.29450  0.60566  1.0000
  H   H252      1.0  0.34813  0.27568  0.61170  1.0000
  H   H253      1.0  0.33474  0.30956  0.55083  1.0000
  H   H254      1.0  0.36424  0.32833  0.54468  1.0000
  C   C255      1.0  0.47957  0.36838  0.52415  1.0000
  C   C256      1.0  0.10814  0.17049  0.69936  1.0000
  C   C257      1.0  0.30497  0.12718  0.66657  1.0000
  C   C258      1.0  0.07837  0.03381  0.53471  1.0000
  C   C259      1.0  0.99332  0.02095  0.56168  1.0000
  C   C260      1.0  0.01502  0.02079  0.55764  1.0000
  N   N19       1.0  0.32482  0.12989  0.66587  1.0000
  C   C261      1.0  0.42226  0.45113  0.56679  1.0000
  C   C262      1.0  0.41264  0.46605  0.55120  1.0000
  C   C263      1.0  0.40130  0.45977  0.53982  1.0000
  C   C264      1.0  0.40001  0.43843  0.54355  1.0000
  C   C265      1.0  0.40971  0.42341  0.55906  1.0000
  C   C266      1.0  0.42059  0.42982  0.57086  1.0000
  C   C267      1.0  0.40504  0.26158  0.57564  1.0000
  H   H255      1.0  0.39366  0.47144  0.52796  1.0000
  H   H256      1.0  0.40841  0.40698  0.56231  1.0000
  H   H257      1.0  0.42788  0.41820  0.58301  1.0000
  S   S94       1.0  0.30652  0.11444  0.72853  1.0000
  H   H258      1.0  0.43115  0.43560  0.49863  1.0000
  C   C268      1.0  0.33903  0.11363  0.67514  1.0000
  C   C269      1.0  0.20953  0.18096  0.70514  1.0000
  H   H259      1.0  0.19877  0.25331  0.73369  1.0000
  S   S95       1.0  0.13611  0.11327  0.72922  1.0000
  H   H260      1.0  0.25870  0.15253  0.71069  1.0000
  H   H261      1.0  0.20144  0.19359  0.69420  1.0000
  C   C270      1.0  0.33348  0.09400  0.68547  1.0000
  H   H262      1.0  0.41366  0.27192  0.52816  1.0000
  C   C271      1.0  0.17417  0.03927  0.64177  1.0000
  C   C272      1.0  0.18733  0.05383  0.63124  1.0000
  H   H263      1.0  0.10695  0.17312  0.68260  1.0000
  H   H264      1.0  0.37065  0.25966  0.54768  1.0000
  H   H265      1.0  0.22734  0.06612  0.61784  1.0000
  C   C273      1.0  0.09997  0.02508  0.52939  1.0000
  C   C274      1.0  0.06456  0.03394  0.52206  1.0000
  S   S96       1.0  0.17914  0.23281  0.71280  1.0000
  C   C275      1.0  0.11007  0.07069  0.50037  1.0000
  H   H266      1.0  0.07576  0.10012  0.63217  1.0000
  N   N20       1.0  0.39493  0.26598  0.55914  1.0000
  C   C276      1.0  0.48465  0.44727  0.59616  1.0000
  H   H267      1.0  0.07971  0.08540  0.51643  1.0000
  H   H268      1.0  0.27115  0.23354  0.73004  1.0000
  H   H269      1.0  0.20506  0.08798  0.62164  1.0000
  H   H270      1.0  0.40655  0.24400  0.60764  1.0000
  C   C277      1.0  0.04620  0.04372  0.67418  1.0000
  H   H271      1.0  0.35921  0.23407  0.58031  1.0000
  S   S97       1.0  0.11524  0.00282  0.60528  1.0000
  H   H272      1.0  0.28536  0.03307  0.72234  1.0000
  H   H273      1.0  0.42597  0.47597  0.49931  1.0000
  C   C278      1.0  0.27672  0.21602  0.73304  1.0000
  C   C279      1.0  0.47488  0.44915  0.52533  1.0000
  H   H274      1.0  0.00464  0.05954  0.49570  1.0000
  H   H275      1.0  0.30442  0.23584  0.70329  1.0000
  C   C280      1.0  0.17464  0.02910  0.66279  1.0000
  C   C281      1.0  0.37234  0.24143  0.57908  1.0000
  H   H276      1.0  0.24052  0.18125  0.68517  1.0000
  H   H277      1.0  0.40913  0.29271  0.54236  1.0000
  N   N21       1.0  0.27649  0.30660  0.61848  1.0000
  C   C282      1.0  0.27287  0.30109  0.64011  1.0000
  C   C283      1.0  0.29272  0.31674  0.60733  1.0000
  C   C284      1.0  0.28592  0.30544  0.65107  1.0000
  C   C285      1.0  0.30620  0.32116  0.61777  1.0000
  C   C286      1.0  0.30277  0.31541  0.63979  1.0000
  C   C287      1.0  0.26304  0.30172  0.60696  1.0000
  H   H278      1.0  0.26002  0.29302  0.64906  1.0000
  H   H279      1.0  0.29578  0.32082  0.59016  1.0000
  H   H280      1.0  0.28315  0.30072  0.66822  1.0000
  H   H281      1.0  0.31947  0.32861  0.60875  1.0000
  H   H282      1.0  0.31326  0.31851  0.64807  1.0000
  H   H283      1.0  0.25428  0.31665  0.59834  1.0000
  H   H284      1.0  0.27302  0.29211  0.59538  1.0000
  H   H285      1.0  0.25131  0.29235  0.61770  1.0000
  H   H286      1.0  0.31996  0.16309  0.66316  1.0000
  C   C288      1.0  0.31195  0.22208  0.71362  1.0000
  H   H287      1.0  0.16315  0.03645  0.63391  1.0000
  C   C289      1.0  0.03735  0.08083  0.62280  1.0000
  C   C290      1.0  0.20185  0.04749  0.66170  1.0000
  H   H288      1.0  0.15524  0.14884  0.72664  1.0000
  H   H289      1.0  0.44391  0.41090  0.51342  1.0000
  C   C291      1.0  0.24161  0.15779  0.71429  1.0000
  H   H290      1.0  0.04006  0.02806  0.56744  1.0000
  C   C292      1.0  0.27542  0.04860  0.71843  1.0000
  H   H291      1.0  0.32876  0.15462  0.63844  1.0000
  H   H292      1.0  0.34722  0.15060  0.65527  1.0000
  C   C293      1.0  0.22971  0.14902  0.73369  1.0000
  H   H293      1.0  0.34364  0.22556  0.69654  1.0000
  H   H294      1.0  0.41364  0.48246  0.54805  1.0000
  C   C294      1.0  0.09380  0.01611  0.49903  1.0000
  C   C295      1.0  0.21449  0.07311  0.62974  1.0000
  N   N22       1.0  0.11607  0.18779  0.70238  1.0000
  C   C296      1.0  0.13515  0.19212  0.69050  1.0000
  C   C297      1.0  0.10461  0.19933  0.71713  1.0000
  C   C298      1.0  0.14314  0.20849  0.69311  1.0000
  C   C299      1.0  0.11206  0.21588  0.72005  1.0000
  C   C300      1.0  0.13140  0.22052  0.70788  1.0000
  H   H295      1.0  0.06227  0.03504  0.67687  1.0000
  H   H296      1.0  0.14440  0.18289  0.67895  1.0000
  H   H297      1.0  0.27128  0.20974  0.72204  1.0000
  H   H298      1.0  0.15840  0.21175  0.68381  1.0000
  H   H299      1.0  0.09232  0.16895  0.70957  1.0000
  H   H300      1.0  0.13742  0.23327  0.71000  1.0000
  C   C301      1.0  0.19811  0.17182  0.72462  1.0000
  S   S98       1.0  0.07365  0.00481  0.58634  1.0000
  H   H301      1.0  0.02448  0.05428  0.64307  1.0000
  N   N23       1.0  0.20079  0.05791  0.64129  1.0000
  C   C302      1.0  0.03557  0.06447  0.64091  1.0000
  C   C303      1.0  0.27484  0.06446  0.72866  1.0000
  C   C304      1.0  0.99580  0.04657  0.49934  1.0000
  H   H302      1.0  0.05376  0.10616  0.60535  1.0000
  S   S99       1.0  0.06691  0.01024  0.63458  1.0000
  C   C305      1.0  0.46218  0.43687  0.52242  1.0000
  C   C306      1.0  0.34392  0.19842  0.72269  1.0000
  N   N24       1.0  0.04794  0.06108  0.65538  1.0000
  N   N25       1.0  0.29991  0.21022  0.72994  1.0000
  H   H303      1.0  0.03817  0.03185  0.67230  1.0000
  H   H304      1.0  0.03717  0.05015  0.68828  1.0000
  C   C307      1.0  0.08830  0.07883  0.50276  1.0000
  N   N26       1.0  0.46166  0.43563  0.50255  1.0000
  Fe  Fe47      1.0  0.39113  0.37026  0.49770  1.0000
  C   C308      1.0  0.43551  0.48701  0.48891  1.0000
  S   S100      1.0  0.41086  0.39422  0.49259  1.0000
  H   H305      1.0  0.47589  0.42342  0.58582  1.0000
  H   H306      1.0  0.00612  0.03148  0.50583  1.0000
  C   C309      1.0  0.48797  0.43246  0.58382  1.0000
  C   C310      1.0  0.48300  0.37576  0.50222  1.0000
  H   H307      1.0  0.47451  0.45069  0.54111  1.0000
  H   H308      1.0  0.26148  0.09691  0.73136  1.0000
  H   H309      1.0  0.06039  0.08271  0.49039  1.0000
  Fe  Fe48      1.0  0.33724  0.10897  0.73864  1.0000
  H   H310      1.0  0.49067  0.36493  0.55258  1.0000
  C   C311      1.0  0.14057  0.14970  0.73828  1.0000
  C   C312      1.0  0.04513  0.42097  0.92714  1.0000
  H   H311      1.0  0.20340  0.20722  0.76610  1.0000
  C   C313      1.0  0.23367  0.18749  0.75699  1.0000
  Fe  Fe49      1.0  0.06070  0.34568  0.92332  1.0000
  S   S101      1.0  0.09159  0.32949  0.90636  1.0000
  S   S102      1.0  0.05319  0.34467  0.95797  1.0000
  Fe  Fe50      1.0  0.04179  0.36165  0.88458  1.0000
  S   S103      1.0  0.07090  0.34738  0.86359  1.0000
  S   S104      1.0  0.01098  0.37820  0.87499  1.0000
  Fe  Fe51      1.0  0.07166  0.31889  0.89046  1.0000
  S   S105      1.0  0.08033  0.28520  0.88621  1.0000
  Fe  Fe52      1.0  0.08843  0.35918  0.88099  1.0000
  S   S106      1.0  0.11753  0.37152  0.86238  1.0000
  S   S107      1.0  0.04094  0.33212  0.91005  1.0000
  S   S108      1.0  0.05916  0.37636  0.89934  1.0000
  C   C314      1.0  0.10939  0.13544  0.75758  1.0000
  C   C315      1.0  0.02879  0.40671  0.96393  1.0000
  S   S109      1.0  0.11158  0.28078  0.78989  1.0000
  H   H312      1.0  0.04434  0.40646  0.96728  1.0000
  S   S110      1.0  0.43332  0.00861  0.88299  1.0000
  S   S111      1.0  0.12229  0.47239  0.96620  1.0000
  S   S112      1.0  0.16228  0.19788  0.76532  1.0000
  C   C316      1.0  0.04515  0.42668  0.90547  1.0000
  S   S113      1.0  0.40793  0.02031  0.83234  1.0000
  H   H313      1.0  0.33156  0.02669  0.84237  1.0000
  H   H314      1.0  0.02512  0.39060  0.97104  1.0000
  H   H315      1.0  0.02526  0.29138  0.82770  1.0000
  H   H316      1.0  0.15624  0.44881  0.90045  1.0000
  H   H317      1.0  0.13196  0.32585  0.86624  1.0000
  Fe  Fe53      1.0  0.31763  0.09777  0.78528  1.0000
  S   S114      1.0  0.33316  0.07808  0.76110  1.0000
  S   S115      1.0  0.32291  0.08679  0.81883  1.0000
  H   H318      1.0  0.17921  0.14930  0.75933  1.0000
  C   C317      1.0  0.99916  0.46949  0.92702  1.0000
  C   C318      1.0  0.08914  0.28390  0.85947  1.0000
  C   C319      1.0  0.99795  0.47141  0.89061  1.0000
  S   S116      1.0  0.28476  0.10268  0.77926  1.0000
  H   H319      1.0  0.09803  0.43423  0.89420  1.0000
  C   C320      1.0  0.06706  0.25183  0.81634  1.0000
  C   C321      1.0  0.01972  0.47367  0.92047  1.0000
  H   H320      1.0  0.25875  0.14616  0.79011  1.0000
  H   H321      1.0  0.00068  0.40691  0.82571  1.0000
  H   H322      1.0  0.29539  0.04943  0.79347  1.0000
  H   H323      1.0  0.14700  0.29929  0.86786  1.0000
  C   C322      1.0  0.12417  0.43632  0.86744  1.0000
  H   H324      1.0  0.06346  0.24714  0.86868  1.0000
  H   H325      1.0  0.26900  0.20937  0.74948  1.0000
  C   C323      1.0  0.48862  0.04949  0.91020  1.0000
  H   H326      1.0  0.08471  0.23042  0.83906  1.0000
  C   C324      1.0  0.02851  0.42363  0.89828  1.0000
  H   H327      1.0  0.14567  0.38493  0.92236  1.0000
  H   H328      1.0  0.05777  0.43376  0.89433  1.0000
  C   C325      1.0  0.30920  0.03950  0.79943  1.0000
  H   H329      1.0  0.36475  0.00404  0.83745  1.0000
  C   C326      1.0  0.01277  0.40912  0.93426  1.0000
  C   C327      1.0  0.38493  0.04003  0.82921  1.0000
  C   C328      1.0  0.36914  0.04489  0.84653  1.0000
  C   C329      1.0  0.35042  0.05983  0.84322  1.0000
  C   C330      1.0  0.34730  0.06971  0.82262  1.0000
  C   C331      1.0  0.36324  0.06501  0.80538  1.0000
  C   C332      1.0  0.38198  0.05028  0.80867  1.0000
  H   H330      1.0  0.37131  0.03711  0.86243  1.0000
  H   H331      1.0  0.33818  0.06348  0.85664  1.0000
  H   H332      1.0  0.36120  0.07280  0.78948  1.0000
  H   H333      1.0  0.39419  0.04668  0.79521  1.0000
  C   C333      1.0  0.11942  0.39656  0.86467  1.0000
  C   C334      1.0  0.13529  0.40636  0.85042  1.0000
  C   C335      1.0  0.13760  0.42617  0.85175  1.0000
  C   C336      1.0  0.10827  0.42656  0.88188  1.0000
  C   C337      1.0  0.10587  0.40665  0.88047  1.0000
  H   H334      1.0  0.14584  0.39862  0.83826  1.0000
  H   H335      1.0  0.09382  0.39899  0.89175  1.0000
  H   H336      1.0  0.13251  0.42581  0.97912  1.0000
  H   H337      1.0  0.06861  0.31319  0.84810  1.0000
  Fe  Fe54      1.0  0.10558  0.48171  0.93909  1.0000
  H   H338      1.0  0.23789  0.13703  0.74504  1.0000
  C   C338      1.0  0.36413  0.00174  0.82182  1.0000
  C   C339      1.0  0.00300  0.35919  0.86685  1.0000
  C   C340      1.0  0.01625  0.34953  0.85070  1.0000
  C   C341      1.0  0.00950  0.33479  0.84376  1.0000
  C   C342      1.0  0.24935  0.17029  0.76367  1.0000
  H   H339      1.0  0.47657  0.03731  0.97117  1.0000
  H   H340      1.0  0.03144  0.35385  0.84317  1.0000
  H   H341      1.0  0.01946  0.32799  0.83075  1.0000
  C   C343      1.0  0.06743  0.35943  0.96499  1.0000
  C   C344      1.0  0.07991  0.37243  0.94951  1.0000
  C   C345      1.0  0.09082  0.38450  0.95551  1.0000
  Fe  Fe55      1.0  0.13166  0.25000  0.78237  1.0000
  C   C346      1.0  0.11135  0.26526  0.83239  1.0000
  Fe  Fe56      1.0  0.40987  0.99625  0.91133  1.0000
  H   H342      1.0  0.08115  0.37322  0.93296  1.0000
  H   H343      1.0  0.10033  0.39469  0.94355  1.0000
  H   H344      1.0  0.40051  0.01727  0.98041  1.0000
  H   H345      1.0  0.11661  0.34453  0.83563  1.0000
  C   C347      1.0  0.22825  0.16591  0.79939  1.0000
  C   C348      1.0  0.05034  0.26911  0.81315  1.0000
  H   H346      1.0  0.04690  0.27573  0.79747  1.0000
  C   C349      1.0  0.02619  0.28713  0.96527  1.0000
  C   C350      1.0  0.45305  0.99512  0.97720  1.0000
  S   S117      1.0  0.03327  0.47501  0.93924  1.0000
  C   C351      1.0  0.03082  0.28043  0.86733  1.0000
  C   C352      1.0  0.03829  0.27799  0.83027  1.0000
  Fe  Fe57      1.0  0.06548  0.48346  0.92512  1.0000
  C   C353      1.0  0.15403  0.43503  0.91321  1.0000
  H   H347      1.0  0.07464  0.28465  0.93244  1.0000
  C   C354      1.0  0.44129  0.99439  0.94600  1.0000
  C   C355      1.0  0.14539  0.29625  0.83012  1.0000
  H   H348      1.0  0.00002  0.40239  0.94549  1.0000
  H   H349      1.0  0.15913  0.43037  0.97252  1.0000
  H   H350      1.0  0.11078  0.25387  0.86583  1.0000
  C   C356      1.0  0.10433  0.26644  0.85376  1.0000
  H   H351      1.0  0.13707  0.31816  0.78025  1.0000
  C   C357      1.0  0.46524  0.04020  0.94293  1.0000
  H   H352      1.0  0.22614  0.15755  0.81580  1.0000
  C   C358      1.0  0.13687  0.31693  0.79677  1.0000
  S   S118      1.0  0.40020  0.00992  0.94035  1.0000
  C   C359      1.0  0.11407  0.16813  0.76341  1.0000
  C   C360      1.0  0.15167  0.41654  0.90893  1.0000
  S   S119      1.0  0.12965  0.21816  0.80409  1.0000
  H   H353      1.0  0.23562  0.19592  0.74059  1.0000
  C   C361      1.0  0.14814  0.39916  0.92548  1.0000
  C   C362      1.0  0.12605  0.33375  0.80655  1.0000
  H   H354      1.0  0.12329  0.25191  0.82802  1.0000
  C   C363      1.0  0.04193  0.28425  0.94738  1.0000
  C   C364      1.0  0.24663  0.15941  0.78485  1.0000
  H   H355      1.0  0.11805  0.34835  0.79761  1.0000
  N   N27       1.0  0.46974  0.04412  0.92132  1.0000
  C   C365      1.0  0.43247  0.00489  0.98550  1.0000
  S   S120      1.0  0.12657  0.24096  0.75450  1.0000
  C   C366      1.0  0.21530  0.19383  0.77143  1.0000
  C   C367      1.0  0.02917  0.47699  0.89898  1.0000
  N   N28       1.0  0.13495  0.31291  0.83954  1.0000
  H   H356      1.0  0.08125  0.31137  0.81048  1.0000
  Fe  Fe58      1.0  0.41337  0.00113  0.86450  1.0000
  C   C368      1.0  0.07147  0.24360  0.83654  1.0000
  C   C369      1.0  0.31164  0.03919  0.81955  1.0000
  H   H357      1.0  0.01351  0.28347  0.86775  1.0000
  C   C370      1.0  0.08779  0.29885  0.82252  1.0000
  C   C371      1.0  0.05932  0.25309  0.85323  1.0000
  H   H358      1.0  0.08711  0.15361  0.77892  1.0000
  C   C372      1.0  0.15316  0.43576  0.93407  1.0000
  C   C373      1.0  0.12522  0.33144  0.82809  1.0000
  C   C374      1.0  0.14754  0.40037  0.94614  1.0000
  H   H359      1.0  0.29992  0.04917  0.82923  1.0000
  H   H360      1.0  0.14455  0.38686  0.95897  1.0000
  C   C375      1.0  0.10300  0.28146  0.81676  1.0000
  H   H361      1.0  0.02597  0.47801  0.86753  1.0000
  S   S121      1.0  0.12896  0.46029  0.86943  1.0000
  C   C376      1.0  0.45498  0.04114  0.90999  1.0000
  H   H362      1.0  0.45021  0.03612  0.95176  1.0000
  Fe  Fe59      1.0  0.12742  0.20853  0.77529  1.0000
  C   C377      1.0  0.12853  0.13403  0.74276  1.0000
  Fe  Fe60      1.0  0.10791  0.47484  0.89584  1.0000
  S   S122      1.0  0.10367  0.19001  0.77548  1.0000
  H   H363      1.0  0.07683  0.24503  0.80313  1.0000
  H   H364      1.0  0.08248  0.29457  0.96222  1.0000
  C   C378      1.0  0.08963  0.38314  0.97697  1.0000
  H   H365      1.0  0.05786  0.42383  0.93263  1.0000
  C   C379      1.0  0.32973  0.02659  0.82681  1.0000
  H   H366      1.0  0.07244  0.45126  0.98674  1.0000
  N   N29       1.0  0.04293  0.27002  0.84997  1.0000
  C   C380      1.0  0.01838  0.47578  0.88411  1.0000
  C   C381      1.0  0.06675  0.29205  0.96337  1.0000
  H   H367      1.0  0.43864  0.04179  0.91978  1.0000
  H   H368      1.0  0.03367  0.27060  0.88296  1.0000
  H   H369      1.0  0.47948  0.00445  0.86340  1.0000
  C   C382      1.0  0.32489  0.02739  0.78677  1.0000
  H   H370      1.0  0.35524  0.00610  0.78433  1.0000
  C   C383      1.0  0.13341  0.16667  0.74874  1.0000
  H   H371      1.0  0.06043  0.48800  0.98347  1.0000
  H   H372      1.0  0.03550  0.29584  0.86512  1.0000
  C   C384      1.0  0.01222  0.41475  0.91272  1.0000
  H   H373      1.0  0.02814  0.42826  0.88154  1.0000
  C   C385      1.0  0.13301  0.31041  0.86230  1.0000
  S   S123      1.0  0.09466  0.45796  0.92850  1.0000
  C   C386      1.0  0.10209  0.15253  0.76769  1.0000
  H   H374      1.0  0.15236  0.41576  0.89282  1.0000
  C   C387      1.0  0.08084  0.30004  0.84382  1.0000
  H   H375      1.0  0.15000  0.43357  0.84067  1.0000
  C   C388      1.0  0.14673  0.29810  0.80856  1.0000
  H   H376      1.0  0.11851  0.30416  0.87106  1.0000
  S   S124      1.0  0.16722  0.24345  0.77235  1.0000
  H   H377      1.0  0.15449  0.28468  0.80122  1.0000
  H   H378      1.0  0.15236  0.28124  0.83934  1.0000
  S   S125      1.0  0.18918  0.19087  0.81055  1.0000
  H   H379      1.0  0.01638  0.41845  0.97169  1.0000
  H   H380      1.0  0.46051  0.02537  0.90569  1.0000
  N   N30       1.0  0.05114  0.29507  0.98077  1.0000
  H   H381      1.0  0.99928  0.41234  0.90719  1.0000
  C   C389      1.0  0.41636  0.00949  0.97402  1.0000
  N   N31       1.0  0.15035  0.41840  0.95016  1.0000
  Fe  Fe61      1.0  0.30100  0.08537  0.75328  1.0000
  H   H382      1.0  0.15465  0.45033  0.93733  1.0000
  C   C390      1.0  0.42068  0.00412  0.95434  1.0000
  H   H383      1.0  0.45402  0.05367  0.89529  1.0000
  C   C391      1.0  0.34294  0.01520  0.79440  1.0000
  Fe  Fe62      1.0  0.16488  0.21068  0.79183  1.0000
  C   C392      1.0  0.21253  0.18310  0.79267  1.0000
  S   S126      1.0  0.32447  0.12844  0.76333  1.0000
  H   H384      1.0  0.15450  0.40368  0.98177  1.0000
  C   C393      1.0  0.03114  0.29242  0.98198  1.0000
  H   H385      1.0  0.32319  0.02785  0.77096  1.0000
  N   N32       1.0  0.02913  0.41215  0.94118  1.0000
  C   C394      1.0  0.06239  0.28658  0.94643  1.0000
  C   C395      1.0  0.14916  0.41957  0.97196  1.0000
  H   H386      1.0  0.99169  0.46694  0.94363  1.0000
  S   S127      1.0  0.10358  0.39781  0.98448  1.0000
  S   S128      1.0  0.29075  0.05836  0.74755  1.0000
  H   H387      1.0  0.99574  0.42533  0.85322  1.0000
  H   H388      1.0  0.20252  0.13007  0.76462  1.0000
  H   H389      1.0  0.14237  0.17903  0.74483  1.0000
  H   H390      1.0  0.01014  0.28569  0.96602  1.0000
  H   H391      1.0  0.03820  0.28062  0.93408  1.0000
  H   H392      1.0  0.29989  0.18270  0.75519  1.0000
  Fe  Fe63      1.0  0.29312  0.13150  0.75505  1.0000
  H   H393      1.0  0.19754  0.15568  0.77127  1.0000
  C   C396      1.0  0.06600  0.35838  0.98640  1.0000
  C   C397      1.0  0.19627  0.14735  0.75947  1.0000
  N   N33       1.0  0.34516  0.01491  0.81420  1.0000
  C   C398      1.0  0.33152  0.18626  0.73912  1.0000
  H   H394      1.0  0.37869  0.00613  0.81066  1.0000
  H   H395      1.0  0.04502  0.47995  0.89375  1.0000
  H   H396      1.0  0.10000  0.12341  0.76101  1.0000
  S   S129      1.0  0.38814  0.99180  0.89281  1.0000
  C   C399      1.0  0.48006  0.04105  0.95399  1.0000
  C   C400      1.0  0.30940  0.19241  0.74253  1.0000
  Fe  Fe64      1.0  0.16193  0.23109  0.74654  1.0000
  H   H397      1.0  0.33898  0.17189  0.74887  1.0000
  S   S130      1.0  0.27220  0.16300  0.74510  1.0000
  C   C401      1.0  0.14149  0.61931  0.16483  1.0000
  C   C402      1.0  0.14749  0.67388  0.21846  1.0000
  H   H398      1.0  0.40090  0.95176  0.01528  1.0000
  C   C403      1.0  0.17587  0.64335  0.21475  1.0000
  S   S131      1.0  0.36546  0.61522  0.23563  1.0000
  C   C404      1.0  0.20866  0.77563  0.22699  1.0000
  C   C405      1.0  0.29131  0.60852  0.21853  1.0000
  H   H399      1.0  0.13812  0.65212  0.14806  1.0000
  Fe  Fe65      1.0  0.30833  0.77062  0.11798  1.0000
  S   S132      1.0  0.28566  0.78228  0.14547  1.0000
  S   S133      1.0  0.32023  0.79749  0.09285  1.0000
  Fe  Fe66      1.0  0.30160  0.72551  0.13670  1.0000
  S   S134      1.0  0.27823  0.73362  0.16555  1.0000
  S   S135      1.0  0.30999  0.69086  0.13629  1.0000
  Fe  Fe67      1.0  0.26496  0.76206  0.14269  1.0000
  S   S136      1.0  0.23084  0.77704  0.14242  1.0000
  Fe  Fe68      1.0  0.30117  0.75287  0.16555  1.0000
  S   S137      1.0  0.30897  0.75570  0.19502  1.0000
  S   S138      1.0  0.28631  0.75244  0.11359  1.0000
  S   S139      1.0  0.32587  0.74270  0.13848  1.0000
  H   H400      1.0  0.28990  0.67575  0.21152  1.0000
  Fe  Fe69      1.0  0.20384  0.60061  0.14630  1.0000
  S   S140      1.0  0.19250  0.63518  0.13271  1.0000
  S   S141      1.0  0.19419  0.57317  0.14000  1.0000
  Fe  Fe70      1.0  0.22506  0.60996  0.17711  1.0000
  S   S142      1.0  0.21615  0.64497  0.16548  1.0000
  C   C406      1.0  0.27304  0.67118  0.19019  1.0000
  Fe  Fe71      1.0  0.18458  0.63902  0.16615  1.0000
  S   S143      1.0  0.15651  0.66081  0.18100  1.0000
  Fe  Fe72      1.0  0.22520  0.63811  0.13323  1.0000
  S   S144      1.0  0.24058  0.66216  0.10769  1.0000
  S   S145      1.0  0.19269  0.60425  0.17992  1.0000
  S   S146      1.0  0.23744  0.60315  0.14454  1.0000
  Fe  Fe73      1.0  0.13347  0.56398  0.06072  1.0000
  S   S147      1.0  0.10664  0.57690  0.04326  1.0000
  S   S148      1.0  0.14987  0.58889  0.06267  1.0000
  Fe  Fe74      1.0  0.12196  0.55071  0.02604  1.0000
  S   S149      1.0  0.15017  0.53952  0.04132  1.0000
  H   H401      1.0  0.13499  0.68602  0.21234  1.0000
  Fe  Fe75      1.0  0.46309  0.84123  0.02508  1.0000
  S   S150      1.0  0.44795  0.87250  0.00722  1.0000
  Fe  Fe76      1.0  0.42637  0.82040  0.02905  1.0000
  H   H402      1.0  0.08092  0.52191  0.01791  1.0000
  S   S151      1.0  0.41519  0.78943  0.04227  1.0000
  H   H403      1.0  0.13721  0.56900  0.18443  1.0000
  S   S152      1.0  0.47953  0.96929  0.04820  1.0000
  Fe  Fe77      1.0  0.41829  0.86652  0.03072  1.0000
  S   S153      1.0  0.39569  0.89351  0.04329  1.0000
  H   H404      1.0  0.39977  0.77553  0.00657  1.0000
  S   S154      1.0  0.43414  0.83678  0.05037  1.0000
  H   H405      1.0  0.15441  0.73600  0.18685  1.0000
  Fe  Fe78      1.0  0.09059  0.55260  0.06760  1.0000
  S   S155      1.0  0.44437  0.93337  0.08701  1.0000
  S   S156      1.0  0.23797  0.60046  0.20686  1.0000
  C   C407      1.0  0.13426  0.61109  0.12920  1.0000
  C   C408      1.0  0.40905  0.90459  0.05560  1.0000
  C   C409      1.0  0.42771  0.89280  0.06220  1.0000
  C   C410      1.0  0.43834  0.90160  0.07214  1.0000
  C   C411      1.0  0.43075  0.92249  0.07481  1.0000
  C   C412      1.0  0.41230  0.93445  0.06787  1.0000
  C   C413      1.0  0.40123  0.92537  0.05859  1.0000
  H   H406      1.0  0.43385  0.87678  0.05993  1.0000
  H   H407      1.0  0.45261  0.89231  0.07747  1.0000
  H   H408      1.0  0.40626  0.95052  0.07015  1.0000
  H   H409      1.0  0.38670  0.93446  0.05368  1.0000
  C   C414      1.0  0.01758  0.53632  0.05588  1.0000
  S   S157      1.0  0.33123  0.61247  0.19671  1.0000
  Fe  Fe79      1.0  0.43922  0.85312  0.98954  1.0000
  H   H410      1.0  0.06592  0.56386  0.03523  1.0000
  S   S158      1.0  0.10359  0.52753  0.04874  1.0000
  C   C415      1.0  0.13426  0.63187  0.12962  1.0000
  C   C416      1.0  0.19877  0.74811  0.19855  1.0000
  C   C417      1.0  0.04317  0.55147  0.02674  1.0000
  H   H411      1.0  0.41994  0.96292  0.99325  1.0000
  H   H412      1.0  0.13897  0.57848  0.14588  1.0000
  H   H413      1.0  0.14289  0.58694  0.19696  1.0000
  C   C418      1.0  0.18340  0.57717  0.11754  1.0000
  C   C419      1.0  0.17415  0.56132  0.11554  1.0000
  C   C420      1.0  0.16397  0.56466  0.09866  1.0000
  C   C421      1.0  0.16323  0.58379  0.08355  1.0000
  C   C422      1.0  0.17282  0.59948  0.08533  1.0000
  C   C423      1.0  0.18283  0.59622  0.10232  1.0000
  H   H414      1.0  0.17464  0.54651  0.12723  1.0000
  H   H415      1.0  0.15671  0.55245  0.09734  1.0000
  H   H416      1.0  0.17239  0.61426  0.07361  1.0000
  H   H417      1.0  0.19006  0.60844  0.10364  1.0000
  C   C424      1.0  0.30508  0.61026  0.19880  1.0000
  C   C425      1.0  0.29787  0.61003  0.18101  1.0000
  C   C426      1.0  0.27706  0.60746  0.18315  1.0000
  H   H418      1.0  0.13189  0.64462  0.11592  1.0000
  N   N34       1.0  0.24632  0.65385  0.22644  1.0000
  C   C427      1.0  0.13778  0.63607  0.14758  1.0000
  H   H419      1.0  0.30846  0.61147  0.16567  1.0000
  H   H420      1.0  0.27163  0.60691  0.16947  1.0000
  H   H421      1.0  0.29655  0.60906  0.23226  1.0000
  C   C428      1.0  0.34631  0.79430  0.07802  1.0000
  C   C429      1.0  0.35319  0.81223  0.06420  1.0000
  C   C430      1.0  0.37437  0.81089  0.05345  1.0000
  C   C431      1.0  0.38866  0.79142  0.05593  1.0000
  C   C432      1.0  0.38169  0.77333  0.06936  1.0000
  C   C433      1.0  0.36057  0.77480  0.08062  1.0000
  H   H422      1.0  0.34219  0.82734  0.06212  1.0000
  H   H423      1.0  0.37957  0.82493  0.04326  1.0000
  H   H424      1.0  0.39271  0.75821  0.07127  1.0000
  H   H425      1.0  0.35534  0.76091  0.09126  1.0000
  C   C434      1.0  0.29100  0.68277  0.12800  1.0000
  C   C435      1.0  0.28684  0.66229  0.13664  1.0000
  C   C436      1.0  0.27115  0.65592  0.13067  1.0000
  C   C437      1.0  0.26030  0.66970  0.11535  1.0000
  C   C438      1.0  0.26486  0.68995  0.10634  1.0000
  C   C439      1.0  0.27989  0.69663  0.11295  1.0000
  H   H426      1.0  0.29553  0.65144  0.14815  1.0000
  H   H427      1.0  0.26780  0.64018  0.13754  1.0000
  H   H428      1.0  0.25667  0.70051  0.09429  1.0000
  H   H429      1.0  0.28332  0.71228  0.10591  1.0000
  C   C440      1.0  0.32114  0.73181  0.20978  1.0000
  C   C441      1.0  0.31961  0.71206  0.20739  1.0000
  C   C442      1.0  0.26225  0.74024  0.22880  1.0000
  C   C443      1.0  0.21307  0.79016  0.20790  1.0000
  C   C444      1.0  0.39119  0.80920  0.99451  1.0000
  C   C445      1.0  0.27652  0.67015  0.21011  1.0000
  H   H430      1.0  0.31093  0.71130  0.19614  1.0000
  H   H431      1.0  0.39119  0.85338  0.07703  1.0000
  C   C446      1.0  0.08014  0.50705  0.01474  1.0000
  H   H432      1.0  0.48337  0.90969  0.03797  1.0000
  H   H433      1.0  0.13759  0.51235  0.01005  1.0000
  C   C447      1.0  0.26285  0.66147  0.22820  1.0000
  C   C448      1.0  0.16001  0.65918  0.20650  1.0000
  C   C449      1.0  0.15887  0.58805  0.00064  1.0000
  H   H434      1.0  0.25319  0.66430  0.17315  1.0000
  C   C450      1.0  0.17248  0.57186  0.99134  1.0000
  C   C451      1.0  0.34136  0.69417  0.23368  1.0000
  C   C452      1.0  0.06895  0.50708  0.99982  1.0000
  C   C453      1.0  0.02701  0.54070  0.07020  1.0000
  H   H435      1.0  0.48434  0.90675  0.07959  1.0000
  H   H436      1.0  0.20041  0.80253  0.20220  1.0000
  C   C454      1.0  0.13239  0.49449  0.99001  1.0000
  H   H437      1.0  0.26554  0.77023  0.19352  1.0000
  Fe  Fe80      1.0  0.13023  0.51836  0.06596  1.0000
  H   H438      1.0  0.18574  0.63202  0.20575  1.0000
  C   C455      1.0  0.17549  0.78020  0.18429  1.0000
  C   C456      1.0  0.19170  0.78463  0.16680  1.0000
  C   C457      1.0  0.21152  0.77093  0.16510  1.0000
  H   H439      1.0  0.23034  0.74181  0.17951  1.0000
  H   H440      1.0  0.13284  0.61475  0.99736  1.0000
  C   C458      1.0  0.27074  0.60576  0.22067  1.0000
  H   H441      1.0  0.18883  0.79873  0.15449  1.0000
  C   C459      1.0  0.02573  0.54154  0.03415  1.0000
  C   C460      1.0  0.32946  0.69323  0.21961  1.0000
  N   N35       1.0  0.34736  0.83423  0.10494  1.0000
  C   C461      1.0  0.35957  0.84840  0.09241  1.0000
  C   C462      1.0  0.35658  0.81357  0.11227  1.0000
  C   C463      1.0  0.38162  0.84205  0.08706  1.0000
  C   C464      1.0  0.37856  0.80662  0.10701  1.0000
  C   C465      1.0  0.39113  0.82098  0.09434  1.0000
  C   C466      1.0  0.32421  0.84103  0.10935  1.0000
  H   H442      1.0  0.35229  0.86467  0.08620  1.0000
  H   H443      1.0  0.34686  0.80210  0.12150  1.0000
  C   C467      1.0  0.33252  0.73268  0.22422  1.0000
  H   H444      1.0  0.38572  0.79006  0.11217  1.0000
  Fe  Fe81      1.0  0.44788  0.96616  0.06888  1.0000
  H   H445      1.0  0.31648  0.82934  0.12233  1.0000
  H   H446      1.0  0.31943  0.85658  0.11405  1.0000
  H   H447      1.0  0.31806  0.84234  0.09504  1.0000
  C   C468      1.0  0.99948  0.57822  0.10096  1.0000
  C   C469      1.0  0.13811  0.59471  0.14669  1.0000
  S   S159      1.0  0.45697  0.82207  0.00527  1.0000
  H   H448      1.0  0.14459  0.62270  0.17856  1.0000
  H   H449      1.0  0.16368  0.57404  0.17858  1.0000
  H   H450      1.0  0.13202  0.60753  0.11513  1.0000
  H   H451      1.0  0.22943  0.64912  0.20558  1.0000
  C   C470      1.0  0.23365  0.78817  0.19578  1.0000
  N   N36       1.0  0.14155  0.59895  0.16424  1.0000
  H   H452      1.0  0.00402  0.52892  0.06180  1.0000
  H   H453      1.0  0.40815  0.81563  0.08987  1.0000
  C   C471      1.0  0.14390  0.60254  0.98993  1.0000
  S   S160      1.0  0.01432  0.53574  0.01607  1.0000
  H   H454      1.0  0.47185  0.87800  0.03574  1.0000
  C   C472      1.0  0.13208  0.51323  0.99595  1.0000
  S   S161      1.0  0.05557  0.55696  0.08071  1.0000
  H   H455      1.0  0.15959  0.58908  0.01634  1.0000
  C   C473      1.0  0.26365  0.60487  0.20313  1.0000
  H   H456      1.0  0.04944  0.55579  0.00993  1.0000
  C   C474      1.0  0.40359  0.95975  0.99825  1.0000
  C   C475      1.0  0.25589  0.66378  0.18856  1.0000
  C   C476      1.0  0.21513  0.75260  0.18095  1.0000
  H   H457      1.0  0.32863  0.67805  0.21746  1.0000
  C   C477      1.0  0.48847  0.87745  0.03440  1.0000
  C   C478      1.0  0.05253  0.55601  0.04105  1.0000
  S   S162      1.0  0.11588  0.54176  0.08694  1.0000
  H   H458      1.0  0.23712  0.79899  0.18059  1.0000
  H   H459      1.0  0.16018  0.79093  0.18547  1.0000
  H   H460      1.0  0.41620  0.91786  0.00351  1.0000
  C   C479      1.0  0.04439  0.55071  0.06280  1.0000
  N   N37       1.0  0.24512  0.75731  0.22163  1.0000
  C   C480      1.0  0.17896  0.76203  0.20022  1.0000
  H   H461      1.0  0.27311  0.74689  0.23417  1.0000
  C   C481      1.0  0.24250  0.65524  0.20697  1.0000
  N   N38       1.0  0.18014  0.72090  0.16549  1.0000
  C   C482      1.0  0.18427  0.74005  0.15341  1.0000
  C   C483      1.0  0.19224  0.70237  0.16037  1.0000
  C   C484      1.0  0.20135  0.74098  0.13612  1.0000
  C   C485      1.0  0.20929  0.70273  0.14301  1.0000
  C   C486      1.0  0.21397  0.72217  0.13098  1.0000
  C   C487      1.0  0.16267  0.71996  0.18401  1.0000
  H   H462      1.0  0.17451  0.75475  0.15723  1.0000
  H   H463      1.0  0.18862  0.68723  0.16970  1.0000
  H   H464      1.0  0.20495  0.75621  0.12693  1.0000
  H   H465      1.0  0.21881  0.68807  0.13880  1.0000
  H   H466      1.0  0.22731  0.72265  0.11764  1.0000
  H   H467      1.0  0.15085  0.71202  0.18185  1.0000
  H   H468      1.0  0.16881  0.71087  0.19847  1.0000
  H   H469      1.0  0.28370  0.67758  0.17605  1.0000
  N   N39       1.0  0.35712  0.66200  0.16462  1.0000
  C   C488      1.0  0.35594  0.68342  0.15731  1.0000
  C   C489      1.0  0.36509  0.65164  0.18237  1.0000
  C   C490      1.0  0.36321  0.69496  0.16763  1.0000
  C   C491      1.0  0.37268  0.66266  0.19296  1.0000
  C   C492      1.0  0.37175  0.68443  0.18548  1.0000
  C   C493      1.0  0.34859  0.65033  0.15417  1.0000
  H   H470      1.0  0.34921  0.69174  0.14351  1.0000
  H   H471      1.0  0.36546  0.63477  0.18851  1.0000
  H   H472      1.0  0.36184  0.71201  0.16207  1.0000
  H   H473      1.0  0.37870  0.65455  0.20723  1.0000
  H   H474      1.0  0.37694  0.69323  0.19402  1.0000
  H   H475      1.0  0.33153  0.65061  0.16137  1.0000
  H   H476      1.0  0.35000  0.65749  0.13698  1.0000
  H   H477      1.0  0.35703  0.63345  0.15591  1.0000
  H   H478      1.0  0.02082  0.53639  0.08702  1.0000
  C   C494      1.0  0.39424  0.78795  0.99376  1.0000
  S   S163      1.0  0.12276  0.55654  0.99141  1.0000
  H   H479      1.0  0.09576  0.49288  0.08648  1.0000
  C   C495      1.0  0.14653  0.58139  0.18197  1.0000
  S   S164      1.0  0.40799  0.84995  0.01141  1.0000
  C   C496      1.0  0.17907  0.64193  0.23489  1.0000
  H   H480      1.0  0.20145  0.73392  0.21069  1.0000
  C   C497      1.0  0.24959  0.77165  0.20301  1.0000
  S   S165      1.0  0.15793  0.75737  0.22163  1.0000
  H   H481      1.0  0.39426  0.81319  0.00789  1.0000
  H   H482      1.0  0.33372  0.74791  0.22612  1.0000
  H   H483      1.0  0.01073  0.58144  0.10828  1.0000
  H   H484      1.0  0.27162  0.73241  0.21568  1.0000
  H   H485      1.0  0.18374  0.56018  0.99983  1.0000
  Fe  Fe82      1.0  0.33522  0.61251  0.22886  1.0000
  H   H486      1.0  0.01280  0.59413  0.06986  1.0000
  C   C498      1.0  0.34287  0.71394  0.23588  1.0000
  H   H487      1.0  0.02386  0.49465  0.04788  1.0000
  H   H488      1.0  0.39217  0.97524  0.99661  1.0000
  H   H489      1.0  0.48537  0.93591  0.09481  1.0000
  C   C499      1.0  0.22498  0.75919  0.23365  1.0000
  C   C500      1.0  0.00060  0.58535  0.07916  1.0000
  H   H490      1.0  0.26027  0.60460  0.23593  1.0000
  H   H491      1.0  0.06064  0.52199  0.99162  1.0000
  H   H492      1.0  0.00534  0.58922  0.03841  1.0000
  S   S166      1.0  0.42979  0.98697  0.04442  1.0000
  H   H493      1.0  0.19254  0.77668  0.23616  1.0000
  C   C501      1.0  0.15128  0.67298  0.23838  1.0000
  S   S167      1.0  0.47364  0.99049  0.99076  1.0000
  C   C502      1.0  0.40873  0.92503  0.98997  1.0000
  H   H494      1.0  0.02158  0.49071  0.01477  1.0000
  H   H495      1.0  0.45379  0.50581  0.43661  1.0000
  C   C503      1.0  0.13657  0.90654  0.40297  1.0000
  H   H496      1.0  0.22003  0.65726  0.25197  1.0000
  H   H497      1.0  0.48339  0.50655  0.40426  1.0000
  S   S168      1.0  0.43122  0.51543  0.39931  1.0000
  H   H498      1.0  0.01459  0.77215  0.34062  1.0000
  H   H499      1.0  0.27557  0.56643  0.25719  1.0000
  N   N40       1.0  0.01416  0.94861  0.36077  1.0000
  H   H500      1.0  0.14499  0.74567  0.35869  1.0000
  S   S169      1.0  0.38228  0.52749  0.37408  1.0000
  H   H501      1.0  0.37308  0.60083  0.32055  1.0000
  H   H502      1.0  0.24518  0.59304  0.30098  1.0000
  Fe  Fe83      1.0  0.14900  0.72460  0.29860  1.0000
  H   H503      1.0  0.15747  0.70420  0.35036  1.0000
  H   H504      1.0  0.16472  0.70834  0.37286  1.0000
  S   S170      1.0  0.22953  0.71358  0.28273  1.0000
  Fe  Fe84      1.0  0.31063  0.61575  0.27273  1.0000
  S   S171      1.0  0.32787  0.58777  0.25833  1.0000
  S   S172      1.0  0.27704  0.61762  0.29062  1.0000
  C   C504      1.0  0.05758  0.90172  0.47861  1.0000
  H   H505      1.0  0.27420  0.69417  0.27872  1.0000
  S   S173      1.0  0.99907  0.87736  0.37127  1.0000
  C   C505      1.0  0.07967  0.92346  0.38505  1.0000
  Fe  Fe85      1.0  0.35647  0.59290  0.26667  1.0000
  S   S174      1.0  0.38294  0.56637  0.27703  1.0000
  C   C506      1.0  0.13439  0.94030  0.42063  1.0000
  S   S175      1.0  0.33854  0.61890  0.28376  1.0000
  C   C507      1.0  0.23240  0.64454  0.24558  1.0000
  Fe  Fe86      1.0  0.06602  0.84129  0.40058  1.0000
  S   S176      1.0  0.09328  0.85120  0.37489  1.0000
  S   S177      1.0  0.06796  0.82310  0.43382  1.0000
  Fe  Fe87      1.0  0.03296  0.86446  0.37443  1.0000
  S   S178      1.0  0.05713  0.87618  0.34673  1.0000
  H   H506      1.0  0.22135  0.74782  0.24835  1.0000
  Fe  Fe88      1.0  0.07675  0.84339  0.35358  1.0000
  S   S179      1.0  0.09331  0.83111  0.32412  1.0000
  Fe  Fe89      1.0  0.07127  0.88301  0.37025  1.0000
  S   S180      1.0  0.07880  0.91541  0.36262  1.0000
  S   S181      1.0  0.05118  0.83077  0.37950  1.0000
  S   S182      1.0  0.04551  0.87390  0.39762  1.0000
  H   H507      1.0  0.07649  0.95646  0.36919  1.0000
  H   H508      1.0  0.27766  0.58057  0.27540  1.0000
  S   S183      1.0  0.35583  0.67115  0.24760  1.0000
  H   H509      1.0  0.07434  0.89318  0.47515  1.0000
  H   H510      1.0  0.42892  0.55521  0.47957  1.0000
  H   H511      1.0  0.18447  0.69539  0.35395  1.0000
  H   H512      1.0  0.02552  0.85626  0.33643  1.0000
  N   N41       1.0  0.04316  0.88819  0.47919  1.0000
  Fe  Fe90      1.0  0.16497  0.73427  0.25129  1.0000
  H   H513      1.0  0.03588  0.85740  0.45001  1.0000
  C   C508      1.0  0.10353  0.85385  0.46326  1.0000
  H   H514      1.0  0.00526  0.85260  0.48009  1.0000
  C   C509      1.0  0.08030  0.82966  0.46727  1.0000
  C   C510      1.0  0.08205  0.83434  0.44527  1.0000
  C   C511      1.0  0.09447  0.84876  0.43242  1.0000
  C   C512      1.0  0.10529  0.85832  0.44134  1.0000
  C   C513      1.0  0.26835  0.57001  0.27309  1.0000
  N   N42       1.0  0.13643  0.92007  0.43279  1.0000
  H   H515      1.0  0.09589  0.85247  0.41553  1.0000
  H   H516      1.0  0.11488  0.86932  0.43111  1.0000
  C   C514      1.0  0.02124  0.92607  0.36991  1.0000
  C   C515      1.0  0.07817  0.94500  0.38384  1.0000
  C   C516      1.0  0.10451  0.76703  0.34499  1.0000
  C   C517      1.0  0.09767  0.78887  0.34456  1.0000
  C   C518      1.0  0.10209  0.80369  0.32562  1.0000
  C   C519      1.0  0.03741  0.79076  0.33881  1.0000
  H   H517      1.0  0.08897  0.79423  0.35883  1.0000
  C   C520      1.0  0.24307  0.68695  0.28532  1.0000
  C   C521      1.0  0.26522  0.68175  0.28247  1.0000
  C   C522      1.0  0.27585  0.66041  0.28430  1.0000
  C   C523      1.0  0.26427  0.64426  0.28947  1.0000
  C   C524      1.0  0.24218  0.64949  0.29270  1.0000
  C   C525      1.0  0.23168  0.67076  0.29012  1.0000
  H   H518      1.0  0.14171  0.68445  0.24752  1.0000
  H   H519      1.0  0.29297  0.65646  0.28200  1.0000
  H   H520      1.0  0.23313  0.63714  0.29675  1.0000
  H   H521      1.0  0.21474  0.67448  0.29196  1.0000
  H   H522      1.0  0.13918  0.88732  0.43390  1.0000
  S   S184      1.0  0.31562  0.63999  0.24257  1.0000
  C   C526      1.0  0.03125  0.84985  0.32186  1.0000
  H   H523      1.0  0.11859  0.91635  0.46412  1.0000
  H   H524      1.0  0.24171  0.63520  0.25778  1.0000
  Fe  Fe91      1.0  0.08373  0.98068  0.43414  1.0000
  C   C527      1.0  0.16700  0.65686  0.24667  1.0000
  C   C528      1.0  0.45714  0.51284  0.48405  1.0000
  H   H525      1.0  0.18296  0.78401  0.30914  1.0000
  C   C529      1.0  0.04146  0.81128  0.33379  1.0000
  H   H526      1.0  0.46993  0.52649  0.45166  1.0000
  C   C530      1.0  0.11337  0.79663  0.30721  1.0000
  C   C531      1.0  0.38111  0.53629  0.34707  1.0000
  C   C532      1.0  0.36417  0.55233  0.34094  1.0000
  C   C533      1.0  0.36397  0.56105  0.31939  1.0000
  C   C534      1.0  0.38081  0.55380  0.30394  1.0000
  C   C535      1.0  0.39730  0.53724  0.31008  1.0000
  C   C536      1.0  0.39745  0.52851  0.33156  1.0000
  H   H527      1.0  0.35139  0.55831  0.35288  1.0000
  H   H528      1.0  0.35108  0.57369  0.31477  1.0000
  H   H529      1.0  0.41026  0.53147  0.29816  1.0000
  H   H530      1.0  0.41039  0.51601  0.33604  1.0000
  C   C537      1.0  0.12039  0.77485  0.30769  1.0000
  C   C538      1.0  0.21492  0.60193  0.29185  1.0000
  H   H531      1.0  0.05624  0.81341  0.33602  1.0000
  H   H532      1.0  0.11664  0.80807  0.29249  1.0000
  H   H533      1.0  0.13235  0.92996  0.37432  1.0000
  N   N43       1.0  0.40535  0.58430  0.31800  1.0000
  C   C539      1.0  0.42240  0.57589  0.30417  1.0000
  C   C540      1.0  0.40407  0.57728  0.33936  1.0000
  C   C541      1.0  0.43866  0.55991  0.31166  1.0000
  C   C542      1.0  0.42001  0.56129  0.34737  1.0000
  C   C543      1.0  0.43744  0.55260  0.33341  1.0000
  H   H534      1.0  0.19119  0.62946  0.24107  1.0000
  H   H535      1.0  0.42318  0.58113  0.28724  1.0000
  H   H536      1.0  0.39036  0.58356  0.35036  1.0000
  H   H537      1.0  0.45194  0.55299  0.30066  1.0000
  H   H538      1.0  0.41851  0.55528  0.36431  1.0000
  H   H539      1.0  0.44981  0.54003  0.33946  1.0000
  H   H540      1.0  0.13079  0.96027  0.39000  1.0000
  C   C544      1.0  0.21323  0.58847  0.26251  1.0000
  H   H541      1.0  0.04855  0.84969  0.31635  1.0000
  S   S185      1.0  0.11697  0.86683  0.47364  1.0000
  H   H542      1.0  0.13679  0.89326  0.39642  1.0000
  C   C545      1.0  0.99368  0.83682  0.37590  1.0000
  C   C546      1.0  0.11601  0.76001  0.32657  1.0000
  S   S186      1.0  0.19196  0.70640  0.25200  1.0000
  H   H543      1.0  0.07687  0.96853  0.40065  1.0000
  H   H544      1.0  0.00702  0.83141  0.38366  1.0000
  Fe  Fe92      1.0  0.41163  0.50459  0.38305  1.0000
  H   H545      1.0  0.02929  0.92415  0.38311  1.0000
  S   S187      1.0  0.14053  0.71585  0.27218  1.0000
  H   H546      1.0  0.26574  0.66051  0.24366  1.0000
  C   C547      1.0  0.07871  0.95185  0.40159  1.0000
  S   S188      1.0  0.17454  0.69550  0.30375  1.0000
  H   H547      1.0  0.05976  0.88045  0.44961  1.0000
  C   C548      1.0  0.00337  0.80553  0.32901  1.0000
  C   C549      1.0  0.08339  0.91552  0.42155  1.0000
  H   H548      1.0  0.14517  0.90086  0.46155  1.0000
  H   H549      1.0  0.25614  0.72778  0.24205  1.0000
  H   H550      1.0  0.08336  0.89200  0.40488  1.0000
  C   C550      1.0  0.45120  0.50378  0.45356  1.0000
  C   C551      1.0  0.23456  0.57837  0.26126  1.0000
  H   H551      1.0  0.12897  0.76958  0.29337  1.0000
  C   C552      1.0  0.46038  0.51541  0.46210  1.0000
  H   H552      1.0  0.18689  0.60847  0.27894  1.0000
  H   H553      1.0  0.40789  0.53056  0.47740  1.0000
  S   S189      1.0  0.08464  0.94557  0.44185  1.0000
  S   S190      1.0  0.12577  0.73271  0.32775  1.0000
  C   C553      1.0  0.03285  0.86559  0.46278  1.0000
  H   H554      1.0  0.20459  0.58747  0.25124  1.0000
  H   H555      1.0  0.24215  0.56956  0.24892  1.0000
  H   H556      1.0  0.99602  0.83950  0.31917  1.0000
  C   C554      1.0  0.13413  0.92713  0.39055  1.0000
  H   H557      1.0  0.05529  0.91644  0.46612  1.0000
  H   H558      1.0  0.01835  0.97049  0.40756  1.0000
  S   S191      1.0  0.17227  0.65551  0.27133  1.0000
  H   H559      1.0  0.02319  0.86080  0.30930  1.0000
  Fe  Fe93      1.0  0.16834  0.68868  0.27523  1.0000
  C   C555      1.0  0.01566  0.86294  0.47960  1.0000
  N   N44       1.0  0.24589  0.58038  0.27474  1.0000
  C   C556      1.0  0.20338  0.60031  0.27793  1.0000
  H   H560      1.0  0.15030  0.78098  0.33701  1.0000
  C   C557      1.0  0.23627  0.59168  0.29012  1.0000
  C   C558      1.0  0.09089  0.83959  0.47630  1.0000
  H   H561      1.0  0.20740  0.61129  0.30375  1.0000
  Fe  Fe94      1.0  0.19623  0.71530  0.28017  1.0000
  Fe  Fe95      1.0  0.34510  0.64080  0.25191  1.0000
  C   C559      1.0  0.38886  0.60158  0.30991  1.0000
  H   H562      1.0  0.08621  0.90405  0.43587  1.0000
  H   H563      1.0  0.39279  0.61719  0.30836  1.0000
  H   H564      1.0  0.03264  0.91827  0.35761  1.0000
  N   N45       1.0  0.02695  0.82845  0.32631  1.0000
  H   H565      1.0  0.20374  0.71630  0.32499  1.0000
  C   C560      1.0  0.13529  0.91646  0.45558  1.0000
  H   H566      1.0  0.27007  0.55499  0.28527  1.0000
  H   H567      1.0  0.10110  0.75557  0.35964  1.0000
  C   C561      1.0  0.00797  0.82583  0.32414  1.0000
  C   C562      1.0  0.08202  0.90869  0.40399  1.0000
  C   C563      1.0  0.08173  0.93715  0.42034  1.0000
  H   H568      1.0  0.20993  0.75126  0.30333  1.0000
  S   S192      1.0  0.17143  0.74523  0.27743  1.0000
  C   C564      1.0  0.13774  0.90329  0.42418  1.0000
  C   C565      1.0  0.01818  0.78792  0.33643  1.0000
  C   C566      1.0  0.04641  0.87851  0.46273  1.0000
  C   C567      1.0  0.13325  0.94414  0.39934  1.0000
  N   N46       1.0  0.17425  0.72902  0.34348  1.0000
  C   C568      1.0  0.15953  0.74691  0.34694  1.0000
  C   C569      1.0  0.19218  0.73048  0.32804  1.0000
  C   C570      1.0  0.16244  0.76694  0.33468  1.0000
  C   C571      1.0  0.19576  0.75028  0.31568  1.0000
  C   C572      1.0  0.18069  0.76859  0.31895  1.0000
  C   C573      1.0  0.17011  0.70818  0.35578  1.0000
  H   H569      1.0  0.04099  0.95741  0.36516  1.0000
  H   H570      1.0  0.13252  0.95370  0.42764  1.0000
  H   H571      1.0  0.22451  0.63339  0.24226  1.0000
  C   C574      1.0  0.02644  0.96275  0.35920  1.0000
  H   H572      1.0  0.38723  0.60041  0.29419  1.0000
  H   H573      1.0  0.00771  0.91773  0.37641  1.0000
  H   H574      1.0  0.14079  0.92903  0.45949  1.0000
  H   H575      1.0  0.04906  0.77721  0.34466  1.0000
  H   H576      1.0  0.07054  0.81862  0.47730  1.0000
  Fe  Fe96      1.0  0.45886  0.49848  0.37876  1.0000
  S   S193      1.0  0.48786  0.51036  0.35930  1.0000
  C   C575      1.0  0.01334  0.98749  0.40235  1.0000
  C   C576      1.0  0.02014  0.98433  0.35037  1.0000
  H   H577      1.0  0.35207  0.71478  0.24666  1.0000
  C   C577      1.0  0.99592  0.95521  0.35298  1.0000
  Fe  Fe97      1.0  0.42975  0.53938  0.56724  1.0000
  S   S194      1.0  0.46115  0.54596  0.54769  1.0000
  S   S195      1.0  0.40448  0.56818  0.57296  1.0000
  H   H578      1.0  0.13842  0.75282  0.62598  1.0000
  C   C578      1.0  0.26331  0.75188  0.67680  1.0000
  C   C579      1.0  0.14984  0.86568  0.58140  1.0000
  H   H579      1.0  0.15889  0.92233  0.54343  1.0000
  H   H580      1.0  0.11208  0.96846  0.58266  1.0000
  H   H581      1.0  0.36752  0.70104  0.70273  1.0000
  C   C580      1.0  0.01142  0.84579  0.56355  1.0000
  S   S196      1.0  0.42647  0.51873  0.54739  1.0000
  S   S197      1.0  0.31624  0.65459  0.69581  1.0000
  Fe  Fe98      1.0  0.34970  0.60446  0.67600  1.0000
  S   S198      1.0  0.36459  0.63051  0.67757  1.0000
  S   S199      1.0  0.36953  0.57353  0.66871  1.0000
  C   C581      1.0  0.23794  0.68369  0.62994  1.0000
  Fe  Fe99      1.0  0.33690  0.65195  0.66426  1.0000
  S   S200      1.0  0.33830  0.68154  0.63906  1.0000
  S   S201      1.0  0.32371  0.62599  0.66009  1.0000
  Fe  Fe100     1.0  0.18614  0.70325  0.68145  1.0000
  S   S202      1.0  0.16793  0.72736  0.70037  1.0000
  S   S203      1.0  0.17534  0.67266  0.68769  1.0000
  Fe  Fe101     1.0  0.21881  0.72987  0.65699  1.0000
  S   S204      1.0  0.20373  0.75607  0.67444  1.0000
  S   S205      1.0  0.24665  0.73485  0.63033  1.0000
  Fe  Fe102     1.0  0.19998  0.72954  0.70313  1.0000
  H   H582      1.0  0.23676  0.62514  0.68359  1.0000
  Fe  Fe103     1.0  0.17322  0.75137  0.66975  1.0000
  S   S206      1.0  0.14666  0.77858  0.66078  1.0000
  S   S207      1.0  0.21801  0.70374  0.68607  1.0000
  S   S208      1.0  0.18852  0.72680  0.65036  1.0000
  H   H583      1.0  0.37623  0.60139  0.59214  1.0000
  H   H584      1.0  0.21078  0.67677  0.65399  1.0000
  Fe  Fe104     1.0  0.12699  0.83941  0.54965  1.0000
  S   S209      1.0  0.10311  0.86105  0.56867  1.0000
  S   S210      1.0  0.15242  0.81322  0.56236  1.0000
  Fe  Fe105     1.0  0.08045  0.85681  0.55121  1.0000
  S   S211      1.0  0.04815  0.85200  0.56968  1.0000
  Fe  Fe106     1.0  0.11035  0.88720  0.54048  1.0000
  S   S212      1.0  0.11737  0.91871  0.53931  1.0000
  S   S213      1.0  0.10387  0.83312  0.53406  1.0000
  S   S214      1.0  0.13634  0.86592  0.52286  1.0000
  H   H585      1.0  0.33755  0.73325  0.70059  1.0000
  S   S215      1.0  0.08835  0.95223  0.62365  1.0000
  C   C582      1.0  0.42293  0.57578  0.51017  1.0000
  C   C583      1.0  0.09111  0.78446  0.62323  1.0000
  C   C584      1.0  0.10858  0.92791  0.56279  1.0000
  C   C585      1.0  0.09724  0.91647  0.58095  1.0000
  C   C586      1.0  0.09129  0.92377  0.59983  1.0000
  C   C587      1.0  0.09655  0.94256  0.60045  1.0000
  C   C588      1.0  0.10790  0.95396  0.58227  1.0000
  C   C589      1.0  0.11380  0.94670  0.56345  1.0000
  H   H586      1.0  0.09303  0.90204  0.58049  1.0000
  H   H587      1.0  0.08240  0.91500  0.61386  1.0000
  H   H588      1.0  0.25329  0.74078  0.68764  1.0000
  H   H589      1.0  0.12247  0.95567  0.54938  1.0000
  C   C590      1.0  0.03336  0.84396  0.55614  1.0000
  C   C591      1.0  0.04321  0.83557  0.53821  1.0000
  C   C592      1.0  0.03121  0.82865  0.52798  1.0000
  H   H590      1.0  0.36686  0.54093  0.53638  1.0000
  C   C593      1.0  0.11825  0.77349  0.59521  1.0000
  H   H591      1.0  0.21190  0.63986  0.67695  1.0000
  H   H592      1.0  0.06008  0.83422  0.53230  1.0000
  C   C594      1.0  0.35823  0.67114  0.71882  1.0000
  C   C595      1.0  0.15728  0.88310  0.56727  1.0000
  N   N47       1.0  0.04208  0.96965  0.56748  1.0000
  C   C596      1.0  0.14933  0.78979  0.63354  1.0000
  C   C597      1.0  0.16695  0.78210  0.61908  1.0000
  C   C598      1.0  0.16786  0.78973  0.59728  1.0000
  C   C599      1.0  0.15126  0.80519  0.58980  1.0000
  C   C600      1.0  0.13383  0.81328  0.60425  1.0000
  C   C601      1.0  0.13289  0.80561  0.62609  1.0000
  H   H593      1.0  0.17984  0.77013  0.62465  1.0000
  H   H594      1.0  0.18145  0.78349  0.58617  1.0000
  H   H595      1.0  0.12082  0.82499  0.59866  1.0000
  H   H596      1.0  0.11919  0.81155  0.63724  1.0000
  C   C602      1.0  0.17035  0.66076  0.71483  1.0000
  H   H597      1.0  0.41847  0.59177  0.50017  1.0000
  C   C603      1.0  0.41443  0.59652  0.64257  1.0000
  S   S216      1.0  0.47591  0.49450  0.55029  1.0000
  H   H598      1.0  0.14934  0.64276  0.71143  1.0000
  C   C604      1.0  0.31264  0.69585  0.63674  1.0000
  C   C605      1.0  0.31007  0.71468  0.62138  1.0000
  C   C606      1.0  0.28970  0.72651  0.61960  1.0000
  C   C607      1.0  0.27183  0.71989  0.63353  1.0000
  C   C608      1.0  0.27436  0.70129  0.64922  1.0000
  C   C609      1.0  0.29472  0.68898  0.65045  1.0000
  H   H599      1.0  0.32384  0.72003  0.61071  1.0000
  H   H600      1.0  0.28780  0.74089  0.60742  1.0000
  H   H601      1.0  0.26063  0.69594  0.65986  1.0000
  H   H602      1.0  0.29645  0.67418  0.66194  1.0000
  C   C610      1.0  0.08845  0.80145  0.58711  1.0000
  H   H603      1.0  0.08237  0.97640  0.52518  1.0000
  C   C611      1.0  0.14553  0.90310  0.59402  1.0000
  C   C612      1.0  0.41514  0.55233  0.49195  1.0000
  C   C613      1.0  0.15658  0.64648  0.72233  1.0000
  H   H604      1.0  0.25469  0.76839  0.67752  1.0000
  N   N48       1.0  0.23860  0.65334  0.65906  1.0000
  H   H605      1.0  0.21285  0.76604  0.71042  1.0000
  H   H606      1.0  0.00373  0.85239  0.57734  1.0000
  H   H607      1.0  0.08003  0.81310  0.57574  1.0000
  H   H608      1.0  0.11785  0.76060  0.64698  1.0000
  C   C614      1.0  0.25994  0.64694  0.65211  1.0000
  H   H609      1.0  0.06527  0.80989  0.61403  1.0000
  H   H610      1.0  0.02596  0.95725  0.59855  1.0000
  C   C615      1.0  0.39292  0.56891  0.59956  1.0000
  C   C616      1.0  0.39743  0.55129  0.61577  1.0000
  C   C617      1.0  0.38957  0.55270  0.63696  1.0000
  C   C618      1.0  0.37707  0.57170  0.64207  1.0000
  C   C619      1.0  0.37196  0.58915  0.62588  1.0000
  C   C620      1.0  0.37986  0.58773  0.60463  1.0000
  H   H611      1.0  0.40702  0.53659  0.61205  1.0000
  H   H612      1.0  0.39338  0.53911  0.64946  1.0000
  H   H613      1.0  0.36233  0.60387  0.62971  1.0000
  H   H614      1.0  0.30959  0.76327  0.71136  1.0000
  H   H615      1.0  0.44639  0.55817  0.59291  1.0000
  C   C621      1.0  0.28761  0.75896  0.69492  1.0000
  H   H616      1.0  0.38807  0.56576  0.53780  1.0000
  H   H617      1.0  0.22483  0.64983  0.69174  1.0000
  H   H618      1.0  0.11463  0.79010  0.56352  1.0000
  H   H619      1.0  0.27570  0.77231  0.69942  1.0000
  H   H620      1.0  0.44007  0.56930  0.50472  1.0000
  C   C622      1.0  0.13761  0.88608  0.60849  1.0000
  H   H621      1.0  0.08458  0.78313  0.64001  1.0000
  N   N49       1.0  0.43461  0.57827  0.61507  1.0000
  C   C623      1.0  0.42968  0.59620  0.60005  1.0000
  C   C624      1.0  0.42738  0.57833  0.63611  1.0000
  C   C625      1.0  0.41678  0.61469  0.60597  1.0000
  H   H622      1.0  0.43524  0.59610  0.58337  1.0000
  C   C626      1.0  0.44832  0.55912  0.60858  1.0000
  C   C627      1.0  0.36130  0.69147  0.71778  1.0000
  H   H623      1.0  0.05501  0.90633  0.49393  1.0000
  H   H624      1.0  0.43102  0.56406  0.64804  1.0000
  H   H625      1.0  0.39856  0.62880  0.63220  1.0000
  H   H626      1.0  0.01059  0.96881  0.56637  1.0000
  C   C628      1.0  0.06182  0.97223  0.55604  1.0000
  Fe  Fe107     1.0  0.11086  0.86187  0.50901  1.0000
  C   C629      1.0  0.40905  0.61477  0.62738  1.0000
  H   H627      1.0  0.37695  0.52286  0.50615  1.0000
  Fe  Fe108     1.0  0.45914  0.52276  0.52987  1.0000
  H   H628      1.0  0.44415  0.54451  0.61992  1.0000
  H   H629      1.0  0.14346  0.91777  0.59908  1.0000
  H   H630      1.0  0.13390  0.85385  0.61319  1.0000
  H   H631      1.0  0.29621  0.72112  0.66770  1.0000
  H   H632      1.0  0.01804  0.97343  0.52758  1.0000
  C   C630      1.0  0.44484  0.49847  0.49744  1.0000
  H   H633      1.0  0.33069  0.71185  0.67873  1.0000
  H   H634      1.0  0.26793  0.68684  0.60876  1.0000
  H   H635      1.0  0.23520  0.78960  0.71265  1.0000
  C   C631      1.0  0.38592  0.53408  0.50675  1.0000
  C   C632      1.0  0.16397  0.91912  0.55873  1.0000
  C   C633      1.0  0.00925  0.83068  0.53530  1.0000
  H   H636      1.0  0.05160  0.96186  0.59726  1.0000
  C   C634      1.0  0.22761  0.67149  0.64828  1.0000
  S   S217      1.0  0.08536  0.88512  0.52478  1.0000
  S   S218      1.0  0.27041  0.62717  0.70390  1.0000
  H   H637      1.0  0.41240  0.62869  0.59402  1.0000
  N   N50       1.0  0.15516  0.90147  0.57369  1.0000
  H   H638      1.0  0.36206  0.66510  0.70458  1.0000
  H   H639      1.0  0.99881  0.87129  0.50922  1.0000
  Fe  Fe109     1.0  0.47475  0.51720  0.57004  1.0000
  C   C635      1.0  0.23462  0.77460  0.72394  1.0000
  C   C636      1.0  0.03711  0.96816  0.59039  1.0000
  H   H640      1.0  0.19032  0.67655  0.72339  1.0000
  H   H641      1.0  0.28776  0.65380  0.62852  1.0000
  C   C637      1.0  0.06662  0.97454  0.53409  1.0000
  C   C638      1.0  0.02654  0.96986  0.55747  1.0000
  C   C639      1.0  0.08012  0.79957  0.60870  1.0000
  H   H642      1.0  0.42094  0.57733  0.52671  1.0000
  H   H643      1.0  0.07392  0.97273  0.56382  1.0000
  H   H644      1.0  0.02363  0.89330  0.50887  1.0000
  C   C640      1.0  0.10768  0.78841  0.58027  1.0000
  H   H645      1.0  0.46522  0.55916  0.60763  1.0000
  H   H646      1.0  0.18155  0.91514  0.55596  1.0000
  C   C641      1.0  0.03067  0.97252  0.53546  1.0000
  C   C642      1.0  0.17965  0.66553  0.72905  1.0000
  S   S219      1.0  0.46761  0.52847  0.49445  1.0000
  H   H647      1.0  0.15828  0.93407  0.56462  1.0000
  H   H648      1.0  0.15165  0.85114  0.57623  1.0000
  N   N51       1.0  0.10998  0.77176  0.61638  1.0000
  Fe  Fe110     1.0  0.34217  0.63043  0.70899  1.0000
  H   H649      1.0  0.13341  0.76375  0.58972  1.0000
  H   H650      1.0  0.26529  0.75022  0.66029  1.0000
  S   S220      1.0  0.99432  0.82308  0.52161  1.0000
  H   H651      1.0  0.11560  0.74033  0.63484  1.0000
  C   C643      1.0  0.05086  0.97486  0.52373  1.0000
  C   C644      1.0  0.22752  0.64143  0.67875  1.0000
  C   C645      1.0  0.12093  0.75552  0.63178  1.0000
  S   S221      1.0  0.32957  0.60260  0.70862  1.0000
  C   C646      1.0  0.27075  0.65865  0.63372  1.0000
  N   N52       1.0  0.28394  0.74722  0.68286  1.0000
  H   H652      1.0  0.40796  0.59618  0.65925  1.0000
  H   H653      1.0  0.44255  0.49607  0.51437  1.0000
  Fe  Fe111     1.0  0.30514  0.62688  0.69296  1.0000
  N   N53       1.0  0.40992  0.56163  0.50894  1.0000
  C   C647      1.0  0.29910  0.73041  0.67721  1.0000
  S   S222      1.0  0.44356  0.51199  0.59098  1.0000
  H   H654      1.0  0.16461  0.88190  0.55107  1.0000
  C   C648      1.0  0.25962  0.67713  0.62259  1.0000
  H   H655      1.0  0.03890  0.82212  0.51414  1.0000
  H   H656      1.0  0.27508  0.68180  0.71267  1.0000
  C   C649      1.0  0.13990  0.86722  0.60212  1.0000
  H   H657      1.0  0.22933  0.69846  0.62180  1.0000
  C   C650      1.0  0.31863  0.72511  0.68343  1.0000
  C   C651      1.0  0.30687  0.75403  0.70159  1.0000
  C   C652      1.0  0.32249  0.73706  0.69570  1.0000
  C   C653      1.0  0.01212  0.87334  0.49603  1.0000
  H   H658      1.0  0.12955  0.88762  0.62445  1.0000
  H   H659      1.0  0.26881  0.63283  0.66088  1.0000
  C   C654      1.0  0.26442  0.62403  0.73143  1.0000
  C   C655      1.0  0.38029  0.54418  0.52369  1.0000
  C   C656      1.0  0.39239  0.55820  0.52442  1.0000
  C   C657      1.0  0.02624  0.88578  0.49571  1.0000
  C   C658      1.0  0.99932  0.83942  0.55298  1.0000
  H   H660      1.0  0.02977  0.98415  0.59380  1.0000
  C   C659      1.0  0.40328  0.53838  0.49062  1.0000
  H   H661      1.0  0.08935  0.83612  0.49326  1.0000
  H   H662      1.0  0.23649  0.68466  0.72757  1.0000
  C   C660      1.0  0.26930  0.67909  0.72964  1.0000
  H   H663      1.0  0.05421  0.97734  0.50661  1.0000
  S   S223      1.0  0.35805  0.72559  0.73464  1.0000
  C   C661      1.0  0.22211  0.76123  0.72258  1.0000
  C   C662      1.0  0.22136  0.74188  0.73719  1.0000
  H   H664      1.0  0.29536  0.62701  0.73312  1.0000
  H   H665      1.0  0.23215  0.62106  0.73501  1.0000
  Fe  Fe112     1.0  0.08706  0.98736  0.61484  1.0000
  S   S224      1.0  0.20646  0.72462  0.73542  1.0000
  C   C663      1.0  0.24765  0.68061  0.73798  1.0000
  C   C664      1.0  0.35598  0.69952  0.73613  1.0000
  H   H666      1.0  0.30031  0.67239  0.73689  1.0000
  H   H667      1.0  0.48880  0.55919  0.56984  1.0000
  C   C665      1.0  0.35077  0.65849  0.73836  1.0000
  Fe  Fe113     1.0  0.44332  0.49178  0.56919  1.0000
  H   H668      1.0  0.99204  0.78563  0.55869  1.0000
  H   H669      1.0  0.99201  0.77897  0.52410  1.0000
  H   H670      1.0  0.11854  0.59720  0.82561  1.0000
  S   S225      1.0  0.07527  0.50599  0.93852  1.0000
  S   S226      1.0  0.42740  0.96264  0.91533  1.0000
  C   C666      1.0  0.39779  0.92116  0.95983  1.0000
  C   C667      1.0  0.17406  0.72236  0.78462  1.0000
  N   N54       1.0  0.13661  0.56589  0.83401  1.0000
  Fe  Fe114     1.0  0.09078  0.51870  0.90511  1.0000
  S   S227      1.0  0.08863  0.55335  0.88948  1.0000
  H   H671      1.0  0.47347  0.98302  0.95060  1.0000
  N   N55       1.0  0.47198  0.89393  0.89624  1.0000
  H   H672      1.0  0.43789  0.92279  0.86448  1.0000
  H   H673      1.0  0.34411  0.69309  0.76981  1.0000
  Fe  Fe115     1.0  0.41912  0.81489  0.87742  1.0000
  S   S228      1.0  0.43274  0.84353  0.85983  1.0000
  S   S229      1.0  0.41742  0.80350  0.91253  1.0000
  Fe  Fe116     1.0  0.41399  0.80585  0.83719  1.0000
  S   S230      1.0  0.42750  0.83386  0.81643  1.0000
  S   S231      1.0  0.40767  0.78320  0.82105  1.0000
  Fe  Fe117     1.0  0.45163  0.82362  0.83688  1.0000
  S   S232      1.0  0.30056  0.73036  0.75949  1.0000
  Fe  Fe118     1.0  0.40727  0.85106  0.84147  1.0000
  S   S233      1.0  0.39086  0.88518  0.83339  1.0000
  S   S234      1.0  0.44000  0.79416  0.85567  1.0000
  S   S235      1.0  0.39168  0.82388  0.86087  1.0000
  Fe  Fe119     1.0  0.31197  0.76428  0.79240  1.0000
  S   S236      1.0  0.32820  0.73011  0.79394  1.0000
  S   S237      1.0  0.31492  0.78476  0.81294  1.0000
  H   H674      1.0  0.16977  0.52577  0.85966  1.0000
  C   C668      1.0  0.24026  0.61674  0.76524  1.0000
  N   N56       1.0  0.15992  0.71104  0.78049  1.0000
  Fe  Fe120     1.0  0.29607  0.72493  0.79455  1.0000
  S   S238      1.0  0.28605  0.69542  0.81593  1.0000
  H   H675      1.0  0.38225  0.84164  0.97854  1.0000
  H   H676      1.0  0.14058  0.58898  0.80523  1.0000
  S   S239      1.0  0.27935  0.75836  0.79596  1.0000
  N   N57       1.0  0.15633  0.58482  0.96087  1.0000
  H   H677      1.0  0.10983  0.52587  0.84682  1.0000
  C   C669      1.0  0.12248  0.53399  0.84537  1.0000
  N   N58       1.0  0.38060  0.82003  0.96095  1.0000
  C   C670      1.0  0.45934  0.91128  0.88623  1.0000
  Fe  Fe121     1.0  0.18801  0.65645  0.83076  1.0000
  S   S240      1.0  0.20017  0.64853  0.79894  1.0000
  S   S241      1.0  0.18981  0.68981  0.83036  1.0000
  Fe  Fe122     1.0  0.17935  0.61212  0.85202  1.0000
  S   S242      1.0  0.19175  0.60033  0.82192  1.0000
  S   S243      1.0  0.16984  0.58924  0.88267  1.0000
  Fe  Fe123     1.0  0.21746  0.61838  0.81637  1.0000
  S   S244      1.0  0.25205  0.60907  0.80329  1.0000
  Fe  Fe124     1.0  0.17328  0.63161  0.80728  1.0000
  S   S245      1.0  0.15272  0.63165  0.78549  1.0000
  S   S246      1.0  0.20707  0.62716  0.84783  1.0000
  S   S247      1.0  0.15894  0.64238  0.83782  1.0000
  C   C671      1.0  0.42280  0.84237  0.91444  1.0000
  C   C672      1.0  0.29136  0.66395  0.77871  1.0000
  H   H678      1.0  0.36452  0.98466  0.82340  1.0000
  S   S248      1.0  0.48362  0.96148  0.88846  1.0000
  C   C673      1.0  0.29888  0.57475  0.79191  1.0000
  C   C674      1.0  0.37240  0.85540  0.80637  1.0000
  C   C675      1.0  0.46211  0.87145  0.87940  1.0000
  H   H679      1.0  0.30439  0.65082  0.77409  1.0000
  C   C676      1.0  0.25625  0.61581  0.77569  1.0000
  C   C677      1.0  0.43206  0.81287  0.94283  1.0000
  C   C678      1.0  0.24436  0.62085  0.74307  1.0000
  H   H680      1.0  0.13318  0.67126  0.80479  1.0000
  H   H681      1.0  0.28814  0.61980  0.77200  1.0000
  H   H682      1.0  0.22492  0.61369  0.77423  1.0000
  S   S249      1.0  0.44113  0.86587  0.95475  1.0000
  C   C679      1.0  0.27598  0.61984  0.76400  1.0000
  H   H683      1.0  0.10689  0.56388  0.82904  1.0000
  H   H684      1.0  0.39781  0.80373  0.76724  1.0000
  C   C680      1.0  0.32939  0.58564  0.76832  1.0000
  C   C681      1.0  0.48992  0.81548  0.88756  1.0000
  H   H685      1.0  0.39689  0.91134  0.94966  1.0000
  H   H686      1.0  0.48821  0.91208  0.90606  1.0000
  C   C682      1.0  0.15198  0.69549  0.79622  1.0000
  Fe  Fe125     1.0  0.28692  0.76446  0.76060  1.0000
  H   H687      1.0  0.31317  0.70664  0.83856  1.0000
  C   C683      1.0  0.25923  0.69453  0.81960  1.0000
  C   C684      1.0  0.24454  0.71215  0.81176  1.0000
  C   C685      1.0  0.22310  0.71086  0.81529  1.0000
  C   C686      1.0  0.21643  0.69188  0.82648  1.0000
  C   C687      1.0  0.23119  0.67446  0.83440  1.0000
  C   C688      1.0  0.25247  0.67578  0.83106  1.0000
  H   H688      1.0  0.24964  0.72677  0.80311  1.0000
  H   H689      1.0  0.21178  0.72447  0.80913  1.0000
  H   H690      1.0  0.22617  0.66005  0.84362  1.0000
  H   H691      1.0  0.26369  0.66219  0.83743  1.0000
  N   N59       1.0  0.40088  0.94644  0.98536  1.0000
  S   S250      1.0  0.39613  0.92853  0.90449  1.0000
  H   H692      1.0  0.30130  0.55318  0.76345  1.0000
  C   C689      1.0  0.42504  0.82068  0.92369  1.0000
  C   C690      1.0  0.16082  0.64212  0.75827  1.0000
  H   H693      1.0  0.38038  0.85094  0.94098  1.0000
  H   H694      1.0  0.46892  0.81061  0.87069  1.0000
  C   C691      1.0  0.39130  0.89781  0.85311  1.0000
  C   C692      1.0  0.39287  0.91925  0.84803  1.0000
  C   C693      1.0  0.39426  0.92895  0.86370  1.0000
  C   C694      1.0  0.39367  0.91731  0.88455  1.0000
  C   C695      1.0  0.39157  0.89607  0.88967  1.0000
  C   C696      1.0  0.39064  0.88628  0.87397  1.0000
  H   H695      1.0  0.39342  0.92821  0.83190  1.0000
  H   H696      1.0  0.44032  0.88717  0.85846  1.0000
  H   H697      1.0  0.39088  0.88709  0.90578  1.0000
  H   H698      1.0  0.38915  0.86983  0.87804  1.0000
  C   C697      1.0  0.38158  0.78222  0.82096  1.0000
  C   C698      1.0  0.36408  0.79520  0.83103  1.0000
  C   C699      1.0  0.34355  0.79534  0.82908  1.0000
  C   C700      1.0  0.34050  0.78266  0.81693  1.0000
  C   C701      1.0  0.35794  0.76931  0.80731  1.0000
  C   C702      1.0  0.37843  0.76905  0.80939  1.0000
  H   H699      1.0  0.36640  0.80531  0.84006  1.0000
  H   H700      1.0  0.33005  0.80564  0.83661  1.0000
  H   H701      1.0  0.35574  0.75951  0.79787  1.0000
  H   H702      1.0  0.39195  0.75898  0.80158  1.0000
  C   C703      1.0  0.34601  0.66632  0.75676  1.0000
  H   H703      1.0  0.24894  0.66864  0.79010  1.0000
  H   H704      1.0  0.41628  0.84876  0.90039  1.0000
  H   H705      1.0  0.29727  0.57984  0.74749  1.0000
  C   C704      1.0  0.11058  0.56382  0.88873  1.0000
  C   C705      1.0  0.12612  0.55220  0.90029  1.0000
  C   C706      1.0  0.14407  0.56032  0.89865  1.0000
  C   C707      1.0  0.14670  0.57997  0.88521  1.0000
  C   C708      1.0  0.13100  0.59182  0.87392  1.0000
  C   C709      1.0  0.11285  0.58384  0.87586  1.0000
  H   H706      1.0  0.12429  0.53703  0.91062  1.0000
  H   H707      1.0  0.15607  0.55118  0.90759  1.0000
  H   H708      1.0  0.13273  0.60721  0.86387  1.0000
  H   H709      1.0  0.10067  0.59305  0.86717  1.0000
  H   H710      1.0  0.33578  0.85153  0.79997  1.0000
  S   S251      1.0  0.43211  0.96774  0.86474  1.0000
  H   H711      1.0  0.18092  0.55727  0.96464  1.0000
  H   H712      1.0  0.19034  0.71244  0.78350  1.0000
  H   H713      1.0  0.14835  0.59770  0.93035  1.0000
  H   H714      1.0  0.17492  0.73773  0.77303  1.0000
  H   H715      1.0  0.16857  0.72578  0.80070  1.0000
  H   H716      1.0  0.11184  0.51641  0.94576  1.0000
  C   C710      1.0  0.43505  0.84832  0.94299  1.0000
  H   H717      1.0  0.14047  0.62687  0.74968  1.0000
  C   C711      1.0  0.13510  0.58812  0.82251  1.0000
  H   H718      1.0  0.14499  0.59629  0.82744  1.0000
  C   C712      1.0  0.28004  0.62398  0.74193  1.0000
  H   H719      1.0  0.48073  0.80949  0.90293  1.0000
  H   H720      1.0  0.02519  0.52587  0.94265  1.0000
  H   H721      1.0  0.36163  0.80358  0.76356  1.0000
  C   C713      1.0  0.30198  0.58344  0.80741  1.0000
  C   C714      1.0  0.39023  0.78285  0.97650  1.0000
  C   C715      1.0  0.31915  0.59334  0.80313  1.0000
  H   H722      1.0  0.45791  0.92691  0.88903  1.0000
  H   H723      1.0  0.14228  0.57189  0.94358  1.0000
  C   C716      1.0  0.15610  0.53392  0.85264  1.0000
  C   C717      1.0  0.11757  0.51540  0.95970  1.0000
  Fe  Fe126     1.0  0.44958  0.97442  0.88584  1.0000
  C   C718      1.0  0.38972  0.94299  0.95531  1.0000
  C   C719      1.0  0.37292  0.83700  0.94394  1.0000
  C   C720      1.0  0.44937  0.88905  0.86894  1.0000
  H   H724      1.0  0.29817  0.67790  0.77749  1.0000
  Fe  Fe127     1.0  0.33129  0.73846  0.75871  1.0000
  H   H725      1.0  0.43365  0.79614  0.95018  1.0000
  C   C721      1.0  0.17513  0.65595  0.75073  1.0000
  C   C722      1.0  0.23279  0.73606  0.75336  1.0000
  H   H726      1.0  0.32147  0.60055  0.81484  1.0000
  N   N60       1.0  0.36951  0.84188  0.79377  1.0000
  C   C723      1.0  0.38671  0.82850  0.78491  1.0000
  C   C724      1.0  0.34951  0.84164  0.79216  1.0000
  C   C725      1.0  0.12459  0.49560  0.97218  1.0000
  C   C726      1.0  0.34641  0.82813  0.78096  1.0000
  C   C727      1.0  0.36390  0.81471  0.77158  1.0000
  C   C728      1.0  0.25482  0.67160  0.77312  1.0000
  H   H727      1.0  0.29056  0.58325  0.82228  1.0000
  C   C729      1.0  0.15159  0.63746  0.74399  1.0000
  C   C730      1.0  0.34814  0.68699  0.75558  1.0000
  C   C731      1.0  0.38420  0.81485  0.77356  1.0000
  C   C732      1.0  0.38432  0.82515  0.97791  1.0000
  H   H728      1.0  0.48163  0.86827  0.96188  1.0000
  C   C733      1.0  0.17089  0.57038  0.97138  1.0000
  C   C734      1.0  0.44800  0.90910  0.87233  1.0000
  C   C735      1.0  0.43694  0.82670  0.95255  1.0000
  H   H729      1.0  0.23200  0.72126  0.76489  1.0000
  C   C736      1.0  0.15564  0.71520  0.76071  1.0000
  C   C737      1.0  0.00801  0.52991  0.94505  1.0000
  C   C738      1.0  0.12090  0.55550  0.83540  1.0000
  C   C739      1.0  0.42797  0.85612  0.92396  1.0000
  H   H730      1.0  0.42601  0.87294  0.91681  1.0000
  H   H731      1.0  0.39576  0.94540  0.85967  1.0000
  N   N61       1.0  0.27610  0.66980  0.76481  1.0000
  S   S252      1.0  0.12184  0.49606  0.90679  1.0000
  C   C740      1.0  0.30843  0.56749  0.75636  1.0000
  C   C741      1.0  0.15405  0.55541  0.84249  1.0000
  H   H732      1.0  0.44231  0.82056  0.96732  1.0000
  N   N62       1.0  0.28607  0.72605  0.85325  1.0000
  C   C742      1.0  0.26650  0.72233  0.85436  1.0000
  C   C743      1.0  0.28902  0.74638  0.84953  1.0000
  C   C744      1.0  0.24921  0.73922  0.85181  1.0000
  C   C745      1.0  0.27202  0.76364  0.84721  1.0000
  C   C746      1.0  0.25202  0.76000  0.84828  1.0000
  C   C747      1.0  0.30433  0.70830  0.85472  1.0000
  H   H733      1.0  0.26426  0.70626  0.85670  1.0000
  H   H734      1.0  0.30468  0.74942  0.84792  1.0000
  H   H735      1.0  0.23388  0.73616  0.85211  1.0000
  H   H736      1.0  0.27459  0.77975  0.84383  1.0000
  H   H737      1.0  0.23885  0.77329  0.84588  1.0000
  H   H738      1.0  0.16224  0.72723  0.74810  1.0000
  H   H739      1.0  0.31520  0.71095  0.86340  1.0000
  H   H740      1.0  0.29927  0.69304  0.86309  1.0000
  C   C748      1.0  0.24563  0.74921  0.75442  1.0000
  Fe  Fe128     1.0  0.40821  0.95900  0.89418  1.0000
  H   H741      1.0  0.38249  0.95021  0.94160  1.0000
  H   H742      1.0  0.16926  0.57483  0.93154  1.0000
  C   C749      1.0  0.38319  0.79919  0.96022  1.0000
  H   H743      1.0  0.48266  0.86024  0.90168  1.0000
  H   H744      1.0  0.39272  0.76637  0.97562  1.0000
  S   S253      1.0  0.07802  0.49861  0.89141  1.0000
  H   H745      1.0  0.16633  0.56372  0.84176  1.0000
  N   N63       1.0  0.31262  0.57575  0.77273  1.0000
  H   H746      1.0  0.28387  0.65851  0.79554  1.0000
  H   H747      1.0  0.35543  0.84202  0.94819  1.0000
  H   H748      1.0  0.38039  0.79510  0.94671  1.0000
  C   C750      1.0  0.14280  0.60065  0.96996  1.0000
  C   C751      1.0  0.47323  0.87413  0.89323  1.0000
  H   H749      1.0  0.12525  0.67869  0.76909  1.0000
  H   H750      1.0  0.25465  0.74455  0.76674  1.0000
  H   H751      1.0  0.34051  0.65651  0.77194  1.0000
  H   H752      1.0  0.13060  0.61145  0.96209  1.0000
  C   C752      1.0  0.13913  0.68388  0.79244  1.0000
  S   S254      1.0  0.31813  0.77325  0.75689  1.0000
  H   H753      1.0  0.15570  0.69188  0.81177  1.0000
  H   H754      1.0  0.00705  0.51597  0.92010  1.0000
  H   H755      1.0  0.32328  0.56283  0.74499  1.0000
  C   C753      1.0  0.14030  0.52312  0.85385  1.0000
  H   H756      1.0  0.37243  0.84638  0.82290  1.0000
  C   C754      1.0  0.11765  0.53408  0.96536  1.0000
  C   C755      1.0  0.13459  0.68811  0.77239  1.0000
  C   C756      1.0  0.48310  0.81630  0.86926  1.0000
  C   C757      1.0  0.33300  0.59441  0.78350  1.0000
  H   H757      1.0  0.14173  0.50640  0.86146  1.0000
  C   C758      1.0  0.39157  0.95550  0.96821  1.0000
  H   H758      1.0  0.47251  0.89553  0.92708  1.0000
  H   H759      1.0  0.38763  0.86100  0.79983  1.0000
  H   H760      1.0  0.35962  0.86986  0.80658  1.0000
  H   H761      1.0  0.48323  0.83755  0.94673  1.0000
  H   H762      1.0  0.41346  0.89513  0.98098  1.0000
  H   H763      1.0  0.40245  0.82778  0.78715  1.0000
  H   H764      1.0  0.28489  0.56801  0.79505  1.0000
  C   C759      1.0  0.15394  0.58218  0.94063  1.0000
  H   H765      1.0  0.18215  0.65986  0.76162  1.0000
  H   H766      1.0  0.33990  0.58720  0.75288  1.0000
  H   H767      1.0  0.11184  0.54935  0.95580  1.0000
  C   C760      1.0  0.48320  0.89647  0.91125  1.0000
  H   H768      1.0  0.46301  0.85577  0.87717  1.0000
  H   H769      1.0  0.13996  0.70678  0.74056  1.0000
  S   S255      1.0  0.48618  0.82471  0.82656  1.0000
  C   C761      1.0  0.28342  0.67374  0.74338  1.0000
  C   C762      1.0  0.14291  0.70383  0.75637  1.0000
  C   C763      1.0  0.24030  0.67706  0.75981  1.0000
  H   H770      1.0  0.22344  0.67868  0.76631  1.0000
  C   C764      1.0  0.99608  0.54054  0.96092  1.0000
  H   H771      1.0  0.33050  0.82738  0.78033  1.0000
  H   H772      1.0  0.37720  0.83166  0.92876  1.0000
  C   C765      1.0  0.40724  0.91208  0.97733  1.0000
  H   H773      1.0  0.38563  0.97252  0.96431  1.0000
  H   H774      1.0  0.34619  0.60247  0.77980  1.0000
  C   C766      1.0  0.12448  0.53301  0.98371  1.0000
  H   H775      1.0  0.00387  0.54483  0.97108  1.0000
  S   S256      1.0  0.34683  0.63308  0.73997  1.0000
  C   C767      1.0  0.99764  0.52426  0.93234  1.0000
  C   C768      1.0  0.45747  0.99003  0.95736  1.0000
  C   C769      1.0  0.24672  0.76837  0.73961  1.0000
  S   S257      1.0  0.26429  0.78379  0.73977  1.0000
  H   H776      1.0  0.44489  0.99057  0.93063  1.0000
  H   H777      1.0  0.56432  0.00835  0.05095  1.0000
  S   S258      1.0  0.96389  0.30922  0.01643  1.0000
  H   H778      1.0  0.73155  0.10817  0.20370  1.0000
  Fe  Fe129     1.0  0.97033  0.36770  0.00108  1.0000
  S   S259      1.0  0.96456  0.35005  0.03500  1.0000
  S   S260      1.0  0.79884  0.11081  0.22302  1.0000
  H   H779      1.0  0.53386  0.00924  0.09139  1.0000
  Fe  Fe130     1.0  0.94071  0.33766  0.02584  1.0000
  S   S261      1.0  0.90901  0.33616  0.04786  1.0000
  C   C770      1.0  0.89851  0.47160  0.04135  1.0000
  C   C771      1.0  0.91826  0.42002  0.01038  1.0000
  C   C772      1.0  0.81633  0.08655  0.16874  1.0000
  H   H780      1.0  0.53797  0.03110  0.00522  1.0000
  H   H781      1.0  0.71459  0.21635  0.09725  1.0000
  S   S262      1.0  0.96929  0.45240  0.05660  1.0000
  H   H782      1.0  0.89362  0.09630  0.16850  1.0000
  H   H783      1.0  0.57602  0.07563  0.01100  1.0000
  H   H784      1.0  0.88695  0.15595  0.18809  1.0000
  S   S263      1.0  0.60694  0.01070  0.09650  1.0000
  C   C773      1.0  0.85005  0.21372  0.18399  1.0000
  Fe  Fe131     1.0  0.83201  0.24346  0.13426  1.0000
  S   S264      1.0  0.86673  0.23282  0.12156  1.0000
  S   S265      1.0  0.81767  0.26169  0.15992  1.0000
  Fe  Fe132     1.0  0.81833  0.21919  0.11022  1.0000
  S   S266      1.0  0.85153  0.20603  0.09503  1.0000
  S   S267      1.0  0.78772  0.21409  0.10631  1.0000
  Fe  Fe133     1.0  0.85880  0.20081  0.12706  1.0000
  S   S268      1.0  0.88255  0.17246  0.13905  1.0000
  Fe  Fe134     1.0  0.85722  0.23889  0.09039  1.0000
  S   S269      1.0  0.87798  0.25117  0.05933  1.0000
  S   S270      1.0  0.82509  0.21078  0.14279  1.0000
  S   S271      1.0  0.82317  0.25265  0.10246  1.0000
  N   N64       1.0  0.93231  0.26592  0.08440  1.0000
  H   H785      1.0  0.87814  0.19222  0.17279  1.0000
  Fe  Fe135     1.0  0.66975  0.23542  0.23082  1.0000
  C   C774      1.0  0.56126  0.01590  0.03478  1.0000
  C   C775      1.0  0.84226  0.17965  0.21720  1.0000
  C   C776      1.0  0.92482  0.28566  0.08890  1.0000
  H   H786      1.0  0.82243  0.06637  0.20738  1.0000
  Fe  Fe136     1.0  0.70094  0.26281  0.20396  1.0000
  S   S272      1.0  0.71910  0.27039  0.17053  1.0000
  C   C777      1.0  0.95301  0.26019  0.07466  1.0000
  S   S273      1.0  0.66551  0.26794  0.20975  1.0000
  Fe  Fe137     1.0  0.73864  0.12120  0.14832  1.0000
  S   S274      1.0  0.72099  0.13539  0.12183  1.0000
  S   S275      1.0  0.77285  0.12072  0.14680  1.0000
  Fe  Fe138     1.0  0.69929  0.11223  0.18094  1.0000
  S   S276      1.0  0.67752  0.12616  0.15791  1.0000
  S   S277      1.0  0.68932  0.09856  0.21546  1.0000
  Fe  Fe139     1.0  0.70336  0.10858  0.13610  1.0000
  S   S278      1.0  0.69733  0.08807  0.11725  1.0000
  Fe  Fe140     1.0  0.69680  0.15174  0.14557  1.0000
  S   S279      1.0  0.68629  0.18712  0.13977  1.0000
  S   S280      1.0  0.72370  0.09260  0.16033  1.0000
  S   S281      1.0  0.71569  0.13949  0.17088  1.0000
  Fe  Fe141     1.0  0.60157  0.08974  0.07248  1.0000
  S   S282      1.0  0.57764  0.07029  0.09264  1.0000
  S   S283      1.0  0.61078  0.11329  0.08538  1.0000
  Fe  Fe142     1.0  0.60628  0.07198  0.03402  1.0000
  S   S284      1.0  0.58346  0.05066  0.05106  1.0000
  S   S285      1.0  0.62140  0.07235  0.99985  1.0000
  Fe  Fe143     1.0  0.56362  0.07868  0.06373  1.0000
  S   S286      1.0  0.52921  0.08541  0.06218  1.0000
  Fe  Fe144     1.0  0.59965  0.04409  0.07810  1.0000
  S   S287      1.0  0.58533  0.10080  0.04473  1.0000
  S   S288      1.0  0.62466  0.06278  0.05995  1.0000
  H   H787      1.0  0.96968  0.30586  0.06899  1.0000
  C   C778      1.0  0.53191  0.04279  0.07850  1.0000
  H   H788      1.0  0.66702  0.25837  0.14141  1.0000
  H   H789      1.0  0.54353  0.04389  0.08662  1.0000
  C   C779      1.0  0.67362  0.09574  0.10777  1.0000
  C   C780      1.0  0.66839  0.08192  0.09835  1.0000
  C   C781      1.0  0.64909  0.08708  0.09158  1.0000
  C   C782      1.0  0.63502  0.10623  0.09393  1.0000
  C   C783      1.0  0.64035  0.12017  0.10312  1.0000
  C   C784      1.0  0.65958  0.11491  0.11012  1.0000
  H   H790      1.0  0.67919  0.06703  0.09657  1.0000
  H   H791      1.0  0.64514  0.07617  0.08463  1.0000
  H   H792      1.0  0.62955  0.13504  0.10497  1.0000
  H   H793      1.0  0.66354  0.12569  0.11730  1.0000
  C   C785      1.0  0.66289  0.20364  0.20461  1.0000
  C   C786      1.0  0.65616  0.18729  0.20036  1.0000
  C   C787      1.0  0.66352  0.18202  0.18049  1.0000
  C   C788      1.0  0.67721  0.19344  0.16470  1.0000
  C   C789      1.0  0.68410  0.20961  0.16905  1.0000
  C   C790      1.0  0.67693  0.21474  0.18894  1.0000
  C   C791      1.0  0.80803  0.06433  0.20418  1.0000
  H   H794      1.0  0.65828  0.16937  0.17724  1.0000
  H   H795      1.0  0.69542  0.21776  0.15728  1.0000
  H   H796      1.0  0.68224  0.22734  0.19210  1.0000
  C   C792      1.0  0.78394  0.18816  0.11836  1.0000
  C   C793      1.0  0.80074  0.17193  0.12434  1.0000
  C   C794      1.0  0.79741  0.15111  0.13325  1.0000
  C   C795      1.0  0.77725  0.14665  0.13629  1.0000
  C   C796      1.0  0.76041  0.16306  0.13098  1.0000
  C   C797      1.0  0.76376  0.18371  0.12200  1.0000
  H   H797      1.0  0.81640  0.17528  0.12165  1.0000
  H   H798      1.0  0.81048  0.13849  0.13748  1.0000
  H   H799      1.0  0.74476  0.15990  0.13352  1.0000
  H   H800      1.0  0.75062  0.19611  0.11786  1.0000
  C   C798      1.0  0.78992  0.26654  0.16321  1.0000
  C   C799      1.0  0.78077  0.27153  0.14549  1.0000
  C   C800      1.0  0.75887  0.27377  0.14791  1.0000
  C   C801      1.0  0.74594  0.27062  0.16811  1.0000
  C   C802      1.0  0.75491  0.26620  0.18592  1.0000
  C   C803      1.0  0.77690  0.26431  0.18347  1.0000
  H   H801      1.0  0.79056  0.27393  0.12984  1.0000
  H   H802      1.0  0.75209  0.27753  0.13405  1.0000
  H   H803      1.0  0.74498  0.26397  0.20155  1.0000
  H   H804      1.0  0.78385  0.26054  0.19726  1.0000
  C   C804      1.0  0.84699  0.13107  0.17904  1.0000
  C   C805      1.0  0.85277  0.14977  0.16551  1.0000
  C   C806      1.0  0.87350  0.14918  0.15359  1.0000
  C   C807      1.0  0.88809  0.12985  0.15471  1.0000
  H   H805      1.0  0.83120  0.13167  0.18869  1.0000
  H   H806      1.0  0.84148  0.16469  0.16491  1.0000
  H   H807      1.0  0.90415  0.12935  0.14564  1.0000
  C   C808      1.0  0.71074  0.09061  0.22843  1.0000
  C   C809      1.0  0.71569  0.22948  0.10333  1.0000
  H   H808      1.0  0.65872  0.08072  0.01075  1.0000
  C   C810      1.0  0.97492  0.41523  0.00682  1.0000
  C   C811      1.0  0.97710  0.40458  0.02739  1.0000
  C   C812      1.0  0.97577  0.41615  0.04247  1.0000
  C   C813      1.0  0.97200  0.43838  0.03709  1.0000
  C   C814      1.0  0.97037  0.44899  0.01635  1.0000
  H   H809      1.0  0.97730  0.40785  0.05845  1.0000
  H   H810      1.0  0.81388  0.20095  0.22891  1.0000
  H   H811      1.0  0.92349  0.23713  0.10324  1.0000
  H   H812      1.0  0.96758  0.46609  0.01201  1.0000
  N   N65       1.0  0.91055  0.43713  0.02202  1.0000
  C   C815      1.0  0.86406  0.19401  0.18516  1.0000
  H   H813      1.0  0.64440  0.01953  0.12606  1.0000
  C   C816      1.0  0.89930  0.31336  0.05012  1.0000
  C   C817      1.0  0.88214  0.30834  0.06643  1.0000
  C   C818      1.0  0.87531  0.28928  0.06942  1.0000
  C   C819      1.0  0.88548  0.27542  0.05586  1.0000
  C   C820      1.0  0.90226  0.28071  0.03926  1.0000
  C   C821      1.0  0.90912  0.29964  0.03637  1.0000
  H   H814      1.0  0.87437  0.31901  0.07701  1.0000
  H   H815      1.0  0.86223  0.28534  0.08218  1.0000
  H   H816      1.0  0.91017  0.27004  0.02873  1.0000
  H   H817      1.0  0.92195  0.30365  0.02343  1.0000
  H   H818      1.0  0.87532  0.29836  0.00819  1.0000
  C   C822      1.0  0.50735  0.05925  0.05494  1.0000
  N   N66       1.0  0.54875  0.00441  0.02848  1.0000
  C   C823      1.0  0.88215  0.11115  0.16766  1.0000
  Fe  Fe145     1.0  0.83215  0.09610  0.22645  1.0000
  H   H819      1.0  0.59759  0.07721  0.12794  1.0000
  C   C824      1.0  0.72961  0.09810  0.21932  1.0000
  H   H820      1.0  0.61029  0.04189  0.11822  1.0000
  N   N67       1.0  0.76121  0.19849  0.17128  1.0000
  C   C825      1.0  0.74062  0.19598  0.17664  1.0000
  C   C826      1.0  0.77737  0.18137  0.17464  1.0000
  C   C827      1.0  0.73582  0.17578  0.18494  1.0000
  C   C828      1.0  0.77315  0.16094  0.18296  1.0000
  C   C829      1.0  0.75225  0.15814  0.18801  1.0000
  C   C830      1.0  0.76607  0.21967  0.16237  1.0000
  H   H821      1.0  0.72779  0.20963  0.17433  1.0000
  H   H822      1.0  0.79366  0.18339  0.17077  1.0000
  H   H823      1.0  0.71949  0.17388  0.18862  1.0000
  H   H824      1.0  0.78608  0.14741  0.18522  1.0000
  C   C831      1.0  0.61397  0.99217  0.04237  1.0000
  H   H825      1.0  0.77073  0.22528  0.17431  1.0000
  H   H826      1.0  0.77924  0.21943  0.14836  1.0000
  H   H827      1.0  0.75233  0.23134  0.15691  1.0000
  H   H828      1.0  0.61883  0.08926  0.14599  1.0000
  N   N68       1.0  0.64334  0.06143  0.14609  1.0000
  H   H829      1.0  0.67281  0.06204  0.15283  1.0000
  N   N69       1.0  0.85998  0.17724  0.20157  1.0000
  C   C832      1.0  0.96677  0.27441  0.06909  1.0000
  H   H830      1.0  0.90159  0.25780  0.09601  1.0000
  H   H831      1.0  0.66547  0.03223  0.14401  1.0000
  C   C833      1.0  0.73621  0.25256  0.10737  1.0000
  H   H832      1.0  0.62166  0.01718  0.05174  1.0000
  N   N70       1.0  0.80280  0.07330  0.18483  1.0000
  H   H833      1.0  0.82079  0.23140  0.19899  1.0000
  H   H834      1.0  0.90840  0.29034  0.09651  1.0000
  C   C834      1.0  0.66752  0.10818  0.04256  1.0000
  H   H835      1.0  0.83341  0.07948  0.16856  1.0000
  H   H836      1.0  0.81291  0.10262  0.17217  1.0000
  C   C835      1.0  0.92005  0.43716  0.03781  1.0000
  C   C836      1.0  0.82801  0.19919  0.21658  1.0000
  H   H837      1.0  0.79861  0.04614  0.23579  1.0000
  H   H838      1.0  0.55154  0.06483  0.99577  1.0000
  H   H839      1.0  0.85315  0.22695  0.17088  1.0000
  H   H840      1.0  0.92903  0.42549  0.99523  1.0000
  H   H841      1.0  0.68358  0.23304  0.12074  1.0000
  C   C837      1.0  0.73478  0.23644  0.09855  1.0000
  C   C838      1.0  0.62441  0.07381  0.14193  1.0000
  H   H842      1.0  0.68547  0.25934  0.15633  1.0000
  C   C839      1.0  0.86177  0.11174  0.18015  1.0000
  C   C840      1.0  0.63869  0.10969  0.01863  1.0000
  C   C841      1.0  0.65649  0.09313  0.01925  1.0000
  H   H843      1.0  0.57676  0.01609  0.02358  1.0000
  S   S289      1.0  0.79288  0.16772  0.22374  1.0000
  H   H844      1.0  0.50050  0.07298  0.04418  1.0000
  H   H845      1.0  0.97986  0.38746  0.03172  1.0000
  H   H846      1.0  0.92232  0.45459  0.05975  1.0000
  C   C842      1.0  0.95920  0.29462  0.07343  1.0000
  C   C843      1.0  0.64949  0.12446  0.04166  1.0000
  C   C844      1.0  0.52635  0.00371  0.00584  1.0000
  C   C845      1.0  0.60828  0.99513  0.07873  1.0000
  C   C846      1.0  0.83189  0.21625  0.19979  1.0000
  H   H847      1.0  0.87694  0.48493  0.01990  1.0000
  H   H848      1.0  0.86645  0.14361  0.20604  1.0000
  C   C847      1.0  0.89062  0.25315  0.00104  1.0000
  N   N71       1.0  0.88142  0.27334  0.99223  1.0000
  H   H849      1.0  0.64646  0.13620  0.05113  1.0000
  C   C848      1.0  0.63872  0.03481  0.13053  1.0000
  C   C849      1.0  0.89501  0.45389  0.01580  1.0000
  H   H850      1.0  0.88675  0.24696  0.01796  1.0000
  C   C850      1.0  0.68169  0.26398  0.14028  1.0000
  H   H851      1.0  0.75122  0.25756  0.10423  1.0000
  C   C851      1.0  0.87497  0.15677  0.20304  1.0000
  H   H852      1.0  0.88337  0.15408  0.21611  1.0000
  C   C852      1.0  0.97214  0.43738  0.00116  1.0000
  H   H853      1.0  0.65365  0.08609  0.15311  1.0000
  C   C853      1.0  0.91426  0.45440  0.04765  1.0000
  N   N72       1.0  0.69969  0.25485  0.12528  1.0000
  H   H854      1.0  0.67837  0.28160  0.13548  1.0000
  H   H855      1.0  0.76042  0.09866  0.22354  1.0000
  C   C854      1.0  0.58211  0.06895  0.99711  1.0000
  C   C855      1.0  0.52636  0.02320  0.08128  1.0000
  C   C856      1.0  0.74601  0.09271  0.23059  1.0000
  H   H856      1.0  0.90484  0.41547  0.00688  1.0000
  C   C857      1.0  0.65049  0.04208  0.14067  1.0000
  S   S290      1.0  0.70514  0.22933  0.22279  1.0000
  S   S291      1.0  0.65464  0.20942  0.22982  1.0000
  H   H857      1.0  0.60857  0.14327  0.01636  1.0000
  H   H858      1.0  0.77154  0.21018  0.21125  1.0000
  C   C858      1.0  0.76671  0.20529  0.22821  1.0000
  H   H859      1.0  0.93250  0.42402  0.04261  1.0000
  S   S292      1.0  0.50488  0.99679  0.07458  1.0000
  C   C859      1.0  0.77599  0.05026  0.21644  1.0000
  C   C860      1.0  0.50169  0.03964  0.05784  1.0000
  Fe  Fe146     1.0  0.98811  0.32324  0.02280  1.0000
  H   H860      1.0  0.76523  0.04184  0.22902  1.0000
  H   H861      1.0  0.81358  0.08845  0.15261  1.0000
  H   H862      1.0  0.85314  0.29641  0.99841  1.0000
  H   H863      1.0  0.51756  0.01182  0.99342  1.0000
  C   C861      1.0  0.65552  0.06850  0.15731  1.0000
  C   C862      1.0  0.91842  0.25050  0.09040  1.0000
  H   H864      1.0  0.61899  0.99856  0.02568  1.0000
  C   C863      1.0  0.93808  0.30035  0.08330  1.0000
  S   S293      1.0  0.94415  0.35787  0.99295  1.0000
  C   C864      1.0  0.67096  0.09238  0.03133  1.0000
  H   H865      1.0  0.78011  0.07817  0.16573  1.0000
  H   H866      1.0  0.62735  0.10988  0.00949  1.0000
  H   H867      1.0  0.93186  0.31625  0.08622  1.0000
  S   S294      1.0  0.85547  0.08834  0.19771  1.0000
  C   C865      1.0  0.78442  0.07097  0.18097  1.0000
  C   C866      1.0  0.53785  0.01453  0.01264  1.0000
  C   C867      1.0  0.51116  0.02162  0.07107  1.0000
  H   H868      1.0  0.74891  0.14228  0.19407  1.0000
  C   C868      1.0  0.86684  0.28717  0.00573  1.0000
  H   H869      1.0  0.60481  0.13878  0.04467  1.0000
  H   H870      1.0  0.65021  0.06330  0.17466  1.0000
  H   H871      1.0  0.62044  0.15768  0.02770  1.0000
  C   C869      1.0  0.61228  0.06705  0.13177  1.0000
  C   C870      1.0  0.71836  0.26173  0.12069  1.0000
  H   H872      1.0  0.74866  0.22892  0.08852  1.0000
  C   C871      1.0  0.79473  0.05270  0.22026  1.0000
  H   H873      1.0  0.64521  0.17873  0.21240  1.0000
  H   H874      1.0  0.67838  0.10750  0.05244  1.0000
  H   H875      1.0  0.71954  0.27422  0.12758  1.0000
  H   H876      1.0  0.75591  0.05816  0.19372  1.0000
  C   C872      1.0  0.61950  0.04739  0.12611  1.0000
  H   H877      1.0  0.55270  0.03251  0.03506  1.0000
  C   C873      1.0  0.69817  0.23899  0.11671  1.0000
  C   C874      1.0  0.52230  0.06088  0.06547  1.0000
  C   C875      1.0  0.77074  0.05946  0.19669  1.0000
  H   H878      1.0  0.95896  0.24453  0.07114  1.0000
  C   C876      1.0  0.88870  0.47133  0.02541  1.0000
  H   H879      1.0  0.92723  0.40553  0.01947  1.0000
  H   H880      1.0  0.83891  0.16640  0.23020  1.0000
  H   H881      1.0  0.68462  0.07940  0.03228  1.0000
  H   H882      1.0  0.98319  0.26992  0.06129  1.0000
  H   H883      1.0  0.86035  0.27787  0.02153  1.0000
  H   H884      1.0  0.91881  0.24415  0.07655  1.0000
  C   C877      1.0  0.61536  0.00280  0.05713  1.0000
  H   H885      1.0  0.88814  0.45429  0.00265  1.0000
  C   C878      1.0  0.61639  0.14206  0.02952  1.0000
  N   N73       1.0  0.63545  0.12514  0.02967  1.0000
  Fe  Fe147     1.0  0.96182  0.48805  0.04713  1.0000
  S   S295      1.0  0.70117  0.27702  0.23054  1.0000
  H   H886      1.0  0.91238  0.22411  0.99549  1.0000
  H   H887      1.0  0.68122  0.14791  0.22127  1.0000
  H   H888      1.0  0.74423  0.23441  0.23111  1.0000
  H   H889      1.0  0.69618  0.18109  0.22909  1.0000
  H   H890      1.0  0.89421  0.48529  0.04850  1.0000
  Fe  Fe148     1.0  0.66586  0.27926  0.23830  1.0000
  C   C879      1.0  0.70527  0.16687  0.23750  1.0000
  H   H891      1.0  0.49201  0.10869  0.09521  1.0000
  H   H892      1.0  0.73041  0.18249  0.23642  1.0000
  H   H893      1.0  0.93474  0.46559  0.99398  1.0000
  C   C880      1.0  0.67835  0.14745  0.23846  1.0000
  Fe  Fe149     1.0  0.53180  0.37137  0.34316  1.0000
  S   S296      1.0  0.56291  0.37081  0.32034  1.0000
  C   C881      1.0  0.82179  0.04361  0.32036  1.0000
  Fe  Fe150     1.0  0.55113  0.36605  0.38105  1.0000
  S   S297      1.0  0.58428  0.36435  0.36171  1.0000
  S   S298      1.0  0.54068  0.36652  0.41560  1.0000
  Fe  Fe151     1.0  0.56922  0.39147  0.33855  1.0000
  S   S299      1.0  0.57861  0.42293  0.32287  1.0000
  Fe  Fe152     1.0  0.57507  0.34377  0.34537  1.0000
  S   S300      1.0  0.59500  0.31240  0.33904  1.0000
  S   S301      1.0  0.53679  0.39446  0.35908  1.0000
  S   S302      1.0  0.54312  0.34289  0.36705  1.0000
  H   H894      1.0  0.49288  0.30524  0.35485  1.0000
  S   S303      1.0  0.82322  0.07326  0.25709  1.0000
  H   H895      1.0  0.49844  0.29355  0.30829  1.0000
  S   S304      1.0  0.76399  0.07184  0.26526  1.0000
  C   C882      1.0  0.68423  0.25135  0.31385  1.0000
  H   H896      1.0  0.80972  0.05725  0.31549  1.0000
  H   H897      1.0  0.87815  0.99480  0.35013  1.0000
  C   C883      1.0  0.49467  0.32736  0.29629  1.0000
  C   C884      1.0  0.91692  0.04660  0.46398  1.0000
  Fe  Fe153     1.0  0.82389  0.09919  0.27220  1.0000
  S   S305      1.0  0.83509  0.09392  0.30256  1.0000
  C   C885      1.0  0.88633  0.07521  0.44298  1.0000
  S   S306      1.0  0.78967  0.11510  0.27230  1.0000
  S   S307      1.0  0.72234  0.22836  0.27418  1.0000
  H   H898      1.0  0.63577  0.27635  0.28232  1.0000
  Fe  Fe154     1.0  0.90309  0.02244  0.40316  1.0000
  H   H899      1.0  0.55415  0.32121  0.32474  1.0000
  Fe  Fe155     1.0  0.91474  0.01108  0.36032  1.0000
  C   C886      1.0  0.98737  0.01780  0.38957  1.0000
  S   S308      1.0  0.91210  0.01979  0.32603  1.0000
  H   H900      1.0  0.74887  0.18795  0.28903  1.0000
  C   C887      1.0  0.50384  0.34504  0.29210  1.0000
  H   H901      1.0  0.87425  0.08623  0.43515  1.0000
  H   H902      1.0  0.64111  0.39219  0.47951  1.0000
  C   C888      1.0  0.50962  0.43134  0.31340  1.0000
  S   S309      1.0  0.93088  0.02646  0.37603  1.0000
  S   S310      1.0  0.88575  0.00979  0.38617  1.0000
  H   H903      1.0  0.65714  0.28131  0.33307  1.0000
  C   C889      1.0  0.60801  0.45854  0.34163  1.0000
  C   C890      1.0  0.55602  0.33595  0.46331  1.0000
  C   C891      1.0  0.89348  0.08102  0.45810  1.0000
  C   C892      1.0  0.68435  0.30403  0.27614  1.0000
  C   C893      1.0  0.87123  0.99218  0.33788  1.0000
  Fe  Fe156     1.0  0.62486  0.48394  0.37437  1.0000
  H   H904      1.0  0.97226  0.02435  0.38490  1.0000
  H   H905      1.0  0.57215  0.46154  0.42000  1.0000
  Fe  Fe157     1.0  0.58294  0.41399  0.48011  1.0000
  C   C894      1.0  0.85763  0.07434  0.30797  1.0000
  C   C895      1.0  0.86330  0.07075  0.32758  1.0000
  C   C896      1.0  0.88016  0.05422  0.33313  1.0000
  C   C897      1.0  0.89163  0.04132  0.31898  1.0000
  C   C898      1.0  0.88626  0.04516  0.29919  1.0000
  C   C899      1.0  0.86924  0.06158  0.29371  1.0000
  H   H906      1.0  0.85443  0.08062  0.33865  1.0000
  H   H907      1.0  0.88429  0.05152  0.34835  1.0000
  H   H908      1.0  0.89517  0.03528  0.28814  1.0000
  H   H909      1.0  0.86503  0.06427  0.27854  1.0000
  H   H910      1.0  0.67955  0.24285  0.30415  1.0000
  H   H911      1.0  0.58668  0.35998  0.46493  1.0000
  H   H912      1.0  0.82046  0.05189  0.34962  1.0000
  H   H913      1.0  0.69410  0.07128  0.25560  1.0000
  C   C900      1.0  0.57448  0.45997  0.40343  1.0000
  C   C901      1.0  0.73632  0.14951  0.25232  1.0000
  H   H914      1.0  0.72346  0.06084  0.27504  1.0000
  H   H915      1.0  0.56634  0.30445  0.30598  1.0000
  H   H916      1.0  0.96230  0.07011  0.48344  1.0000
  H   H917      1.0  0.67255  0.13260  0.24709  1.0000
  H   H918      1.0  0.56486  0.33597  0.44724  1.0000
  C   C902      1.0  0.74382  0.07924  0.25071  1.0000
  H   H919      1.0  0.67044  0.46190  0.42743  1.0000
  C   C903      1.0  0.74439  0.21257  0.26124  1.0000
  C   C904      1.0  0.75403  0.19287  0.27209  1.0000
  C   C905      1.0  0.76969  0.17913  0.26083  1.0000
  H   H920      1.0  0.73746  0.11657  0.26790  1.0000
  Fe  Fe158     1.0  0.78989  0.09055  0.25506  1.0000
  H   H921      1.0  0.57653  0.47545  0.39258  1.0000
  H   H922      1.0  0.87042  0.02511  0.46641  1.0000
  C   C906      1.0  0.60689  0.41546  0.34878  1.0000
  H   H923      1.0  0.53079  0.35624  0.29348  1.0000
  N   N74       1.0  0.53518  0.32247  0.30330  1.0000
  C   C907      1.0  0.55356  0.38251  0.42290  1.0000
  C   C908      1.0  0.54748  0.38614  0.44343  1.0000
  C   C909      1.0  0.55880  0.39724  0.45014  1.0000
  C   C910      1.0  0.57617  0.40484  0.43628  1.0000
  C   C911      1.0  0.58187  0.40183  0.41555  1.0000
  C   C912      1.0  0.57048  0.39079  0.40883  1.0000
  H   H924      1.0  0.53428  0.37996  0.45427  1.0000
  H   H925      1.0  0.55435  0.39963  0.46612  1.0000
  H   H926      1.0  0.59533  0.40768  0.40477  1.0000
  H   H927      1.0  0.57513  0.38836  0.39289  1.0000
  C   C913      1.0  0.60791  0.31188  0.31274  1.0000
  C   C914      1.0  0.60939  0.33068  0.29745  1.0000
  C   C915      1.0  0.62038  0.32988  0.27669  1.0000
  H   H928      1.0  0.66556  0.16112  0.24231  1.0000
  C   C916      1.0  0.61729  0.29228  0.30717  1.0000
  H   H929      1.0  0.60253  0.34587  0.30166  1.0000
  H   H930      1.0  0.61610  0.27768  0.31894  1.0000
  C   C917      1.0  0.84413  0.02358  0.34514  1.0000
  C   C918      1.0  0.59503  0.43051  0.33501  1.0000
  C   C919      1.0  0.59573  0.45204  0.33133  1.0000
  H   H931      1.0  0.56460  0.33246  0.29746  1.0000
  H   H932      1.0  0.58665  0.46374  0.32062  1.0000
  C   C920      1.0  0.70861  0.07718  0.24852  1.0000
  C   C921      1.0  0.66320  0.44817  0.43092  1.0000
  C   C922      1.0  0.50588  0.30723  0.30413  1.0000
  H   H933      1.0  0.60663  0.39883  0.35153  1.0000
  C   C923      1.0  0.62846  0.29149  0.28645  1.0000
  C   C924      1.0  0.66523  0.28758  0.31721  1.0000
  S   S311      1.0  0.59125  0.41748  0.44494  1.0000
  H   H934      1.0  0.70034  0.27175  0.27574  1.0000
  C   C925      1.0  0.66273  0.43383  0.45050  1.0000
  C   C926      1.0  0.65414  0.44479  0.41586  1.0000
  H   H935      1.0  0.60857  0.47515  0.33862  1.0000
  C   C927      1.0  0.52622  0.30507  0.30764  1.0000
  C   C928      1.0  0.89479  0.05534  0.43786  1.0000
  C   C929      1.0  0.66992  0.31766  0.28813  1.0000
  C   C930      1.0  0.66041  0.30946  0.30887  1.0000
  C   C931      1.0  0.87562  0.00820  0.46691  1.0000
  H   H936      1.0  0.85637  0.00203  0.30262  1.0000
  H   H937      1.0  0.97510  0.04395  0.42854  1.0000
  C   C932      1.0  0.83199  0.02956  0.30708  1.0000
  H   H938      1.0  0.70157  0.24575  0.31325  1.0000
  H   H939      1.0  0.53465  0.46621  0.42526  1.0000
  C   C933      1.0  0.49649  0.33792  0.34630  1.0000
  C   C934      1.0  0.62004  0.44346  0.35523  1.0000
  C   C935      1.0  0.52798  0.43865  0.31185  1.0000
  H   H940      1.0  0.53463  0.28944  0.31427  1.0000
  S   S312      1.0  0.66683  0.24705  0.26007  1.0000
  C   C936      1.0  0.68908  0.28229  0.28510  1.0000
  H   H941      1.0  0.62893  0.41017  0.36910  1.0000
  N   N75       1.0  0.67942  0.27432  0.30531  1.0000
  H   H942      1.0  0.54144  0.45894  0.32258  1.0000
  C   C937      1.0  0.82779  0.04058  0.33957  1.0000
  C   C938      1.0  0.64442  0.41328  0.44028  1.0000
  C   C939      1.0  0.72850  0.13081  0.25933  1.0000
  H   H943      1.0  0.67578  0.24682  0.33048  1.0000
  H   H944      1.0  0.85495  0.00790  0.44717  1.0000
  N   N76       1.0  0.65339  0.41666  0.45496  1.0000
  C   C940      1.0  0.63017  0.31030  0.27120  1.0000
  H   H945      1.0  0.49488  0.36085  0.28690  1.0000
  Fe  Fe159     1.0  0.94471  0.99304  0.39124  1.0000
  S   S313      1.0  0.63579  0.45104  0.36810  1.0000
  C   C941      1.0  0.86682  0.99848  0.45623  1.0000
  C   C942      1.0  0.70915  0.13049  0.25503  1.0000
  C   C943      1.0  0.72458  0.16777  0.24155  1.0000
  C   C944      1.0  0.84828  0.01274  0.31313  1.0000
  C   C945      1.0  0.52416  0.34231  0.29589  1.0000
  Fe  Fe160     1.0  0.80204  0.13383  0.24025  1.0000
  H   H946      1.0  0.66987  0.43656  0.46209  1.0000
  N   N77       1.0  0.55640  0.45366  0.40004  1.0000
  C   C946      1.0  0.55904  0.44455  0.38337  1.0000
  C   C947      1.0  0.53677  0.45831  0.41247  1.0000
  C   C948      1.0  0.54185  0.43952  0.37887  1.0000
  C   C949      1.0  0.51916  0.45344  0.40849  1.0000
  C   C950      1.0  0.52177  0.44391  0.39159  1.0000
  H   H947      1.0  0.63689  0.39977  0.44376  1.0000
  H   H948      1.0  0.57457  0.44107  0.37354  1.0000
  H   H949      1.0  0.49603  0.46743  0.47374  1.0000
  H   H950      1.0  0.54427  0.43239  0.36550  1.0000
  H   H951      1.0  0.63702  0.42480  0.40918  1.0000
  H   H952      1.0  0.50827  0.44009  0.38827  1.0000
  H   H953      1.0  0.59671  0.33353  0.46014  1.0000
  H   H954      1.0  0.88700  0.09654  0.46172  1.0000
  H   H955      1.0  0.77685  0.16374  0.26914  1.0000
  C   C951      1.0  0.64451  0.42735  0.42061  1.0000
  H   H956      1.0  0.65444  0.45576  0.40059  1.0000
  H   H957      1.0  0.50183  0.39286  0.47502  1.0000
  N   N78       1.0  0.85429  0.01008  0.33185  1.0000
  H   H958      1.0  0.51235  0.33404  0.34924  1.0000
  C   C952      1.0  0.77549  0.18515  0.23880  1.0000
  C   C953      1.0  0.90847  0.06665  0.46891  1.0000
  H   H959      1.0  0.64871  0.31985  0.31813  1.0000
  H   H960      1.0  0.54277  0.43289  0.30172  1.0000
  H   H961      1.0  0.82760  0.03197  0.29200  1.0000
  H   H962      1.0  0.84908  0.02169  0.35984  1.0000
  H   H963      1.0  0.58932  0.44798  0.40034  1.0000
  C   C954      1.0  0.58681  0.34285  0.47196  1.0000
  H   H964      1.0  0.62173  0.34448  0.26495  1.0000
  C   C955      1.0  0.53490  0.33359  0.46840  1.0000
  H   H965      1.0  0.91713  0.02581  0.44408  1.0000
  S   S314      1.0  0.83616  0.12040  0.24161  1.0000
  S   S315      1.0  0.88407  0.04832  0.41993  1.0000
  C   C956      1.0  0.50836  0.45998  0.33713  1.0000
  H   H966      1.0  0.66949  0.38969  0.47404  1.0000
  C   C957      1.0  0.91044  0.04114  0.44807  1.0000
  C   C958      1.0  0.61956  0.42191  0.35867  1.0000
  H   H967      1.0  0.70329  0.11581  0.26038  1.0000
  C   C959      1.0  0.55602  0.32004  0.30811  1.0000
  C   C960      1.0  0.52726  0.45318  0.32368  1.0000
  S   S316      1.0  0.50158  0.37929  0.33149  1.0000
  Fe  Fe161     1.0  0.70204  0.24390  0.25013  1.0000
  S   S317      1.0  0.64522  0.31007  0.24549  1.0000
  C   C961      1.0  0.97224  0.05900  0.47395  1.0000
  H   H968      1.0  0.92871  0.03550  0.47210  1.0000
  C   C962      1.0  0.72520  0.07132  0.25952  1.0000
  H   H969      1.0  0.50357  0.45744  0.41819  1.0000
  C   C963      1.0  0.96673  0.05874  0.45526  1.0000
  S   S318      1.0  0.91698  0.07453  0.48786  1.0000
  H   H970      1.0  0.49872  0.36976  0.40597  1.0000
  N   N79       1.0  0.69792  0.14831  0.24405  1.0000
  H   H971      1.0  0.95273  0.06951  0.45042  1.0000
  H   H972      1.0  0.51038  0.41980  0.30439  1.0000
  H   H973      1.0  0.69137  0.31018  0.25980  1.0000
  H   H974      1.0  0.75144  0.14980  0.25530  1.0000
  H   H975      1.0  0.58787  0.48174  0.48313  1.0000
  N   N80       1.0  0.56505  0.33919  0.47802  1.0000
  C   C964      1.0  0.97924  0.04440  0.44302  1.0000
  H   H976      1.0  0.66563  0.33445  0.28113  1.0000
  C   C965      1.0  0.65411  0.40119  0.47511  1.0000
  H   H977      1.0  0.52760  0.33188  0.45639  1.0000
  C   C966      1.0  0.75119  0.21896  0.23942  1.0000
  H   H978      1.0  0.59453  0.33801  0.48585  1.0000
  S   S319      1.0  0.60989  0.48465  0.40815  1.0000
  N   N81       1.0  0.98978  0.04538  0.48022  1.0000
  H   H979      1.0  0.89876  0.00376  0.48578  1.0000
  H   H980      1.0  0.60965  0.48658  0.46099  1.0000
  C   C967      1.0  0.89159  0.99623  0.47770  1.0000
  H   H981      1.0  0.50766  0.47123  0.34646  1.0000
  H   H982      1.0  0.61026  0.49044  0.48615  1.0000
  H   H983      1.0  0.65209  0.40921  0.48823  1.0000
  N   N82       1.0  0.49101  0.43848  0.32625  1.0000
  C   C968      1.0  0.72806  0.21186  0.68895  1.0000
  Fe  Fe162     1.0  0.55585  0.39745  0.52195  1.0000
  S   S320      1.0  0.81074  0.13427  0.71282  1.0000
  S   S321      1.0  0.52818  0.38217  0.53980  1.0000
  Fe  Fe163     1.0  0.60261  0.39568  0.51887  1.0000
  C   C969      1.0  0.76267  0.22791  0.72723  1.0000
  S   S322      1.0  0.63427  0.37854  0.52717  1.0000
  Fe  Fe164     1.0  0.57126  0.43774  0.51521  1.0000
  H   H984      1.0  0.50658  0.33285  0.49284  1.0000
  H   H985      1.0  0.53176  0.48309  0.56229  1.0000
  S   S323      1.0  0.57308  0.40812  0.54063  1.0000
  S   S324      1.0  0.58564  0.38206  0.50237  1.0000
  S   S325      1.0  0.79200  0.29260  0.70229  1.0000
  Fe  Fe165     1.0  0.67954  0.26577  0.65382  1.0000
  S   S326      1.0  0.68192  0.28252  0.61964  1.0000
  S   S327      1.0  0.67134  0.23407  0.67066  1.0000
  Fe  Fe166     1.0  0.69261  0.30009  0.66628  1.0000
  S   S328      1.0  0.69657  0.32057  0.63343  1.0000
  S   S329      1.0  0.69615  0.30422  0.69726  1.0000
  Fe  Fe167     1.0  0.66636  0.31213  0.63208  1.0000
  S   S330      1.0  0.63767  0.33608  0.62292  1.0000
  Fe  Fe168     1.0  0.71185  0.28972  0.62316  1.0000
  S   S331      1.0  0.74372  0.28315  0.60198  1.0000
  S   S332      1.0  0.66108  0.29453  0.66594  1.0000
  S   S333      1.0  0.71083  0.27027  0.65605  1.0000
  S   S334      1.0  0.81507  0.13934  0.64992  1.0000
  C   C970      1.0  0.74989  0.29211  0.71965  1.0000
  Fe  Fe169     1.0  0.80021  0.17370  0.63955  1.0000
  S   S335      1.0  0.77039  0.18331  0.62664  1.0000
  S   S336      1.0  0.83075  0.18393  0.62217  1.0000
  Fe  Fe170     1.0  0.90409  0.03696  0.56468  1.0000
  H   H986      1.0  0.85654  0.24120  0.67903  1.0000
  H   H987      1.0  0.81202  0.10972  0.60034  1.0000
  C   C971      1.0  0.85020  0.22843  0.69060  1.0000
  C   C972      1.0  0.49299  0.37131  0.53568  1.0000
  C   C973      1.0  0.62774  0.26203  0.71795  1.0000
  H   H988      1.0  0.61067  0.26960  0.71952  1.0000
  C   C974      1.0  0.87885  0.07024  0.59922  1.0000
  S   S337      1.0  0.60226  0.42656  0.49486  1.0000
  H   H989      1.0  0.66076  0.40393  0.54739  1.0000
  C   C975      1.0  0.62171  0.41735  0.56819  1.0000
  H   H990      1.0  0.72256  0.21833  0.65748  1.0000
  Fe  Fe171     1.0  0.84588  0.15016  0.63465  1.0000
  C   C976      1.0  0.87579  0.10989  0.60829  1.0000
  C   C977      1.0  0.86080  0.09742  0.61954  1.0000
  H   H991      1.0  0.98155  0.04932  0.51205  1.0000
  H   H992      1.0  0.84790  0.10314  0.63151  1.0000
  H   H993      1.0  0.70118  0.17067  0.66317  1.0000
  C   C978      1.0  0.67451  0.22872  0.69689  1.0000
  C   C979      1.0  0.68080  0.24356  0.70401  1.0000
  Fe  Fe172     1.0  0.83206  0.18978  0.65308  1.0000
  C   C980      1.0  0.85473  0.13586  0.73147  1.0000
  Fe  Fe173     1.0  0.91310  0.00434  0.53761  1.0000
  C   C981      1.0  0.67086  0.20959  0.71081  1.0000
  H   H994      1.0  0.68322  0.25855  0.69369  1.0000
  H   H995      1.0  0.83149  0.29387  0.64878  1.0000
  C   C982      1.0  0.82922  0.27732  0.65576  1.0000
  H   H996      1.0  0.66598  0.19803  0.70543  1.0000
  C   C983      1.0  0.75178  0.25541  0.60603  1.0000
  C   C984      1.0  0.77295  0.24579  0.60682  1.0000
  C   C985      1.0  0.77877  0.22363  0.61318  1.0000
  C   C986      1.0  0.76368  0.21097  0.61764  1.0000
  C   C987      1.0  0.74283  0.22054  0.61552  1.0000
  C   C988      1.0  0.73675  0.24273  0.61033  1.0000
  H   H997      1.0  0.78471  0.25547  0.60330  1.0000
  H   H998      1.0  0.79493  0.21644  0.61459  1.0000
  H   H999      1.0  0.73119  0.21087  0.61843  1.0000
  H   H1000     1.0  0.72043  0.25003  0.60948  1.0000
  C   C989      1.0  0.76530  0.29579  0.70116  1.0000
  H   H1001     1.0  0.80646  0.17697  0.59178  1.0000
  H   H1002     1.0  0.55079  0.45964  0.57082  1.0000
  C   C990      1.0  0.72280  0.30073  0.69864  1.0000
  C   C991      1.0  0.73828  0.30393  0.68016  1.0000
  C   C992      1.0  0.75941  0.30189  0.68147  1.0000
  C   C993      1.0  0.50658  0.42980  0.56855  1.0000
  Fe  Fe174     1.0  0.91998  0.04899  0.51712  1.0000
  H   H1003     1.0  0.73385  0.30863  0.66489  1.0000
  H   H1004     1.0  0.77117  0.30526  0.66722  1.0000
  C   C994      1.0  0.63441  0.36455  0.55350  1.0000
  C   C995      1.0  0.65334  0.35161  0.55882  1.0000
  C   C996      1.0  0.65431  0.34191  0.58004  1.0000
  C   C997      1.0  0.63640  0.34538  0.59602  1.0000
  C   C998      1.0  0.61737  0.35789  0.59062  1.0000
  C   C999      1.0  0.61632  0.36730  0.56941  1.0000
  H   H1005     1.0  0.66737  0.34933  0.54656  1.0000
  H   H1006     1.0  0.66903  0.33224  0.58410  1.0000
  H   H1007     1.0  0.60346  0.36050  0.60295  1.0000
  H   H1008     1.0  0.60163  0.37705  0.56550  1.0000
  S   S338      1.0  0.98398  0.00969  0.54583  1.0000
  C   C1000     1.0  0.71094  0.18309  0.65752  1.0000
  H   H1009     1.0  0.52583  0.39776  0.49545  1.0000
  C   C1001     1.0  0.57974  0.47784  0.53112  1.0000
  C   C1002     1.0  0.60058  0.46615  0.52965  1.0000
  C   C1003     1.0  0.61599  0.47381  0.53472  1.0000
  C   C1004     1.0  0.67606  0.38529  0.57288  1.0000
  C   C1005     1.0  0.86237  0.07760  0.61503  1.0000
  H   H1010     1.0  0.60494  0.45153  0.52417  1.0000
  H   H1011     1.0  0.63227  0.46521  0.53292  1.0000
  C   C1006     1.0  0.53449  0.46883  0.57522  1.0000
  C   C1007     1.0  0.53253  0.33732  0.50373  1.0000
  C   C1008     1.0  0.51289  0.38970  0.50348  1.0000
  C   C1009     1.0  0.50997  0.38151  0.52531  1.0000
  H   H1012     1.0  0.74334  0.12601  0.70235  1.0000
  C   C1010     1.0  0.77316  0.12966  0.70655  1.0000
  H   H1013     1.0  0.79124  0.14466  0.60791  1.0000
  C   C1011     1.0  0.84234  0.21418  0.68419  1.0000
  H   H1014     1.0  0.82850  0.18632  0.69447  1.0000
  C   C1012     1.0  0.64579  0.28553  0.72645  1.0000
  C   C1013     1.0  0.72859  0.29492  0.71839  1.0000
  Fe  Fe175     1.0  0.81786  0.14946  0.67832  1.0000
  C   C1014     1.0  0.84236  0.20927  0.72709  1.0000
  H   H1015     1.0  0.82913  0.27439  0.67292  1.0000
  C   C1015     1.0  0.67347  0.20539  0.73177  1.0000
  C   C1016     1.0  0.80158  0.28588  0.63501  1.0000
  H   H1016     1.0  0.71213  0.15829  0.69621  1.0000
  N   N83       1.0  0.63697  0.26785  0.73269  1.0000
  H   H1017     1.0  0.97787  0.04229  0.60540  1.0000
  C   C1017     1.0  0.83470  0.19733  0.69925  1.0000
  H   H1018     1.0  0.90686  0.07697  0.57626  1.0000
  H   H1019     1.0  0.49734  0.47074  0.60271  1.0000
  H   H1020     1.0  0.60641  0.41309  0.57755  1.0000
  H   H1021     1.0  0.72557  0.17753  0.64634  1.0000
  H   H1022     1.0  0.62956  0.24449  0.72091  1.0000
  H   H1023     1.0  0.64634  0.29519  0.71055  1.0000
  H   H1024     1.0  0.80567  0.24983  0.68040  1.0000
  H   H1025     1.0  0.78041  0.13161  0.68993  1.0000
  H   H1026     1.0  0.79090  0.17779  0.72539  1.0000
  C   C1018     1.0  0.75223  0.12640  0.71358  1.0000
  S   S339      1.0  0.87985  0.04587  0.59312  1.0000
  S   S340      1.0  0.84093  0.21822  0.65761  1.0000
  S   S341      1.0  0.80005  0.18274  0.66934  1.0000
  N   N84       1.0  0.63956  0.40350  0.57733  1.0000
  C   C1019     1.0  0.83456  0.19498  0.72068  1.0000
  H   H1027     1.0  0.49693  0.47000  0.50972  1.0000
  S   S342      1.0  0.93083  0.05284  0.54466  1.0000
  H   H1028     1.0  0.62298  0.41559  0.55185  1.0000
  S   S343      1.0  0.87333  0.13575  0.61162  1.0000
  H   H1029     1.0  0.90433  0.11170  0.58433  1.0000
  H   H1030     1.0  0.56030  0.34352  0.50949  1.0000
  C   C1020     1.0  0.98827  0.03637  0.59201  1.0000
  C   C1021     1.0  0.89254  0.10224  0.59291  1.0000
  H   H1031     1.0  0.63603  0.26703  0.70130  1.0000
  H   H1032     1.0  0.62177  0.40017  0.60906  1.0000
  H   H1033     1.0  0.88329  0.00021  0.61032  1.0000
  H   H1034     1.0  0.84732  0.14824  0.71921  1.0000
  C   C1022     1.0  0.89398  0.08258  0.58826  1.0000
  H   H1035     1.0  0.78991  0.21512  0.70525  1.0000
  N   N85       1.0  0.51855  0.45607  0.57848  1.0000
  H   H1036     1.0  0.86591  0.01482  0.57946  1.0000
  C   C1023     1.0  0.55348  0.34023  0.49795  1.0000
  C   C1024     1.0  0.67350  0.37754  0.59471  1.0000
  H   H1037     1.0  0.76245  0.24425  0.71857  1.0000
  C   C1025     1.0  0.50018  0.45904  0.59325  1.0000
  C   C1026     1.0  0.52312  0.33423  0.48878  1.0000
  H   H1038     1.0  0.68649  0.36679  0.60148  1.0000
  H   H1039     1.0  0.85707  0.12025  0.72732  1.0000
  H   H1040     1.0  0.80984  0.29752  0.62358  1.0000
  S   S344      1.0  0.89159  0.03624  0.53695  1.0000
  H   H1041     1.0  0.71660  0.29266  0.73270  1.0000
  C   C1027     1.0  0.78466  0.13013  0.72111  1.0000
  H   H1042     1.0  0.84272  0.26604  0.64850  1.0000
  H   H1043     1.0  0.53369  0.47433  0.58969  1.0000
  H   H1044     1.0  0.75429  0.28760  0.73492  1.0000
  N   N86       1.0  0.80932  0.27433  0.65260  1.0000
  H   H1045     1.0  0.53584  0.44029  0.55367  1.0000
  C   C1028     1.0  0.72270  0.20677  0.67234  1.0000
  N   N87       1.0  0.71672  0.18790  0.67510  1.0000
  C   C1029     1.0  0.71663  0.17340  0.69394  1.0000
  C   C1030     1.0  0.72184  0.17801  0.71085  1.0000
  S   S345      1.0  0.85009  0.15707  0.66412  1.0000
  C   C1031     1.0  0.72743  0.19740  0.70838  1.0000
  S   S346      1.0  0.92345  0.00361  0.56714  1.0000
  S   S347      1.0  0.56047  0.46949  0.52359  1.0000
  Fe  Fe176     1.0  0.94925  0.01953  0.54503  1.0000
  S   S348      1.0  0.94069  0.01715  0.51562  1.0000
  H   H1046     1.0  0.85069  0.06804  0.62367  1.0000
  H   H1047     1.0  0.73187  0.22721  0.68690  1.0000
  H   H1048     1.0  0.70128  0.19750  0.64903  1.0000
  H   H1049     1.0  0.65162  0.37667  0.62471  1.0000
  C   C1032     1.0  0.63706  0.39632  0.59879  1.0000
  C   C1033     1.0  0.77895  0.19063  0.73108  1.0000
  C   C1034     1.0  0.65394  0.38319  0.60778  1.0000
  H   H1050     1.0  0.50924  0.41845  0.55872  1.0000
  H   H1051     1.0  0.68826  0.25102  0.73017  1.0000
  H   H1052     1.0  0.82765  0.18261  0.73229  1.0000
  H   H1053     1.0  0.73070  0.20135  0.72169  1.0000
  C   C1035     1.0  0.68353  0.23934  0.72483  1.0000
  C   C1036     1.0  0.85005  0.22607  0.71204  1.0000
  C   C1037     1.0  0.65882  0.39840  0.56441  1.0000
  H   H1054     1.0  0.72106  0.16674  0.72590  1.0000
  H   H1055     1.0  0.85607  0.23719  0.71691  1.0000
  C   C1038     1.0  0.49941  0.38680  0.49194  1.0000
  C   C1039     1.0  0.86910  0.99781  0.58585  1.0000
  N   N88       1.0  0.84675  0.14092  0.57113  1.0000
  C   C1040     1.0  0.83558  0.16008  0.57545  1.0000
  C   C1041     1.0  0.83835  0.12303  0.57968  1.0000
  C   C1042     1.0  0.81532  0.16174  0.58841  1.0000
  C   C1043     1.0  0.81833  0.12405  0.59310  1.0000
  C   C1044     1.0  0.80674  0.14357  0.59740  1.0000
  C   C1045     1.0  0.86788  0.13980  0.55737  1.0000
  H   H1056     1.0  0.84244  0.17414  0.56908  1.0000
  H   H1057     1.0  0.84738  0.10772  0.57667  1.0000
  H   H1058     1.0  0.62132  0.43420  0.56781  1.0000
  H   H1059     1.0  0.96299  0.02942  0.58184  1.0000
  C   C1046     1.0  0.52166  0.44202  0.56590  1.0000
  H   H1060     1.0  0.87530  0.12338  0.55520  1.0000
  H   H1061     1.0  0.86689  0.15029  0.54155  1.0000
  H   H1062     1.0  0.87851  0.14486  0.56459  1.0000
  C   C1047     1.0  0.79922  0.25921  0.66671  1.0000
  C   C1048     1.0  0.78054  0.25567  0.66363  1.0000
  C   C1049     1.0  0.78277  0.28298  0.63162  1.0000
  C   C1050     1.0  0.77221  0.26782  0.64609  1.0000
  S   S349      1.0  0.55163  0.42822  0.49820  1.0000
  H   H1063     1.0  0.77261  0.24362  0.67468  1.0000
  H   H1064     1.0  0.77646  0.29226  0.61779  1.0000
  H   H1065     1.0  0.75769  0.26538  0.64351  1.0000
  C   C1051     1.0  0.97982  0.02914  0.57866  1.0000
  C   C1052     1.0  0.74268  0.12424  0.73506  1.0000
  H   H1066     1.0  0.87060  0.13876  0.73081  1.0000
  H   H1067     1.0  0.69110  0.38069  0.56256  1.0000
  C   C1053     1.0  0.77823  0.21159  0.71967  1.0000
  H   H1068     1.0  0.52344  0.33809  0.51957  1.0000
  Fe  Fe177     1.0  0.79831  0.27889  0.73509  1.0000
  H   H1069     1.0  0.66257  0.30468  0.73492  1.0000
  Fe  Fe178     1.0  0.90550  0.34736  0.84188  1.0000
  S   S350      1.0  0.92501  0.34238  0.86592  1.0000
  S   S351      1.0  0.89641  0.38091  0.82413  1.0000
  Fe  Fe179     1.0  0.90691  0.30061  0.84831  1.0000
  S   S352      1.0  0.92707  0.29117  0.87293  1.0000
  S   S353      1.0  0.89829  0.27579  0.83659  1.0000
  Fe  Fe180     1.0  0.90537  0.31874  0.88562  1.0000
  S   S354      1.0  0.89523  0.31869  0.92042  1.0000
  Fe  Fe181     1.0  0.94539  0.31550  0.85159  1.0000
  S   S355      1.0  0.88349  0.32625  0.86287  1.0000
  S   S356      1.0  0.92747  0.32238  0.82567  1.0000
  S   S357      1.0  0.89578  0.42656  0.89477  1.0000
  Fe  Fe182     1.0  0.60536  0.03078  0.89057  1.0000
  S   S358      1.0  0.60598  0.01368  0.92431  1.0000
  S   S359      1.0  0.63522  0.03974  0.86878  1.0000
  Fe  Fe183     1.0  0.56065  0.02539  0.89380  1.0000
  S   S360      1.0  0.55736  0.00798  0.92769  1.0000
  Fe  Fe184     1.0  0.57284  0.03243  0.93145  1.0000
  S   S361      1.0  0.55826  0.04568  0.96057  1.0000
  C   C1054     1.0  0.76718  0.29086  0.82252  1.0000
  H   H1070     1.0  0.90932  0.30832  0.79670  1.0000
  S   S362      1.0  0.57335  0.05165  0.89827  1.0000
  S   S363      1.0  0.59269  0.00606  0.88326  1.0000
  Fe  Fe185     1.0  0.77916  0.25848  0.77993  1.0000
  S   S364      1.0  0.81011  0.24862  0.79055  1.0000
  S   S365      1.0  0.74912  0.25040  0.80124  1.0000
  C   C1055     1.0  0.86833  0.36435  0.79057  1.0000
  H   H1071     1.0  0.96243  0.36219  0.92575  1.0000
  C   C1056     1.0  0.84191  0.15072  0.76321  1.0000
  H   H1072     1.0  0.69994  0.08567  0.87770  1.0000
  Fe  Fe186     1.0  0.81508  0.28122  0.77238  1.0000
  S   S366      1.0  0.82360  0.30440  0.78646  1.0000
  H   H1073     1.0  0.84048  0.34894  0.76338  1.0000
  S   S367      1.0  0.78275  0.29182  0.76414  1.0000
  C   C1057     1.0  0.80045  0.27758  0.83525  1.0000
  C   C1058     1.0  0.76435  0.18630  0.74998  1.0000
  H   H1074     1.0  0.97124  0.30782  0.91758  1.0000
  Fe  Fe187     1.0  0.91068  0.45415  0.89145  1.0000
  H   H1075     1.0  0.51130  0.04679  0.95107  1.0000
  C   C1059     1.0  0.92852  0.48162  0.98644  1.0000
  H   H1076     1.0  0.94762  0.41211  0.95949  1.0000
  Fe  Fe188     1.0  0.68631  0.18180  0.78108  1.0000
  H   H1077     1.0  0.90483  0.27468  0.94079  1.0000
  Fe  Fe189     1.0  0.67522  0.14294  0.81390  1.0000
  S   S368      1.0  0.70755  0.12243  0.80566  1.0000
  S   S369      1.0  0.64795  0.13411  0.84027  1.0000
  Fe  Fe190     1.0  0.71989  0.15138  0.80404  1.0000
  S   S370      1.0  0.75063  0.15321  0.81108  1.0000
  Fe  Fe191     1.0  0.70382  0.13765  0.77219  1.0000
  C   C1060     1.0  0.92199  0.40756  0.94834  1.0000
  S   S371      1.0  0.68799  0.17056  0.81525  1.0000
  S   S372      1.0  0.67068  0.15608  0.78038  1.0000
  C   C1061     1.0  0.60371  0.06650  0.98782  1.0000
  S   S373      1.0  0.89071  0.47826  0.90993  1.0000
  C   C1062     1.0  0.60552  0.99732  0.98212  1.0000
  H   H1078     1.0  0.76494  0.17011  0.75922  1.0000
  S   S374      1.0  0.91795  0.46355  0.95981  1.0000
  C   C1063     1.0  0.93223  0.32300  0.95788  1.0000
  C   C1064     1.0  0.63568  0.10445  0.90559  1.0000
  C   C1065     1.0  0.64124  0.06673  0.90827  1.0000
  C   C1066     1.0  0.85328  0.34887  0.77069  1.0000
  Fe  Fe192     1.0  0.96933  0.33038  0.98423  1.0000
  C   C1067     1.0  0.75001  0.22312  0.80532  1.0000
  C   C1068     1.0  0.76892  0.20944  0.79864  1.0000
  C   C1069     1.0  0.76926  0.18779  0.80119  1.0000
  C   C1070     1.0  0.75069  0.17977  0.81025  1.0000
  C   C1071     1.0  0.73194  0.19342  0.81729  1.0000
  C   C1072     1.0  0.73159  0.21504  0.81486  1.0000
  H   H1079     1.0  0.78327  0.21551  0.79135  1.0000
  H   H1080     1.0  0.78374  0.17753  0.79540  1.0000
  H   H1081     1.0  0.71768  0.18732  0.82478  1.0000
  H   H1082     1.0  0.71696  0.22553  0.82016  1.0000
  N   N89       1.0  0.88660  0.33124  0.78080  1.0000
  H   H1083     1.0  0.51884  0.05464  0.91176  1.0000
  S   S375      1.0  0.53459  0.03324  0.87556  1.0000
  C   C1073     1.0  0.62879  0.08529  0.91422  1.0000
  H   H1084     1.0  0.78389  0.12804  0.75386  1.0000
  H   H1085     1.0  0.62592  0.11905  0.90972  1.0000
  S   S376      1.0  0.83113  0.27107  0.74170  1.0000
  H   H1086     1.0  0.80327  0.29366  0.83054  1.0000
  N   N90       1.0  0.97206  0.41147  0.84875  1.0000
  H   H1087     1.0  0.74702  0.12279  0.76617  1.0000
  C   C1074     1.0  0.63618  0.06664  0.85769  1.0000
  C   C1075     1.0  0.62078  0.08284  0.86549  1.0000
  C   C1076     1.0  0.62391  0.10386  0.85902  1.0000
  C   C1077     1.0  0.64227  0.10877  0.84451  1.0000
  C   C1078     1.0  0.65693  0.09282  0.83560  1.0000
  C   C1079     1.0  0.65400  0.07174  0.84237  1.0000
  H   H1088     1.0  0.60699  0.07905  0.87727  1.0000
  H   H1089     1.0  0.61246  0.11620  0.86584  1.0000
  H   H1090     1.0  0.67101  0.09652  0.82423  1.0000
  H   H1091     1.0  0.66588  0.05926  0.83616  1.0000
  S   S377      1.0  0.97516  0.31885  0.95437  1.0000
  C   C1080     1.0  0.91032  0.24786  0.96658  1.0000
  H   H1092     1.0  0.89823  0.34693  0.79803  1.0000
  C   C1081     1.0  0.79348  0.23640  0.84750  1.0000
  C   C1082     1.0  0.77863  0.25324  0.83876  1.0000
  C   C1083     1.0  0.98346  0.35347  0.87662  1.0000
  H   H1093     1.0  0.65979  0.11992  0.88372  1.0000
  H   H1094     1.0  0.66950  0.05331  0.88845  1.0000
  S   S378      1.0  0.71568  0.12335  0.74360  1.0000
  C   C1084     1.0  0.59718  0.05307  0.96026  1.0000
  C   C1085     1.0  0.57573  0.05475  0.97009  1.0000
  H   H1095     1.0  0.97344  0.36058  0.88937  1.0000
  C   C1086     1.0  0.88645  0.28108  0.97087  1.0000
  H   H1096     1.0  0.60305  0.04689  0.94608  1.0000
  H   H1097     1.0  0.93005  0.32744  0.97278  1.0000
  H   H1098     1.0  0.62788  0.05699  0.96191  1.0000
  C   C1087     1.0  0.89269  0.39630  0.84275  1.0000
  C   C1088     1.0  0.89900  0.41596  0.83699  1.0000
  C   C1089     1.0  0.89936  0.42613  0.85276  1.0000
  C   C1090     1.0  0.89310  0.41669  0.87412  1.0000
  C   C1091     1.0  0.88572  0.39771  0.87964  1.0000
  C   C1092     1.0  0.88568  0.38748  0.86405  1.0000
  H   H1099     1.0  0.90457  0.42276  0.82050  1.0000
  H   H1100     1.0  0.90500  0.44087  0.84842  1.0000
  H   H1101     1.0  0.88066  0.39045  0.89612  1.0000
  H   H1102     1.0  0.88062  0.37243  0.86861  1.0000
  C   C1093     1.0  0.87655  0.28317  0.82400  1.0000
  C   C1094     1.0  0.87381  0.26965  0.81253  1.0000
  C   C1095     1.0  0.85735  0.27577  0.80123  1.0000
  C   C1096     1.0  0.84347  0.29539  0.80154  1.0000
  C   C1097     1.0  0.84572  0.30853  0.81366  1.0000
  C   C1098     1.0  0.86233  0.30255  0.82470  1.0000
  H   H1103     1.0  0.88478  0.25461  0.81199  1.0000
  H   H1104     1.0  0.85566  0.26550  0.79200  1.0000
  H   H1105     1.0  0.83487  0.32364  0.81413  1.0000
  H   H1106     1.0  0.86421  0.31299  0.83361  1.0000
  H   H1107     1.0  0.76420  0.24998  0.83681  1.0000
  C   C1099     1.0  0.91453  0.32282  0.95025  1.0000
  C   C1100     1.0  0.91731  0.31748  0.93073  1.0000
  C   C1101     1.0  0.93779  0.31179  0.91917  1.0000
  C   C1102     1.0  0.95543  0.31189  0.92681  1.0000
  H   H1108     1.0  0.75646  0.29931  0.83465  1.0000
  H   H1109     1.0  0.94010  0.30752  0.90419  1.0000
  Fe  Fe193     1.0  0.91857  0.47214  0.92501  1.0000
  H   H1110     1.0  0.80056  0.11486  0.78588  1.0000
  H   H1111     1.0  0.79059  0.22034  0.85204  1.0000
  C   C1103     1.0  0.75424  0.12469  0.74954  1.0000
  H   H1112     1.0  0.69082  0.07465  0.86053  1.0000
  C   C1104     1.0  0.95270  0.31766  0.94605  1.0000
  S   S379      1.0  0.71882  0.16457  0.77004  1.0000
  S   S380      1.0  0.84082  0.20732  0.75400  1.0000
  H   H1113     1.0  0.67040  0.19071  0.74251  1.0000
  H   H1114     1.0  0.97074  0.44565  0.98514  1.0000
  H   H1115     1.0  0.80188  0.14084  0.80559  1.0000
  C   C1105     1.0  0.85199  0.36506  0.78077  1.0000
  H   H1116     1.0  0.57441  0.99712  0.97849  1.0000
  H   H1117     1.0  0.62963  0.24158  0.75774  1.0000
  S   S381      1.0  0.92559  0.47757  0.86441  1.0000
  C   C1106     1.0  0.68691  0.08740  0.86951  1.0000
  H   H1118     1.0  0.56522  0.00511  0.84725  1.0000
  H   H1119     1.0  0.73982  0.25039  0.75926  1.0000
  Fe  Fe194     1.0  0.59058  0.99078  0.91763  1.0000
  H   H1120     1.0  0.72420  0.25117  0.74045  1.0000
  H   H1121     1.0  0.95522  0.37013  0.82902  1.0000
  S   S382      1.0  0.68162  0.21630  0.76518  1.0000
  H   H1122     1.0  0.82833  0.16448  0.79057  1.0000
  C   C1107     1.0  0.91614  0.39601  0.93695  1.0000
  H   H1123     1.0  0.96253  0.33307  0.87854  1.0000
  Fe  Fe195     1.0  0.82305  0.23940  0.75921  1.0000
  C   C1108     1.0  0.94283  0.40285  0.95116  1.0000
  C   C1109     1.0  0.90482  0.31339  0.78097  1.0000
  H   H1124     1.0  0.91857  0.31802  0.76868  1.0000
  C   C1110     1.0  0.81566  0.26114  0.84391  1.0000
  C   C1111     1.0  0.61119  0.05885  0.96918  1.0000
  H   H1125     1.0  0.93137  0.38645  0.85798  1.0000
  H   H1126     1.0  0.75746  0.28494  0.81499  1.0000
  H   H1127     1.0  0.97251  0.46492  0.91729  1.0000
  H   H1128     1.0  0.99014  0.38048  0.81276  1.0000
  Fe  Fe196     1.0  0.95027  0.47237  0.88372  1.0000
  C   C1112     1.0  0.51925  0.01390  0.88074  1.0000
  H   H1129     1.0  0.83832  0.37806  0.78108  1.0000
  H   H1130     1.0  0.90928  0.36464  0.92281  1.0000
  H   H1131     1.0  0.63574  0.05185  0.91428  1.0000
  N   N91       1.0  0.93066  0.38028  0.92855  1.0000
  S   S383      1.0  0.97492  0.40135  0.98806  1.0000
  H   H1132     1.0  0.82527  0.11259  0.75153  1.0000
  C   C1113     1.0  0.95739  0.38631  0.94314  1.0000
  C   C1114     1.0  0.87091  0.33209  0.77066  1.0000
  C   C1115     1.0  0.95273  0.40605  0.85759  1.0000
  C   C1116     1.0  0.50298  0.01760  0.86971  1.0000
  H   H1133     1.0  0.71964  0.23477  0.76648  1.0000
  C   C1117     1.0  0.95988  0.38192  0.83435  1.0000
  N   N92       1.0  0.84100  0.13639  0.75238  1.0000
  H   H1134     1.0  0.83017  0.26448  0.84565  1.0000
  H   H1135     1.0  0.63792  0.99271  0.98501  1.0000
  H   H1136     1.0  0.53576  0.99182  0.90393  1.0000
  C   C1118     1.0  0.82791  0.15258  0.78246  1.0000
  H   H1137     1.0  0.87933  0.29715  0.96383  1.0000
  C   C1119     1.0  0.82640  0.12358  0.76036  1.0000
  H   H1138     1.0  0.66236  0.28231  0.77126  1.0000
  N   N93       1.0  0.78253  0.27341  0.83222  1.0000
  C   C1120     1.0  0.73220  0.24079  0.75331  1.0000
  C   C1121     1.0  0.81220  0.24040  0.84989  1.0000
  C   C1122     1.0  0.65490  0.10482  0.89094  1.0000
  H   H1139     1.0  0.68580  0.10272  0.85757  1.0000
  N   N94       1.0  0.66682  0.08663  0.88491  1.0000
  C   C1123     1.0  0.97942  0.38781  0.82518  1.0000
  H   H1140     1.0  0.82404  0.22746  0.85631  1.0000
  H   H1141     1.0  0.97345  0.38199  0.94586  1.0000
  C   C1124     1.0  0.88566  0.34728  0.79034  1.0000
  S   S384      1.0  0.93747  0.44641  0.90840  1.0000
  C   C1125     1.0  0.66038  0.06768  0.89358  1.0000
  H   H1142     1.0  0.77549  0.30230  0.80976  1.0000
  C   C1126     1.0  0.74898  0.20299  0.75703  1.0000
  H   H1143     1.0  0.89871  0.32741  0.95918  1.0000
  H   H1144     1.0  0.91064  0.42055  0.95432  1.0000
  C   C1127     1.0  0.95099  0.37509  0.93182  1.0000
  H   H1145     1.0  0.90001  0.40006  0.93443  1.0000
  H   H1146     1.0  0.61362  0.08492  0.92511  1.0000
  H   H1147     1.0  0.73766  0.19949  0.77173  1.0000
  C   C1128     1.0  0.49151  0.00176  0.87253  1.0000
  C   C1129     1.0  0.52349  0.99463  0.89514  1.0000
  H   H1148     1.0  0.60114  0.01318  0.98510  1.0000
  H   H1149     1.0  0.87149  0.31934  0.76321  1.0000
  H   H1150     1.0  0.90104  0.29919  0.77820  1.0000
  H   H1151     1.0  0.92236  0.38130  0.89986  1.0000
  C   C1130     1.0  0.65479  0.27855  0.76061  1.0000
  H   H1152     1.0  0.94202  0.41333  0.87008  1.0000
  H   H1153     1.0  0.86761  0.37685  0.79846  1.0000
  C   C1131     1.0  0.81308  0.13945  0.79079  1.0000
  H   H1154     1.0  0.85313  0.16127  0.75668  1.0000
  S   S385      1.0  0.98108  0.31146  0.84399  1.0000
  C   C1132     1.0  0.94650  0.39102  0.85071  1.0000
  H   H1155     1.0  0.92162  0.23799  0.95653  1.0000
  H   H1156     1.0  0.93659  0.35581  0.91138  1.0000
  C   C1133     1.0  0.92449  0.36995  0.91501  1.0000
  C   C1134     1.0  0.81233  0.12482  0.77972  1.0000
  C   C1135     1.0  0.90090  0.26845  0.95773  1.0000
  C   C1136     1.0  0.97708  0.33820  0.87019  1.0000
  C   C1137     1.0  0.77521  0.12753  0.74258  1.0000
  C   C1138     1.0  0.50375  0.05069  0.92072  1.0000
  H   H1157     1.0  0.64558  0.25068  0.78263  1.0000
  S   S386      1.0  0.79156  0.24661  0.75020  1.0000
  C   C1139     1.0  0.49949  0.04626  0.94277  1.0000
  H   H1158     1.0  0.49963  0.03250  0.85852  1.0000
  C   C1140     1.0  0.98977  0.32926  0.85336  1.0000
  C   C1141     1.0  0.98528  0.40274  0.83259  1.0000
  H   H1159     1.0  0.49223  0.05261  0.89305  1.0000
  N   N95       1.0  0.74819  0.22343  0.74561  1.0000
  C   C1142     1.0  0.64523  0.26092  0.76704  1.0000
  C   C1143     1.0  0.98824  0.46845  0.91209  1.0000
  S   S387      1.0  0.98538  0.46853  0.87182  1.0000
  H   H1160     1.0  0.97162  0.44365  0.84772  1.0000
  C   C1144     1.0  0.91974  0.48529  0.96869  1.0000
  H   H1161     1.0  0.97239  0.42595  0.87335  1.0000
  C   C1145     1.0  0.97820  0.42740  0.85604  1.0000
  H   H1162     1.0  0.85011  0.48430  0.88467  1.0000
  H   H1163     1.0  0.83224  0.48607  0.85574  1.0000
  C   C1146     1.0  0.63628  0.25580  0.75283  1.0000
  C   C1147     1.0  0.56818  0.06299  0.98834  1.0000
  C   C1148     1.0  0.90516  0.24010  0.98838  1.0000
  C   C1149     1.0  0.65494  0.29106  0.74024  1.0000
  H   H1164     1.0  0.53463  0.99086  0.84683  1.0000
  C   C1150     1.0  0.67965  0.22038  0.73880  1.0000
  H   H1165     1.0  0.62248  0.84786  0.04530  1.0000
  C   C1151     1.0  0.98431  0.56633  0.11303  1.0000
  C   C1152     1.0  0.87519  0.71810  0.20149  1.0000
  Fe  Fe197     1.0  0.98294  0.52619  0.03082  1.0000
  S   S388      1.0  0.81723  0.74917  0.21078  1.0000
  S   S389      1.0  0.95224  0.54981  0.03404  1.0000
  Fe  Fe198     1.0  0.71418  0.77583  0.17734  1.0000
  S   S390      1.0  0.72217  0.74426  0.16849  1.0000
  S   S391      1.0  0.72014  0.77757  0.20805  1.0000
  Fe  Fe199     1.0  0.69509  0.79933  0.13890  1.0000
  S   S392      1.0  0.70064  0.76952  0.12727  1.0000
  S   S393      1.0  0.68536  0.83126  0.11800  1.0000
  Fe  Fe200     1.0  0.68964  0.75428  0.16127  1.0000
  S   S394      1.0  0.66704  0.73196  0.17149  1.0000
  Fe  Fe201     1.0  0.73256  0.76243  0.13562  1.0000
  S   S395      1.0  0.76060  0.75230  0.11099  1.0000
  S   S396      1.0  0.68081  0.78488  0.17220  1.0000
  S   S397      1.0  0.72787  0.79319  0.14518  1.0000
  Fe  Fe202     1.0  0.87627  0.64903  0.17347  1.0000
  S   S398      1.0  0.84497  0.67161  0.17593  1.0000
  S   S399      1.0  0.89478  0.63929  0.19939  1.0000
  Fe  Fe203     1.0  0.87664  0.64492  0.12925  1.0000
  S   S400      1.0  0.84511  0.66728  0.12846  1.0000
  S   S401      1.0  0.89304  0.63445  0.09875  1.0000
  Fe  Fe204     1.0  0.85770  0.68680  0.14278  1.0000
  S   S402      1.0  0.85108  0.72219  0.13392  1.0000
  Fe  Fe205     1.0  0.83554  0.64966  0.16169  1.0000
  S   S403      1.0  0.80317  0.64182  0.17363  1.0000
  S   S404      1.0  0.89005  0.66610  0.14100  1.0000
  S   S405      1.0  0.86598  0.62551  0.16162  1.0000
  H   H1166     1.0  0.55733  0.97544  0.05034  1.0000
  H   H1167     1.0  0.65966  0.78427  0.09099  1.0000
  S   S406      1.0  0.57767  0.87621  0.05148  1.0000
  Fe  Fe206     1.0  0.59287  0.93062  0.04152  1.0000
  S   S407      1.0  0.56655  0.92083  0.06811  1.0000
  S   S408      1.0  0.60228  0.96219  0.02999  1.0000
  Fe  Fe207     1.0  0.58921  0.88921  0.07297  1.0000
  S   S409      1.0  0.59117  0.86713  0.10472  1.0000
  Fe  Fe208     1.0  0.55742  0.90865  0.04430  1.0000
  S   S410      1.0  0.52422  0.91624  0.03871  1.0000
  H   H1168     1.0  0.79474  0.63728  0.13562  1.0000
  S   S411      1.0  0.92857  0.53738  0.09650  1.0000
  C   C1153     1.0  0.54877  0.98345  0.03772  1.0000
  C   C1154     1.0  0.53321  0.87431  0.10261  1.0000
  C   C1155     1.0  0.69013  0.69076  0.22115  1.0000
  C   C1156     1.0  0.60572  0.97366  0.04914  1.0000
  C   C1157     1.0  0.59939  0.96538  0.07078  1.0000
  H   H1169     1.0  0.97794  0.60328  0.04319  1.0000
  C   C1158     1.0  0.63666  0.82525  0.07019  1.0000
  H   H1170     1.0  0.64913  0.69498  0.18759  1.0000
  H   H1171     1.0  0.59305  0.95103  0.07608  1.0000
  H   H1172     1.0  0.53565  0.90384  0.10782  1.0000
  N   N96       1.0  0.76477  0.69827  0.19635  1.0000
  C   C1159     1.0  0.90747  0.69195  0.20455  1.0000
  C   C1160     1.0  0.59523  0.85071  0.00461  1.0000
  C   C1161     1.0  0.51643  0.89450  0.03497  1.0000
  C   C1162     1.0  0.53133  0.87599  0.03200  1.0000
  C   C1163     1.0  0.52480  0.85807  0.03084  1.0000
  H   H1173     1.0  0.59210  0.85044  0.02126  1.0000
  H   H1174     1.0  0.96170  0.56485  0.07378  1.0000
  H   H1175     1.0  0.54792  0.87536  0.03059  1.0000
  H   H1176     1.0  0.53640  0.84365  0.02898  1.0000
  C   C1164     1.0  0.65867  0.84196  0.11645  1.0000
  C   C1165     1.0  0.65402  0.86060  0.10129  1.0000
  C   C1166     1.0  0.63327  0.86858  0.09796  1.0000
  C   C1167     1.0  0.61698  0.85804  0.10983  1.0000
  C   C1168     1.0  0.62145  0.83977  0.12557  1.0000
  C   C1169     1.0  0.64230  0.83171  0.12889  1.0000
  H   H1177     1.0  0.66657  0.86876  0.09185  1.0000
  H   H1178     1.0  0.62989  0.88307  0.08641  1.0000
  H   H1179     1.0  0.60883  0.83169  0.13500  1.0000
  H   H1180     1.0  0.64577  0.81742  0.14079  1.0000
  C   C1170     1.0  0.78541  0.74289  0.11806  1.0000
  C   C1171     1.0  0.80353  0.74089  0.10198  1.0000
  C   C1172     1.0  0.82372  0.73433  0.10689  1.0000
  C   C1173     1.0  0.82581  0.72923  0.12795  1.0000
  C   C1174     1.0  0.80771  0.73036  0.14415  1.0000
  C   C1175     1.0  0.78747  0.73768  0.13920  1.0000
  H   H1181     1.0  0.80195  0.74481  0.08564  1.0000
  H   H1182     1.0  0.83770  0.73323  0.09437  1.0000
  H   H1183     1.0  0.80946  0.72581  0.16042  1.0000
  H   H1184     1.0  0.77351  0.73928  0.15163  1.0000
  C   C1176     1.0  0.77524  0.76112  0.22842  1.0000
  C   C1177     1.0  0.98884  0.58769  0.04667  1.0000
  C   C1178     1.0  0.86627  0.66614  0.22378  1.0000
  C   C1179     1.0  0.67221  0.70986  0.19210  1.0000
  C   C1180     1.0  0.68703  0.70830  0.20424  1.0000
  H   H1185     1.0  0.91892  0.68247  0.21408  1.0000
  H   H1186     1.0  0.94063  0.68228  0.16735  1.0000
  C   C1181     1.0  0.50290  0.93048  0.09240  1.0000
  C   C1182     1.0  0.75737  0.71156  0.22797  1.0000
  C   C1183     1.0  0.66064  0.69383  0.19687  1.0000
  C   C1184     1.0  0.79596  0.64100  0.20085  1.0000
  C   C1185     1.0  0.81137  0.63979  0.21210  1.0000
  C   C1186     1.0  0.50390  0.87584  0.08703  1.0000
  H   H1187     1.0  0.82797  0.63733  0.20459  1.0000
  C   C1187     1.0  0.53744  0.97215  0.03131  1.0000
  C   C1188     1.0  0.49770  0.89760  0.08668  1.0000
  H   H1188     1.0  0.51006  0.93867  0.07636  1.0000
  C   C1189     1.0  0.84341  0.62017  0.10852  1.0000
  H   H1189     1.0  0.85817  0.67257  0.21083  1.0000
  C   C1190     1.0  0.82698  0.65366  0.08891  1.0000
  C   C1191     1.0  0.79006  0.75567  0.21075  1.0000
  C   C1192     1.0  0.78317  0.75579  0.19273  1.0000
  C   C1193     1.0  0.76163  0.76227  0.19192  1.0000
  C   C1194     1.0  0.74691  0.76846  0.20929  1.0000
  H   H1190     1.0  0.53711  0.95568  0.03898  1.0000
  H   H1191     1.0  0.70139  0.68972  0.23058  1.0000
  H   H1192     1.0  0.79454  0.75129  0.17924  1.0000
  H   H1193     1.0  0.75647  0.76282  0.17774  1.0000
  H   H1194     1.0  0.79733  0.68696  0.18377  1.0000
  S   S412      1.0  0.49569  0.83571  0.03146  1.0000
  C   C1195     1.0  0.91767  0.56428  0.09694  1.0000
  C   C1196     1.0  0.91008  0.57031  0.11647  1.0000
  C   C1197     1.0  0.90237  0.59181  0.11729  1.0000
  C   C1198     1.0  0.90238  0.60736  0.09854  1.0000
  C   C1199     1.0  0.90978  0.60132  0.07903  1.0000
  C   C1200     1.0  0.91730  0.57983  0.07822  1.0000
  H   H1195     1.0  0.91035  0.55832  0.13101  1.0000
  H   H1196     1.0  0.89673  0.59635  0.13239  1.0000
  H   H1197     1.0  0.90967  0.61331  0.06449  1.0000
  H   H1198     1.0  0.92286  0.57534  0.06312  1.0000
  C   C1201     1.0  0.78160  0.79964  0.12500  1.0000
  H   H1199     1.0  0.62257  0.81855  0.07716  1.0000
  H   H1200     1.0  0.93538  0.49548  0.00870  1.0000
  C   C1202     1.0  0.80056  0.78901  0.11452  1.0000
  N   N97       1.0  0.82564  0.62028  0.12429  1.0000
  C   C1203     1.0  0.63643  0.84191  0.05229  1.0000
  H   H1201     1.0  0.68618  0.85013  0.04584  1.0000
  H   H1202     1.0  0.85858  0.63671  0.07826  1.0000
  C   C1204     1.0  0.80539  0.64158  0.23325  1.0000
  H   H1203     1.0  0.75898  0.70709  0.16519  1.0000
  C   C1205     1.0  0.80900  0.65378  0.10516  1.0000
  C   C1206     1.0  0.67226  0.84308  0.05242  1.0000
  C   C1207     1.0  0.89447  0.70100  0.17282  1.0000
  H   H1204     1.0  0.79564  0.66710  0.10431  1.0000
  C   C1208     1.0  0.79749  0.79342  0.15519  1.0000
  S   S413      1.0  0.61637  0.90021  0.04806  1.0000
  H   H1205     1.0  0.69565  0.72084  0.20098  1.0000
  C   C1209     1.0  0.77458  0.64317  0.21104  1.0000
  H   H1206     1.0  0.83264  0.77923  0.16937  1.0000
  H   H1207     1.0  0.49518  0.86828  0.08057  1.0000
  N   N98       1.0  0.65436  0.81760  0.07885  1.0000
  C   C1210     1.0  0.78603  0.69387  0.19618  1.0000
  H   H1208     1.0  0.76805  0.80573  0.11738  1.0000
  C   C1211     1.0  0.67207  0.82619  0.07013  1.0000
  C   C1212     1.0  0.65476  0.79925  0.09677  1.0000
  C   C1213     1.0  0.92722  0.67417  0.17570  1.0000
  H   H1209     1.0  0.80173  0.78664  0.09884  1.0000
  Fe  Fe209     1.0  0.60277  0.89001  0.02618  1.0000
  H   H1210     1.0  0.98334  0.56059  0.12993  1.0000
  C   C1214     1.0  0.84427  0.63673  0.09053  1.0000
  S   S414      1.0  0.58161  0.92135  0.01736  1.0000
  C   C1215     1.0  0.82541  0.60314  0.14334  1.0000
  C   C1216     1.0  0.65435  0.85086  0.04338  1.0000
  H   H1211     1.0  0.54467  0.79562  0.99283  1.0000
  Fe  Fe210     1.0  0.94315  0.52781  0.06526  1.0000
  H   H1212     1.0  0.85722  0.60743  0.10993  1.0000
  H   H1213     1.0  0.76262  0.64392  0.20246  1.0000
  H   H1214     1.0  0.59517  0.97021  0.10234  1.0000
  C   C1217     1.0  0.88413  0.64959  0.22240  1.0000
  H   H1215     1.0  0.68602  0.82030  0.07716  1.0000
  H   H1216     1.0  0.80893  0.60158  0.15163  1.0000
  H   H1217     1.0  0.79594  0.79478  0.17132  1.0000
  S   S415      1.0  0.62365  0.87588  0.99947  1.0000
  H   H1218     1.0  0.66606  0.79925  0.10640  1.0000
  H   H1219     1.0  0.76519  0.80985  0.15392  1.0000
  Fe  Fe211     1.0  0.94076  0.52826  0.02085  1.0000
  N   N99       1.0  0.98732  0.58030  0.06957  1.0000
  H   H1220     1.0  0.82771  0.66686  0.07529  1.0000
  H   H1221     1.0  0.83397  0.58762  0.13938  1.0000
  H   H1222     1.0  0.84901  0.77291  0.14507  1.0000
  C   C1218     1.0  0.83340  0.77204  0.15597  1.0000
  H   H1223     1.0  0.83215  0.77169  0.11679  1.0000
  H   H1224     1.0  0.90847  0.62896  0.23841  1.0000
  S   S416      1.0  0.92904  0.50803  0.05233  1.0000
  C   C1219     1.0  0.78002  0.80196  0.14545  1.0000
  H   H1225     1.0  0.73372  0.71153  0.21155  1.0000
  H   H1226     1.0  0.83247  0.75504  0.16245  1.0000
  C   C1220     1.0  0.75744  0.69396  0.17940  1.0000
  C   C1221     1.0  0.81767  0.78057  0.12477  1.0000
  H   H1227     1.0  0.63894  0.79968  0.10754  1.0000
  C   C1222     1.0  0.80861  0.63686  0.12285  1.0000
  N   N100      1.0  0.81595  0.78274  0.14489  1.0000
  C   C1223     1.0  0.60070  0.97615  0.08563  1.0000
  H   H1228     1.0  0.83309  0.60663  0.15452  1.0000
  H   H1229     1.0  0.65428  0.86384  0.02952  1.0000
  C   C1224     1.0  0.49502  0.89538  0.03571  1.0000
  C   C1225     1.0  0.66224  0.74211  0.23532  1.0000
  C   C1226     1.0  0.97055  0.56165  0.10319  1.0000
  C   C1227     1.0  0.79344  0.69776  0.21219  1.0000
  N   N101      1.0  0.50891  0.90742  0.09424  1.0000
  H   H1230     1.0  0.86167  0.72903  0.20817  1.0000
  C   C1228     1.0  0.75051  0.70741  0.21174  1.0000
  C   C1229     1.0  0.76858  0.64495  0.23223  1.0000
  S   S417      1.0  0.92202  0.54056  0.99519  1.0000
  C   C1230     1.0  0.97227  0.56882  0.08132  1.0000
  S   S418      1.0  0.97248  0.50671  0.01459  1.0000
  H   H1231     1.0  0.74063  0.69209  0.18441  1.0000
  C   C1231     1.0  0.75364  0.76758  0.22766  1.0000
  H   H1232     1.0  0.95870  0.55237  0.11237  1.0000
  S   S419      1.0  0.97497  0.50574  0.06304  1.0000
  H   H1233     1.0  0.89599  0.69928  0.15686  1.0000
  C   C1232     1.0  0.89057  0.70650  0.21322  1.0000
  C   C1233     1.0  0.67374  0.75770  0.23308  1.0000
  N   N102      1.0  0.90912  0.68918  0.18467  1.0000
  H   H1234     1.0  0.93237  0.66049  0.18831  1.0000
  H   H1235     1.0  0.76703  0.67895  0.17492  1.0000
  C   C1234     1.0  0.77896  0.70651  0.22825  1.0000
  C   C1235     1.0  0.52617  0.98238  0.01527  1.0000
  H   H1236     1.0  0.67534  0.77003  0.21876  1.0000
  H   H1237     1.0  0.65462  0.66408  0.21727  1.0000
  H   H1238     1.0  0.57375  0.83005  0.00849  1.0000
  C   C1236     1.0  0.52185  0.86418  0.09493  1.0000
  H   H1239     1.0  0.53223  0.83164  0.99310  1.0000
  C   C1237     1.0  0.52649  0.89607  0.10212  1.0000
  C   C1238     1.0  0.66379  0.67632  0.21364  1.0000
  H   H1240     1.0  0.54732  0.86544  0.10864  1.0000
  C   C1239     1.0  0.58495  0.83903  0.99738  1.0000
  H   H1241     1.0  0.81028  0.69395  0.21221  1.0000
  H   H1242     1.0  0.92278  0.66720  0.16456  1.0000
  C   C1240     1.0  0.50336  0.85868  0.03228  1.0000
  H   H1243     1.0  0.98466  0.57610  0.04000  1.0000
  H   H1244     1.0  0.52709  0.84741  0.09486  1.0000
  C   C1241     1.0  0.67839  0.67480  0.22590  1.0000
  C   C1242     1.0  0.87712  0.71536  0.18116  1.0000
  H   H1245     1.0  0.52803  0.92496  0.99446  1.0000
  H   H1246     1.0  0.50826  0.93547  0.10434  1.0000
  H   H1247     1.0  0.51708  0.97386  0.01036  1.0000
  H   H1248     1.0  0.65491  0.74257  0.22246  1.0000
  C   C1243     1.0  0.92897  0.49857  0.99470  1.0000
  H   H1249     1.0  0.86515  0.72416  0.17198  1.0000
  H   H1250     1.0  0.88907  0.70811  0.22924  1.0000
  H   H1251     1.0  0.55928  0.89861  0.99151  1.0000
  C   C1244     1.0  0.61019  0.86182  0.99044  1.0000
  S   S420      1.0  0.93130  0.97788  0.37294  1.0000
  Fe  Fe212     1.0  0.62949  0.50827  0.40471  1.0000
  C   C1245     1.0  0.63276  0.54370  0.47085  1.0000
  C   C1246     1.0  0.66409  0.59045  0.43380  1.0000
  Fe  Fe213     1.0  0.58612  0.51208  0.39508  1.0000
  S   S421      1.0  0.59989  0.51001  0.36122  1.0000
  H   H1252     1.0  0.96306  0.84006  0.42061  1.0000
  C   C1247     1.0  0.66125  0.57256  0.28592  1.0000
  C   C1248     1.0  0.88758  0.65038  0.25737  1.0000
  Fe  Fe214     1.0  0.62046  0.53172  0.36202  1.0000
  S   S422      1.0  0.62588  0.56074  0.33634  1.0000
  H   H1253     1.0  0.76334  0.69967  0.34771  1.0000
  S   S423      1.0  0.60430  0.53612  0.39481  1.0000
  C   C1249     1.0  0.70030  0.57766  0.28892  1.0000
  S   S424      1.0  0.81064  0.71791  0.26813  1.0000
  Fe  Fe215     1.0  0.84158  0.75784  0.27367  1.0000
  S   S425      1.0  0.83228  0.73124  0.30043  1.0000
  S   S426      1.0  0.85967  0.78176  0.27478  1.0000
  Fe  Fe216     1.0  0.84265  0.71139  0.27596  1.0000
  S   S427      1.0  0.86239  0.67843  0.28093  1.0000
  Fe  Fe217     1.0  0.80123  0.74056  0.28981  1.0000
  S   S428      1.0  0.77112  0.74570  0.31397  1.0000
  C   C1250     1.0  0.89468  0.64174  0.23930  1.0000
  S   S429      1.0  0.80974  0.76859  0.26456  1.0000
  C   C1251     1.0  0.89783  0.94261  0.46664  1.0000
  S   S430      1.0  0.72338  0.62601  0.28075  1.0000
  Fe  Fe218     1.0  0.70395  0.67734  0.30206  1.0000
  S   S431      1.0  0.72802  0.65036  0.31523  1.0000
  S   S432      1.0  0.69378  0.70657  0.31521  1.0000
  Fe  Fe219     1.0  0.74175  0.64959  0.28122  1.0000
  S   S433      1.0  0.77670  0.64721  0.26950  1.0000
  Fe  Fe220     1.0  0.70705  0.62958  0.31365  1.0000
  S   S434      1.0  0.70104  0.60078  0.33945  1.0000
  S   S435      1.0  0.71907  0.67823  0.26799  1.0000
  S   S436      1.0  0.68145  0.65686  0.30361  1.0000
  Fe  Fe221     1.0  0.87179  0.82341  0.36820  1.0000
  S   S437      1.0  0.89330  0.80582  0.39084  1.0000
  S   S438      1.0  0.85027  0.80530  0.36218  1.0000
  Fe  Fe222     1.0  0.88381  0.86548  0.36400  1.0000
  S   S439      1.0  0.90615  0.85129  0.38622  1.0000
  S   S440      1.0  0.88126  0.90034  0.34908  1.0000
  Fe  Fe223     1.0  0.91671  0.82479  0.36904  1.0000
  H   H1254     1.0  0.64843  0.62189  0.27347  1.0000
  Fe  Fe224     1.0  0.88093  0.83378  0.40607  1.0000
  S   S441      1.0  0.87430  0.82828  0.44156  1.0000
  S   S442      1.0  0.89640  0.84025  0.34486  1.0000
  S   S443      1.0  0.85731  0.85014  0.38536  1.0000
  C   C1252     1.0  0.88222  0.91462  0.36720  1.0000
  C   C1253     1.0  0.87599  0.90685  0.38891  1.0000
  C   C1254     1.0  0.87716  0.91808  0.40337  1.0000
  C   C1255     1.0  0.88494  0.93692  0.39618  1.0000
  C   C1256     1.0  0.89093  0.94487  0.37443  1.0000
  C   C1257     1.0  0.88945  0.93379  0.35995  1.0000
  H   H1255     1.0  0.87000  0.89229  0.39453  1.0000
  H   H1256     1.0  0.87215  0.91207  0.42014  1.0000
  H   H1257     1.0  0.89437  0.93978  0.34314  1.0000
  H   H1258     1.0  0.94462  0.85612  0.34956  1.0000
  C   C1258     1.0  0.90330  0.86801  0.46783  1.0000
  H   H1259     1.0  0.89943  0.89201  0.43955  1.0000
  C   C1259     1.0  0.89292  0.83506  0.47012  1.0000
  C   C1260     1.0  0.88684  0.84322  0.45060  1.0000
  C   C1261     1.0  0.88934  0.86373  0.43947  1.0000
  C   C1262     1.0  0.89758  0.87612  0.44810  1.0000
  C   C1263     1.0  0.54039  0.51447  0.37603  1.0000
  H   H1260     1.0  0.66819  0.71371  0.28389  1.0000
  H   H1261     1.0  0.88445  0.87018  0.42449  1.0000
  H   H1262     1.0  0.55604  0.51705  0.36800  1.0000
  C   C1264     1.0  0.66954  0.61138  0.39161  1.0000
  C   C1265     1.0  0.78102  0.66445  0.31557  1.0000
  N   N103      1.0  0.67482  0.57943  0.41844  1.0000
  Fe  Fe225     1.0  0.90346  0.97789  0.39995  1.0000
  S   S444      1.0  0.64694  0.50520  0.37200  1.0000
  C   C1266     1.0  0.85995  0.78555  0.29973  1.0000
  C   C1267     1.0  0.84796  0.77531  0.31822  1.0000
  C   C1268     1.0  0.84617  0.78061  0.33757  1.0000
  C   C1269     1.0  0.85647  0.79606  0.33862  1.0000
  C   C1270     1.0  0.86938  0.80551  0.32035  1.0000
  C   C1271     1.0  0.87098  0.80038  0.30091  1.0000
  H   H1263     1.0  0.83941  0.76389  0.31753  1.0000
  H   H1264     1.0  0.83623  0.77319  0.35168  1.0000
  H   H1265     1.0  0.87742  0.81741  0.32101  1.0000
  H   H1266     1.0  0.88039  0.80827  0.28666  1.0000
  C   C1272     1.0  0.74957  0.73595  0.31238  1.0000
  C   C1273     1.0  0.75171  0.72253  0.29876  1.0000
  C   C1274     1.0  0.73463  0.71338  0.29949  1.0000
  C   C1275     1.0  0.71527  0.71810  0.31347  1.0000
  C   C1276     1.0  0.71299  0.73206  0.32649  1.0000
  C   C1277     1.0  0.73014  0.74075  0.32612  1.0000
  H   H1267     1.0  0.76665  0.71869  0.28816  1.0000
  H   H1268     1.0  0.73652  0.70262  0.28936  1.0000
  H   H1269     1.0  0.69806  0.73579  0.33727  1.0000
  H   H1270     1.0  0.72838  0.75110  0.33668  1.0000
  C   C1278     1.0  0.87008  0.66720  0.25855  1.0000
  C   C1279     1.0  0.89855  0.97458  0.47767  1.0000
  C   C1280     1.0  0.79609  0.79717  0.31462  1.0000
  H   H1271     1.0  0.89593  0.64423  0.27031  1.0000
  S   S445      1.0  0.95158  0.81064  0.36283  1.0000
  C   C1281     1.0  0.76692  0.67620  0.32971  1.0000
  C   C1282     1.0  0.93470  0.90699  0.39612  1.0000
  H   H1272     1.0  0.80197  0.81942  0.35216  1.0000
  S   S446      1.0  0.85474  0.73709  0.25007  1.0000
  C   C1283     1.0  0.79552  0.69149  0.33098  1.0000
  C   C1284     1.0  0.64541  0.57270  0.33900  1.0000
  C   C1285     1.0  0.64726  0.59317  0.32710  1.0000
  C   C1286     1.0  0.66421  0.60200  0.32724  1.0000
  C   C1287     1.0  0.67932  0.59041  0.33935  1.0000
  C   C1288     1.0  0.67723  0.57011  0.35154  1.0000
  C   C1289     1.0  0.66024  0.56135  0.35150  1.0000
  H   H1273     1.0  0.63576  0.60206  0.31750  1.0000
  H   H1274     1.0  0.66564  0.61767  0.31783  1.0000
  H   H1275     1.0  0.68905  0.56086  0.36063  1.0000
  H   H1276     1.0  0.65899  0.54557  0.36067  1.0000
  C   C1290     1.0  0.62547  0.56337  0.45827  1.0000
  H   H1277     1.0  0.84574  0.68802  0.24259  1.0000
  C   C1291     1.0  0.63950  0.52548  0.46238  1.0000
  C   C1292     1.0  0.63871  0.52688  0.44141  1.0000
  C   C1293     1.0  0.63195  0.54663  0.42869  1.0000
  C   C1294     1.0  0.62527  0.56487  0.43712  1.0000
  H   H1278     1.0  0.78919  0.78478  0.31290  1.0000
  N   N104      1.0  0.66796  0.59118  0.27586  1.0000
  H   H1279     1.0  0.63217  0.54797  0.41225  1.0000
  H   H1280     1.0  0.61992  0.58011  0.42727  1.0000
  Fe  Fe226     1.0  0.69915  0.65480  0.27066  1.0000
  C   C1295     1.0  0.53429  0.51224  0.39795  1.0000
  C   C1296     1.0  0.82446  0.84457  0.32134  1.0000
  H   H1281     1.0  0.78503  0.79199  0.34841  1.0000
  S   S447      1.0  0.68052  0.65340  0.24777  1.0000
  H   H1282     1.0  0.68868  0.74103  0.28052  1.0000
  H   H1283     1.0  0.67975  0.54810  0.41379  1.0000
  C   C1297     1.0  0.98654  0.85854  0.36842  1.0000
  H   H1284     1.0  0.81707  0.66482  0.27779  1.0000
  H   H1285     1.0  0.82568  0.68087  0.31200  1.0000
  H   H1286     1.0  0.98809  0.80358  0.32774  1.0000
  C   C1298     1.0  0.57911  0.52020  0.45227  1.0000
  H   H1287     1.0  0.84411  0.87826  0.48420  1.0000
  H   H1288     1.0  0.92903  0.91780  0.38256  1.0000
  H   H1289     1.0  0.53081  0.51592  0.34729  1.0000
  C   C1299     1.0  0.87392  0.97673  0.45679  1.0000
  H   H1290     1.0  0.80121  0.70255  0.33638  1.0000
  Fe  Fe227     1.0  0.82197  0.74509  0.24367  1.0000
  C   C1300     1.0  0.81627  0.65441  0.29388  1.0000
  C   C1301     1.0  0.81721  0.82416  0.29956  1.0000
  H   H1291     1.0  0.81395  0.86034  0.31764  1.0000
  H   H1292     1.0  0.86500  0.97728  0.34407  1.0000
  C   C1302     1.0  0.78399  0.64431  0.24328  1.0000
  C   C1303     1.0  0.50549  0.51100  0.37442  1.0000
  H   H1293     1.0  0.64013  0.60420  0.26249  1.0000
  H   H1294     1.0  0.93271  0.87932  0.38707  1.0000
  H   H1295     1.0  0.84027  0.84468  0.31061  1.0000
  C   C1304     1.0  0.98304  0.82204  0.37399  1.0000
  C   C1305     1.0  0.95825  0.85070  0.35699  1.0000
  C   C1306     1.0  0.67403  0.55597  0.29760  1.0000
  H   H1296     1.0  0.66823  0.54160  0.30626  1.0000
  H   H1297     1.0  0.70086  0.55371  0.42266  1.0000
  N   N105      1.0  0.94439  0.87127  0.41561  1.0000
  H   H1298     1.0  0.75026  0.67529  0.33414  1.0000
  C   C1307     1.0  0.80922  0.67934  0.31700  1.0000
  H   H1299     1.0  0.64496  0.70983  0.24057  1.0000
  C   C1308     1.0  0.96521  0.82900  0.36469  1.0000
  H   H1300     1.0  0.91118  0.94130  0.45284  1.0000
  C   C1309     1.0  0.80787  0.80873  0.29701  1.0000
  C   C1310     1.0  0.93697  0.88509  0.39869  1.0000
  H   H1301     1.0  0.50876  0.50790  0.42507  1.0000
  C   C1311     1.0  0.94682  0.84829  0.41827  1.0000
  S   S448      1.0  0.61711  0.58621  0.46869  1.0000
  C   C1312     1.0  0.94645  0.90065  0.42876  1.0000
  H   H1302     1.0  0.83878  0.84788  0.47316  1.0000
  C   C1313     1.0  0.49931  0.50863  0.39638  1.0000
  C   C1314     1.0  0.56761  0.55597  0.45782  1.0000
  H   H1303     1.0  0.83255  0.64913  0.29720  1.0000
  N   N106      1.0  0.80192  0.66601  0.30951  1.0000
  H   H1304     1.0  0.98837  0.80525  0.38005  1.0000
  S   S449      1.0  0.97766  0.97833  0.39707  1.0000
  C   C1315     1.0  0.79374  0.80122  0.33455  1.0000
  C   C1316     1.0  0.66976  0.72598  0.26949  1.0000
  N   N107      1.0  0.88956  0.96505  0.46748  1.0000
  H   H1305     1.0  0.71523  0.58011  0.29056  1.0000
  H   H1306     1.0  0.93704  0.93182  0.40976  1.0000
  C   C1317     1.0  0.69359  0.55865  0.29925  1.0000
  S   S450      1.0  0.55240  0.51215  0.41297  1.0000
  C   C1318     1.0  0.68723  0.59382  0.27715  1.0000
  C   C1319     1.0  0.65783  0.62256  0.40712  1.0000
  C   C1320     1.0  0.56858  0.54119  0.44616  1.0000
  H   H1307     1.0  0.91128  0.96556  0.48579  1.0000
  H   H1308     1.0  0.95409  0.86789  0.44444  1.0000
  C   C1321     1.0  0.90073  0.84755  0.47886  1.0000
  C   C1322     1.0  0.80328  0.81681  0.33654  1.0000
  C   C1323     1.0  0.96899  0.86544  0.35875  1.0000
  H   H1309     1.0  0.57981  0.50882  0.44311  1.0000
  C   C1324     1.0  0.94901  0.87879  0.43060  1.0000
  H   H1310     1.0  0.89120  0.81918  0.47875  1.0000
  H   H1311     1.0  0.65090  0.63930  0.40268  1.0000
  H   H1312     1.0  0.82719  0.84178  0.33764  1.0000
  C   C1325     1.0  0.65412  0.60898  0.26455  1.0000
  H   H1313     1.0  0.78450  0.70971  0.24070  1.0000
  H   H1314     1.0  0.66301  0.61549  0.24859  1.0000
  H   H1315     1.0  0.56130  0.54587  0.43243  1.0000
  H   H1316     1.0  0.66188  0.58247  0.45038  1.0000
  H   H1317     1.0  0.89699  0.95936  0.36877  1.0000
  C   C1326     1.0  0.67805  0.58971  0.39761  1.0000
  S   S451      1.0  0.88809  0.94965  0.41463  1.0000
  H   H1318     1.0  0.96357  0.88223  0.35273  1.0000
  H   H1319     1.0  0.64589  0.62044  0.44066  1.0000
  H   H1320     1.0  0.81046  0.80528  0.28154  1.0000
  H   H1321     1.0  0.69232  0.60873  0.26943  1.0000
  H   H1322     1.0  0.81737  0.64083  0.24183  1.0000
  H   H1323     1.0  0.94955  0.90651  0.44102  1.0000
  N   N108      1.0  0.58846  0.51414  0.46945  1.0000
  N   N109      1.0  0.81496  0.82793  0.31917  1.0000
  H   H1324     1.0  0.64489  0.51026  0.47225  1.0000
  H   H1325     1.0  0.93494  0.84216  0.43209  1.0000
  H   H1326     1.0  0.70323  0.54626  0.30900  1.0000
  H   H1327     1.0  0.64558  0.57070  0.28578  1.0000
  H   H1328     1.0  0.94454  0.84416  0.40415  1.0000
  S   S452      1.0  0.91383  0.88325  0.47866  1.0000
  C   C1327     1.0  0.51365  0.50945  0.40812  1.0000
  H   H1329     1.0  0.67198  0.61933  0.37500  1.0000
  H   H1330     1.0  0.67618  0.54950  0.44070  1.0000
  H   H1331     1.0  0.82691  0.83254  0.28585  1.0000
  H   H1332     1.0  0.68723  0.58120  0.38548  1.0000
  N   N110      1.0  0.66049  0.72643  0.25334  1.0000
  H   H1333     1.0  0.77509  0.65423  0.30934  1.0000
  S   S453      1.0  0.64571  0.50382  0.43145  1.0000
  H   H1334     1.0  0.88548  0.93513  0.46481  1.0000
  H   H1335     1.0  0.81079  0.64000  0.29390  1.0000
  C   C1328     1.0  0.68342  0.55658  0.42420  1.0000
  C   C1329     1.0  0.77426  0.68983  0.33739  1.0000
  C   C1330     1.0  0.93933  0.91481  0.41133  1.0000
  C   C1331     1.0  0.65514  0.61207  0.42838  1.0000
  H   H1336     1.0  0.75203  0.64698  0.23995  1.0000
  C   C1332     1.0  0.68133  0.74136  0.26773  1.0000
  H   H1337     1.0  0.69224  0.76932  0.24790  1.0000
  C   C1333     1.0  0.64779  0.71057  0.25597  1.0000
  H   H1338     1.0  0.55980  0.57238  0.45310  1.0000
  C   C1334     1.0  0.52602  0.51393  0.36429  1.0000
  H   H1339     1.0  0.57616  0.56093  0.48475  1.0000
  C   C1335     1.0  0.85929  0.67501  0.24179  1.0000
  C   C1336     1.0  0.98916  0.97668  0.34398  1.0000
  H   H1340     1.0  0.90345  0.93323  0.48130  1.0000
  H   H1341     1.0  0.65620  0.69444  0.26280  1.0000
  H   H1342     1.0  0.86200  0.79969  0.48464  1.0000
  C   C1337     1.0  0.57672  0.54952  0.47565  1.0000
  C   C1338     1.0  0.68329  0.75730  0.24943  1.0000
  H   H1343     1.0  0.63224  0.71448  0.26663  1.0000
  H   H1344     1.0  0.86713  0.96937  0.44825  1.0000
  H   H1345     1.0  0.78037  0.76080  0.24253  1.0000
  H   H1346     1.0  0.97437  0.98201  0.33839  1.0000
  H   H1347     1.0  0.83551  0.81188  0.48109  1.0000
  C   C1339     1.0  0.58693  0.52834  0.48143  1.0000
  H   H1348     1.0  0.74608  0.71886  0.24014  1.0000
  H   H1349     1.0  0.74224  0.77223  0.24120  1.0000
  C   C1340     1.0  0.84347  0.84521  0.48817  1.0000
  H   H1350     1.0  0.63303  0.54241  0.48718  1.0000
  H   H1351     1.0  0.98629  0.94394  0.35408  1.0000
  S   S454      1.0  0.91808  0.99028  0.41951  1.0000
  C   C1341     1.0  0.59959  0.49210  0.47527  1.0000
  H   H1352     1.0  0.88456  0.99035  0.32410  1.0000
  Fe  Fe228     1.0  0.62111  0.53919  0.54020  1.0000
  S   S455      1.0  0.64383  0.55907  0.51810  1.0000
  Fe  Fe229     1.0  0.58586  0.57710  0.54618  1.0000
  S   S456      1.0  0.60508  0.60030  0.52440  1.0000
  S   S457      1.0  0.55177  0.58866  0.56033  1.0000
  Fe  Fe230     1.0  0.61589  0.57692  0.50359  1.0000
  Fe  Fe231     1.0  0.63139  0.58080  0.54086  1.0000
  S   S458      1.0  0.65212  0.60036  0.54559  1.0000
  S   S459      1.0  0.59415  0.55556  0.52365  1.0000
  S   S460      1.0  0.61116  0.55925  0.56463  1.0000
  Fe  Fe232     1.0  0.80075  0.71720  0.63183  1.0000
  S   S461      1.0  0.81739  0.72359  0.65391  1.0000
  S   S462      1.0  0.81501  0.69037  0.61498  1.0000
  Fe  Fe233     1.0  0.76350  0.75316  0.63871  1.0000
  S   S463      1.0  0.77667  0.76288  0.66117  1.0000
  S   S464      1.0  0.73104  0.76897  0.63279  1.0000
  Fe  Fe234     1.0  0.80776  0.75791  0.63816  1.0000
  S   S465      1.0  0.82752  0.78245  0.63286  1.0000
  Fe  Fe235     1.0  0.78503  0.72814  0.67477  1.0000
  S   S466      1.0  0.79368  0.75120  0.61418  1.0000
  S   S467      1.0  0.76930  0.71873  0.65410  1.0000
  C   C1342     1.0  0.63479  0.74891  0.66916  1.0000
  H   H1353     1.0  0.71408  0.67993  0.68926  1.0000
  C   C1343     1.0  0.86377  0.98397  0.57660  1.0000
  H   H1354     1.0  0.90417  0.84143  0.49443  1.0000
  H   H1355     1.0  0.77064  0.54661  0.73044  1.0000
  H   H1356     1.0  0.74285  0.68856  0.73601  1.0000
  H   H1357     1.0  0.77435  0.71526  0.58501  1.0000
  H   H1358     1.0  0.85995  0.63704  0.70569  1.0000
  H   H1359     1.0  0.72328  0.72555  0.64678  1.0000
  C   C1344     1.0  0.73327  0.68038  0.73137  1.0000
  Fe  Fe236     1.0  0.68145  0.61798  0.64284  1.0000
  S   S468      1.0  0.69147  0.64786  0.62175  1.0000
  S   S469      1.0  0.66241  0.59703  0.63751  1.0000
  Fe  Fe237     1.0  0.70096  0.62004  0.67845  1.0000
  S   S470      1.0  0.71237  0.64970  0.66049  1.0000
  Fe  Fe238     1.0  0.68077  0.66056  0.65146  1.0000
  S   S471      1.0  0.66703  0.69394  0.65577  1.0000
  Fe  Fe239     1.0  0.72224  0.63417  0.63296  1.0000
  S   S472      1.0  0.75445  0.63286  0.61156  1.0000
  S   S473      1.0  0.66836  0.63185  0.67170  1.0000
  S   S474      1.0  0.71317  0.60336  0.65163  1.0000
  C   C1345     1.0  0.72115  0.69823  0.61350  1.0000
  H   H1360     1.0  0.78226  0.67304  0.70003  1.0000
  C   C1346     1.0  0.60589  0.71121  0.71214  1.0000
  H   H1361     1.0  0.87140  0.93225  0.57754  1.0000
  H   H1362     1.0  0.84719  0.68135  0.71558  1.0000
  H   H1363     1.0  0.64773  0.77387  0.67290  1.0000
  C   C1347     1.0  0.88316  0.96766  0.61114  1.0000
  H   H1364     1.0  0.78694  0.64567  0.71380  1.0000
  N   N111      1.0  0.84765  0.82507  0.50022  1.0000
  H   H1365     1.0  0.87271  0.65558  0.66858  1.0000
  C   C1348     1.0  0.73403  0.68869  0.59712  1.0000
  Fe  Fe240     1.0  0.91522  0.82519  0.54381  1.0000
  S   S475      1.0  0.89869  0.85942  0.53902  1.0000
  S   S476      1.0  0.89791  0.79848  0.54962  1.0000
  Fe  Fe241     1.0  0.95935  0.83603  0.53007  1.0000
  S   S477      1.0  0.94650  0.87105  0.52347  1.0000
  Fe  Fe242     1.0  0.92346  0.86347  0.55404  1.0000
  S   S478      1.0  0.91787  0.88439  0.57687  1.0000
  Fe  Fe243     1.0  0.92319  0.86369  0.50907  1.0000
  C   C1349     1.0  0.81521  0.69785  0.71293  1.0000
  S   S479      1.0  0.93790  0.82863  0.56181  1.0000
  S   S480      1.0  0.93834  0.82919  0.51277  1.0000
  C   C1350     1.0  0.85781  0.83850  0.52518  1.0000
  C   C1351     1.0  0.90777  0.95356  0.54138  1.0000
  C   C1352     1.0  0.90328  0.93804  0.53367  1.0000
  C   C1353     1.0  0.90718  0.91668  0.54416  1.0000
  C   C1354     1.0  0.91501  0.91083  0.56277  1.0000
  C   C1355     1.0  0.91969  0.92630  0.57045  1.0000
  C   C1356     1.0  0.91636  0.94767  0.55956  1.0000
  H   H1366     1.0  0.89635  0.94254  0.51981  1.0000
  H   H1367     1.0  0.90347  0.90481  0.53822  1.0000
  H   H1368     1.0  0.92592  0.92173  0.58477  1.0000
  H   H1369     1.0  0.91983  0.95961  0.56559  1.0000
  H   H1370     1.0  0.98234  0.84124  0.55857  1.0000
  C   C1357     1.0  0.70800  0.65969  0.72032  1.0000
  H   H1371     1.0  0.78321  0.65198  0.68720  1.0000
  C   C1358     1.0  0.82723  0.64518  0.70274  1.0000
  N   N112      1.0  0.94488  0.77021  0.57106  1.0000
  H   H1372     1.0  0.86375  0.83556  0.53955  1.0000
  C   C1359     1.0  0.63888  0.76136  0.68078  1.0000
  C   C1360     1.0  0.84605  0.80693  0.49274  1.0000
  C   C1361     1.0  0.81979  0.66596  0.66973  1.0000
  H   H1373     1.0  0.89101  0.96111  0.62446  1.0000
  C   C1362     1.0  0.79019  0.65667  0.69818  1.0000
  S   S481      1.0  0.66833  0.78327  0.71855  1.0000
  C   C1363     1.0  0.72978  0.68605  0.71078  1.0000
  H   H1374     1.0  0.70632  0.69321  0.62158  1.0000
  H   H1375     1.0  0.91511  0.76055  0.58542  1.0000
  C   C1364     1.0  0.66559  0.70495  0.71272  1.0000
  C   C1365     1.0  0.66892  0.70677  0.69080  1.0000
  C   C1366     1.0  0.66324  0.69197  0.68304  1.0000
  C   C1367     1.0  0.65439  0.67541  0.69719  1.0000
  C   C1368     1.0  0.97896  0.77605  0.53739  1.0000
  H   H1376     1.0  0.66958  0.71663  0.71863  1.0000
  H   H1377     1.0  0.67571  0.71971  0.67998  1.0000
  H   H1378     1.0  0.64910  0.66451  0.69141  1.0000
  C   C1369     1.0  0.65144  0.67334  0.71898  1.0000
  C   C1370     1.0  0.84664  0.78701  0.60936  1.0000
  C   C1371     1.0  0.85114  0.77458  0.59437  1.0000
  C   C1372     1.0  0.86680  0.77838  0.57597  1.0000
  C   C1373     1.0  0.87792  0.79465  0.57246  1.0000
  C   C1374     1.0  0.87333  0.80719  0.58733  1.0000
  C   C1375     1.0  0.85776  0.80331  0.60578  1.0000
  H   H1379     1.0  0.84267  0.76196  0.59706  1.0000
  H   H1380     1.0  0.87036  0.76858  0.56453  1.0000
  H   H1381     1.0  0.88184  0.81976  0.58475  1.0000
  H   H1382     1.0  0.85432  0.81294  0.61736  1.0000
  C   C1376     1.0  0.79854  0.67330  0.61563  1.0000
  C   C1377     1.0  0.78006  0.67146  0.63119  1.0000
  C   C1378     1.0  0.76672  0.65850  0.63058  1.0000
  C   C1379     1.0  0.77176  0.64740  0.61437  1.0000
  C   C1380     1.0  0.79062  0.64866  0.59932  1.0000
  C   C1381     1.0  0.80398  0.66151  0.59999  1.0000
  H   H1383     1.0  0.77601  0.67991  0.64371  1.0000
  H   H1384     1.0  0.75248  0.65735  0.64248  1.0000
  H   H1385     1.0  0.79470  0.64003  0.58681  1.0000
  H   H1386     1.0  0.81835  0.66267  0.58804  1.0000
  C   C1382     1.0  0.71341  0.77195  0.65678  1.0000
  C   C1383     1.0  0.71748  0.75862  0.67601  1.0000
  C   C1384     1.0  0.70332  0.76142  0.69508  1.0000
  C   C1385     1.0  0.68545  0.77796  0.69498  1.0000
  C   C1386     1.0  0.68152  0.79129  0.67577  1.0000
  C   C1387     1.0  0.69523  0.78804  0.65669  1.0000
  H   H1387     1.0  0.73159  0.74625  0.67624  1.0000
  H   H1388     1.0  0.70674  0.75134  0.70986  1.0000
  H   H1389     1.0  0.66789  0.80428  0.67563  1.0000
  H   H1390     1.0  0.69213  0.79847  0.64189  1.0000
  H   H1391     1.0  0.63488  0.76706  0.71182  1.0000
  H   H1392     1.0  0.93125  0.76171  0.54975  1.0000
  N   N113      1.0  0.77120  0.57077  0.67107  1.0000
  C   C1388     1.0  0.66168  0.59679  0.61157  1.0000
  C   C1389     1.0  0.66885  0.61228  0.59437  1.0000
  C   C1390     1.0  0.66641  0.61277  0.57406  1.0000
  C   C1391     1.0  0.65674  0.59785  0.57087  1.0000
  C   C1392     1.0  0.65003  0.58203  0.58797  1.0000
  C   C1393     1.0  0.65256  0.58149  0.60828  1.0000
  H   H1393     1.0  0.67597  0.62406  0.59676  1.0000
  H   H1394     1.0  0.67175  0.62495  0.56082  1.0000
  H   H1395     1.0  0.64270  0.57039  0.58560  1.0000
  H   H1396     1.0  0.64713  0.56938  0.62155  1.0000
  C   C1394     1.0  0.51563  0.53473  0.57742  1.0000
  C   C1395     1.0  0.50533  0.55572  0.57076  1.0000
  C   C1396     1.0  0.51638  0.57235  0.56573  1.0000
  C   C1397     1.0  0.53789  0.56793  0.56670  1.0000
  C   C1398     1.0  0.54825  0.54691  0.57291  1.0000
  C   C1399     1.0  0.53706  0.53038  0.57857  1.0000
  H   H1397     1.0  0.70213  0.71370  0.64669  1.0000
  H   H1398     1.0  0.50838  0.58860  0.56082  1.0000
  H   H1399     1.0  0.56482  0.54342  0.57377  1.0000
  C   C1400     1.0  0.75924  0.71064  0.59267  1.0000
  S   S482      1.0  0.90026  0.98030  0.52923  1.0000
  S   S483      1.0  0.77382  0.71565  0.70933  1.0000
  C   C1401     1.0  0.75288  0.56594  0.68440  1.0000
  C   C1402     1.0  0.75323  0.69489  0.58675  1.0000
  H   H1400     1.0  0.81997  0.70717  0.69730  1.0000
  H   H1401     1.0  0.70485  0.73937  0.62969  1.0000
  H   H1402     1.0  0.75055  0.73237  0.61336  1.0000
  H   H1403     1.0  0.61026  0.69848  0.70307  1.0000
  H   H1404     1.0  0.76984  0.75968  0.71128  1.0000
  C   C1403     1.0  0.77090  0.58193  0.64904  1.0000
  H   H1405     1.0  0.74286  0.61728  0.67816  1.0000
  C   C1404     1.0  0.83064  0.68345  0.72337  1.0000
  C   C1405     1.0  0.71367  0.72347  0.63647  1.0000
  S   S484      1.0  0.70725  0.60662  0.71118  1.0000
  C   C1406     1.0  0.84135  0.66598  0.66162  1.0000
  C   C1407     1.0  0.74766  0.61284  0.69318  1.0000
  C   C1408     1.0  0.76885  0.61140  0.69371  1.0000
  H   H1406     1.0  0.73824  0.56975  0.67871  1.0000
  N   N114      1.0  0.60168  0.62191  0.58026  1.0000
  C   C1409     1.0  0.60893  0.61904  0.59835  1.0000
  C   C1410     1.0  0.58723  0.61075  0.57989  1.0000
  C   C1411     1.0  0.60240  0.60404  0.61643  1.0000
  C   C1412     1.0  0.58036  0.59560  0.59768  1.0000
  C   C1413     1.0  0.58817  0.59213  0.61598  1.0000
  C   C1414     1.0  0.60868  0.63768  0.56145  1.0000
  H   H1407     1.0  0.62045  0.62781  0.59867  1.0000
  H   H1408     1.0  0.58107  0.61330  0.56573  1.0000
  H   H1409     1.0  0.60891  0.60128  0.63044  1.0000
  H   H1410     1.0  0.56926  0.58647  0.59708  1.0000
  H   H1411     1.0  0.58330  0.58014  0.62974  1.0000
  H   H1412     1.0  0.61020  0.63215  0.54680  1.0000
  H   H1413     1.0  0.59722  0.65306  0.56110  1.0000
  H   H1414     1.0  0.62473  0.64001  0.56109  1.0000
  H   H1415     1.0  0.61550  0.73783  0.72974  1.0000
  C   C1415     1.0  0.73971  0.60088  0.73126  1.0000
  C   C1416     1.0  0.63171  0.75749  0.70266  1.0000
  N   N115      1.0  0.86790  0.96251  0.58456  1.0000
  H   H1416     1.0  0.83960  0.79476  0.50609  1.0000
  H   H1417     1.0  0.86225  0.95451  0.55808  1.0000
  H   H1418     1.0  0.93152  0.75897  0.60346  1.0000
  C   C1417     1.0  0.62372  0.73257  0.67969  1.0000
  C   C1418     1.0  0.96170  0.77677  0.57364  1.0000
  H   H1419     1.0  0.85887  0.80555  0.52771  1.0000
  C   C1419     1.0  0.79373  0.69972  0.72265  1.0000
  C   C1420     1.0  0.75386  0.76625  0.71871  1.0000
  C   C1421     1.0  0.97900  0.77974  0.55688  1.0000
  H   H1420     1.0  0.55801  0.50566  0.53986  1.0000
  H   H1421     1.0  0.69785  0.65190  0.71595  1.0000
  N   N116      1.0  0.72731  0.71346  0.61940  1.0000
  H   H1422     1.0  0.76369  0.68708  0.57451  1.0000
  H   H1423     1.0  0.78659  0.57816  0.63850  1.0000
  C   C1422     1.0  0.74588  0.71999  0.60897  1.0000
  H   H1424     1.0  0.91777  0.78451  0.59079  1.0000
  C   C1423     1.0  0.86109  0.94838  0.57540  1.0000
  H   H1425     1.0  0.72948  0.67612  0.59289  1.0000
  C   C1424     1.0  0.87885  0.98958  0.60322  1.0000
  H   H1426     1.0  0.96132  0.76701  0.51964  1.0000
  C   C1425     1.0  0.78937  0.56685  0.67862  1.0000
  C   C1426     1.0  0.94477  0.76645  0.55201  1.0000
  H   H1427     1.0  0.96153  0.78037  0.58852  1.0000
  H   H1428     1.0  0.78020  0.61506  0.67912  1.0000
  C   C1427     1.0  0.87737  0.95428  0.60167  1.0000
  C   C1428     1.0  0.85376  0.85906  0.51292  1.0000
  H   H1429     1.0  0.61014  0.70357  0.72786  1.0000
  H   H1430     1.0  0.80850  0.67436  0.65972  1.0000
  H   H1431     1.0  0.84446  0.94700  0.58304  1.0000
  C   C1429     1.0  0.85488  0.82156  0.51845  1.0000
  C   C1430     1.0  0.61046  0.49296  0.54153  1.0000
  H   H1432     1.0  0.80376  0.55542  0.70607  1.0000
  H   H1433     1.0  0.84655  0.67425  0.64546  1.0000
  H   H1434     1.0  0.71104  0.80422  0.70680  1.0000
  N   N117      1.0  0.61725  0.72853  0.70124  1.0000
  C   C1431     1.0  0.84889  0.64498  0.69524  1.0000
  C   C1432     1.0  0.76086  0.59969  0.73182  1.0000
  S   S485      1.0  0.80253  0.59970  0.71322  1.0000
  C   C1433     1.0  0.85597  0.65548  0.67454  1.0000
  H   H1435     1.0  0.76666  0.59938  0.64791  1.0000
  H   H1436     1.0  0.54510  0.51419  0.58372  1.0000
  C   C1434     1.0  0.73316  0.60718  0.71191  1.0000
  H   H1437     1.0  0.73673  0.69867  0.69935  1.0000
  H   H1438     1.0  0.82198  0.63717  0.71888  1.0000
  H   H1439     1.0  0.58481  0.51809  0.55029  1.0000
  H   H1440     1.0  0.85677  0.87221  0.51756  1.0000
  H   H1441     1.0  0.64059  0.75152  0.65217  1.0000
  H   H1442     1.0  0.64454  0.66044  0.72981  1.0000
  H   H1443     1.0  0.80366  0.57156  0.66834  1.0000
  C   C1435     1.0  0.74163  0.78321  0.70677  1.0000
  C   C1436     1.0  0.62076  0.74097  0.71269  1.0000
  C   C1437     1.0  0.77554  0.60436  0.71299  1.0000
  H   H1444     1.0  0.74803  0.78968  0.69034  1.0000
  C   C1438     1.0  0.72092  0.79146  0.71603  1.0000
  C   C1439     1.0  0.78956  0.55767  0.69997  1.0000
  H   H1445     1.0  0.62116  0.72258  0.67058  1.0000
  H   H1446     1.0  0.75913  0.57742  0.64283  1.0000
  H   H1447     1.0  0.88084  0.93723  0.60785  1.0000
  N   N118      1.0  0.81299  0.65564  0.69003  1.0000
  H   H1448     1.0  0.58851  0.71741  0.71439  1.0000
  S   S486      1.0  0.62999  0.50341  0.54627  1.0000
  S   S487      1.0  0.50186  0.51374  0.58553  1.0000
  C   C1440     1.0  0.57416  0.49665  0.53843  1.0000
  C   C1441     1.0  0.96175  0.76939  0.53488  1.0000
  C   C1442     1.0  0.71716  0.67557  0.70514  1.0000
  C   C1443     1.0  0.92648  0.76839  0.58857  1.0000
  C   C1444     1.0  0.65689  0.68815  0.72680  1.0000
  C   C1445     1.0  0.58942  0.50398  0.54395  1.0000
  C   C1446     1.0  0.84653  0.86249  0.49429  1.0000
  H   H1449     1.0  0.59400  0.52346  0.49531  1.0000
  C   C1447     1.0  0.75246  0.55692  0.70588  1.0000
  C   C1448     1.0  0.71266  0.78270  0.73700  1.0000
  C   C1449     1.0  0.77093  0.55282  0.71368  1.0000
  H   H1450     1.0  0.73765  0.55402  0.71652  1.0000
  H   H1451     1.0  0.85664  0.99051  0.56279  1.0000
  C   C1450     1.0  0.96420  0.53972  0.95065  1.0000
  C   C1451     1.0  0.52202  0.76997  0.87809  1.0000
  H   H1452     1.0  0.52038  0.96288  0.84380  1.0000
  H   H1453     1.0  0.55078  0.95146  0.88991  1.0000
  C   C1452     1.0  0.50903  0.93793  0.97084  1.0000
  S   S488      1.0  0.83890  0.59335  0.75233  1.0000
  H   H1454     1.0  0.54780  0.80291  0.81193  1.0000
  S   S489      1.0  0.88997  0.53413  0.87173  1.0000
  C   C1453     1.0  0.61487  0.77352  0.82870  1.0000
  S   S490      1.0  0.66066  0.71090  0.79661  1.0000
  C   C1454     1.0  0.58761  0.94199  0.91976  1.0000
  H   H1455     1.0  0.53748  0.93781  0.84054  1.0000
  Fe  Fe244     1.0  0.54610  0.83288  0.90527  1.0000
  S   S491      1.0  0.56290  0.85295  0.87653  1.0000
  S   S492      1.0  0.51670  0.82061  0.90925  1.0000
  Fe  Fe245     1.0  0.57522  0.83366  0.93291  1.0000
  S   S493      1.0  0.59506  0.85334  0.90659  1.0000
  S   S494      1.0  0.57629  0.82385  0.96737  1.0000
  Fe  Fe246     1.0  0.56397  0.87217  0.89882  1.0000
  S   S495      1.0  0.55392  0.90765  0.89218  1.0000
  Fe  Fe247     1.0  0.59241  0.83224  0.88678  1.0000
  S   S496      1.0  0.62095  0.82145  0.86288  1.0000
  S   S497      1.0  0.54432  0.85413  0.92655  1.0000
  S   S498      1.0  0.57547  0.81054  0.91397  1.0000
  H   H1456     1.0  0.49879  0.95005  0.97900  1.0000
  Fe  Fe248     1.0  0.68916  0.72555  0.78129  1.0000
  S   S499      1.0  0.72024  0.71513  0.79189  1.0000
  Fe  Fe249     1.0  0.82590  0.57523  0.78452  1.0000
  C   C1455     1.0  0.49476  0.82408  0.84932  1.0000
  S   S500      1.0  0.84323  0.54278  0.79848  1.0000
  Fe  Fe250     1.0  0.78420  0.60657  0.78915  1.0000
  H   H1457     1.0  0.60423  0.94251  0.84970  1.0000
  S   S501      1.0  0.75101  0.61524  0.80731  1.0000
  H   H1458     1.0  0.56076  0.80239  0.83228  1.0000
  H   H1459     1.0  0.95912  0.50713  0.93292  1.0000
  H   H1460     1.0  0.51706  0.91989  0.92604  1.0000
  H   H1461     1.0  0.97593  0.51742  0.90848  1.0000
  S   S502      1.0  0.79460  0.57669  0.77678  1.0000
  S   S503      1.0  0.81458  0.60373  0.79938  1.0000
  H   H1462     1.0  0.52760  0.94346  0.86656  1.0000
  N   N119      1.0  0.66812  0.75841  0.85907  1.0000
  C   C1456     1.0  0.67946  0.72593  0.83714  1.0000
  C   C1457     1.0  0.78780  0.68807  0.74314  1.0000
  H   H1463     1.0  0.79850  0.66444  0.76917  1.0000
  S   S504      1.0  0.63753  0.74446  0.75970  1.0000
  Fe  Fe251     1.0  0.90747  0.50133  0.88428  1.0000
  H   H1464     1.0  0.67282  0.77318  0.88151  1.0000
  H   H1465     1.0  0.68398  0.71321  0.82862  1.0000
  C   C1458     1.0  0.52155  0.83290  0.98284  1.0000
  C   C1459     1.0  0.91180  0.50611  0.95881  1.0000
  C   C1460     1.0  0.72870  0.68731  0.79679  1.0000
  C   C1461     1.0  0.71403  0.67408  0.80191  1.0000
  C   C1462     1.0  0.72089  0.65193  0.80575  1.0000
  C   C1463     1.0  0.74253  0.64291  0.80385  1.0000
  C   C1464     1.0  0.75722  0.65609  0.79874  1.0000
  C   C1465     1.0  0.75030  0.67825  0.79550  1.0000
  H   H1466     1.0  0.69735  0.68079  0.80319  1.0000
  H   H1467     1.0  0.70946  0.64177  0.80982  1.0000
  H   H1468     1.0  0.77391  0.64912  0.79768  1.0000
  H   H1469     1.0  0.76176  0.68833  0.79173  1.0000
  C   C1466     1.0  0.52562  0.92366  0.97953  1.0000
  C   C1467     1.0  0.53351  0.95044  0.84964  1.0000
  C   C1468     1.0  0.57273  0.95335  0.90740  1.0000
  H   H1470     1.0  0.81557  0.57172  0.84670  1.0000
  Fe  Fe252     1.0  0.80666  0.59748  0.74591  1.0000
  H   H1471     1.0  0.64191  0.78314  0.80602  1.0000
  C   C1469     1.0  0.75819  0.73961  0.75159  1.0000
  S   S505      1.0  0.60055  0.95570  0.92968  1.0000
  H   H1472     1.0  0.63418  0.93341  0.95784  1.0000
  S   S506      1.0  0.65194  0.68560  0.75417  1.0000
  C   C1470     1.0  0.56706  0.92042  0.90311  1.0000
  C   C1471     1.0  0.58182  0.90896  0.91571  1.0000
  H   H1473     1.0  0.58535  0.89186  0.91910  1.0000
  C   C1472     1.0  0.61746  0.80402  0.84923  1.0000
  C   C1473     1.0  0.60122  0.79247  0.85731  1.0000
  C   C1474     1.0  0.60006  0.77710  0.84713  1.0000
  C   C1475     1.0  0.63209  0.80059  0.83070  1.0000
  H   H1474     1.0  0.58999  0.79496  0.87172  1.0000
  H   H1475     1.0  0.58804  0.76757  0.85380  1.0000
  H   H1476     1.0  0.60354  0.91089  0.93377  1.0000
  C   C1476     1.0  0.50587  0.93655  0.95152  1.0000
  C   C1477     1.0  0.57148  0.94572  0.84834  1.0000
  C   C1478     1.0  0.52151  0.77834  0.83541  1.0000
  H   H1477     1.0  0.58439  0.96023  0.97328  1.0000
  C   C1479     1.0  0.72527  0.76569  0.74845  1.0000
  H   H1478     1.0  0.56721  0.77957  0.82047  1.0000
  N   N120      1.0  0.81945  0.53807  0.85771  1.0000
  N   N121      1.0  0.55219  0.95914  0.84770  1.0000
  C   C1480     1.0  0.49314  0.85370  0.96529  1.0000
  C   C1481     1.0  0.61455  0.86154  0.96894  1.0000
  N   N122      1.0  0.52187  0.81590  0.97497  1.0000
  H   H1479     1.0  0.71132  0.73094  0.83120  1.0000
  N   N123      1.0  0.53864  0.90841  0.96928  1.0000
  H   H1480     1.0  0.53474  0.83515  0.86476  1.0000
  Fe  Fe253     1.0  0.64209  0.74439  0.79164  1.0000
  C   C1482     1.0  0.87996  0.53695  0.84911  1.0000
  C   C1483     1.0  0.86974  0.55703  0.83954  1.0000
  C   C1484     1.0  0.85944  0.55922  0.82303  1.0000
  C   C1485     1.0  0.85915  0.54127  0.81623  1.0000
  C   C1486     1.0  0.87012  0.52133  0.82520  1.0000
  C   C1487     1.0  0.88051  0.51916  0.84161  1.0000
  H   H1481     1.0  0.86942  0.57087  0.84520  1.0000
  H   H1482     1.0  0.85131  0.57470  0.81597  1.0000
  N   N124      1.0  0.71155  0.65424  0.74048  1.0000
  C   C1488     1.0  0.97402  0.54561  0.96368  1.0000
  S   S507      1.0  0.67088  0.75914  0.77888  1.0000
  C   C1489     1.0  0.56232  0.94257  0.89933  1.0000
  C   C1490     1.0  0.52030  0.83001  0.86608  1.0000
  C   C1491     1.0  0.92078  0.51937  0.98511  1.0000
  H   H1483     1.0  0.70087  0.76013  0.85055  1.0000
  H   H1484     1.0  0.49780  0.88393  0.91235  1.0000
  C   C1492     1.0  0.50526  0.76967  0.85035  1.0000
  C   C1493     1.0  0.68885  0.75230  0.84963  1.0000
  C   C1494     1.0  0.70082  0.63855  0.75658  1.0000
  H   H1485     1.0  0.90578  0.53928  0.95968  1.0000
  C   C1495     1.0  0.60393  0.85020  0.96163  1.0000
  H   H1486     1.0  0.50896  0.80423  0.95539  1.0000
  H   H1487     1.0  0.80793  0.55865  0.83081  1.0000
  C   C1496     1.0  0.55414  0.79237  0.82581  1.0000
  H   H1488     1.0  0.66352  0.79117  0.85871  1.0000
  C   C1497     1.0  0.69486  0.73589  0.83865  1.0000
  Fe  Fe254     1.0  0.66786  0.75643  0.74717  1.0000
  S   S508      1.0  0.93339  0.49781  0.90151  1.0000
  H   H1489     1.0  0.64739  0.95593  0.97946  1.0000
  H   H1490     1.0  0.55036  0.78273  0.86778  1.0000
  C   C1498     1.0  0.83994  0.51783  0.88388  1.0000
  H   H1491     1.0  0.52205  0.76744  0.89476  1.0000
  C   C1499     1.0  0.63069  0.78550  0.82037  1.0000
  H   H1492     1.0  0.81307  0.52070  0.83841  1.0000
  S   S509      1.0  0.68897  0.72428  0.74837  1.0000
  C   C1500     1.0  0.91219  0.52317  0.96713  1.0000
  H   H1493     1.0  0.52240  0.83703  0.83232  1.0000
  C   C1501     1.0  0.80789  0.55850  0.84746  1.0000
  C   C1502     1.0  0.51215  0.97873  0.89780  1.0000
  H   H1494     1.0  0.72860  0.59631  0.74577  1.0000
  C   C1503     1.0  0.49388  0.83643  0.95698  1.0000
  C   C1504     1.0  0.83102  0.50029  0.86124  1.0000
  C   C1505     1.0  0.50552  0.76553  0.87182  1.0000
  H   H1495     1.0  0.77536  0.73727  0.74417  1.0000
  C   C1506     1.0  0.59203  0.91976  0.92413  1.0000
  H   H1496     1.0  0.64568  0.77742  0.87946  1.0000
  C   C1507     1.0  0.53702  0.79592  0.97982  1.0000
  C   C1508     1.0  0.59618  0.96726  0.97590  1.0000
  N   N125      1.0  0.97598  0.52901  0.93537  1.0000
  H   H1497     1.0  0.56934  0.97048  0.90397  1.0000
  H   H1498     1.0  0.63640  0.75387  0.86466  1.0000
  C   C1509     1.0  0.51910  0.92084  0.94129  1.0000
  C   C1510     1.0  0.62253  0.93410  0.97298  1.0000
  H   H1499     1.0  0.71864  0.75862  0.76462  1.0000
  H   H1500     1.0  0.95152  0.53396  0.91835  1.0000
  H   H1501     1.0  0.88819  0.50361  0.84897  1.0000
  H   H1502     1.0  0.62618  0.87005  0.95793  1.0000
  C   C1511     1.0  0.82895  0.53719  0.87382  1.0000
  H   H1503     1.0  0.60762  0.84979  0.94510  1.0000
  H   H1504     1.0  0.76593  0.59432  0.74677  1.0000
  C   C1512     1.0  0.65290  0.74879  0.85755  1.0000
  H   H1505     1.0  0.52078  0.78217  0.81880  1.0000
  N   N126      1.0  0.53740  0.78306  0.84172  1.0000
  H   H1506     1.0  0.51580  0.96368  0.90861  1.0000
  Fe  Fe255     1.0  0.65888  0.71245  0.76337  1.0000
  C   C1513     1.0  0.55593  0.89341  0.97849  1.0000
  C   C1514     1.0  0.53797  0.77872  0.86273  1.0000
  C   C1515     1.0  0.50843  0.81754  0.96202  1.0000
  C   C1516     1.0  0.84103  0.49929  0.87747  1.0000
  H   H1507     1.0  0.64456  0.80963  0.82433  1.0000
  C   C1517     1.0  0.66229  0.77582  0.87025  1.0000
  H   H1508     1.0  0.84837  0.51741  0.89589  1.0000
  H   H1509     1.0  0.79122  0.56163  0.85621  1.0000
  C   C1518     1.0  0.72401  0.66433  0.74610  1.0000
  H   H1510     1.0  0.64608  0.72530  0.84487  1.0000
  S   S510      1.0  0.61395  0.75320  0.81715  1.0000
  C   C1519     1.0  0.65830  0.73253  0.84645  1.0000
  H   H1511     1.0  0.72674  0.66011  0.76209  1.0000
  S   S511      1.0  0.79339  0.62732  0.75761  1.0000
  H   H1512     1.0  0.77130  0.68949  0.75090  1.0000
  H   H1513     1.0  0.94707  0.54372  0.95291  1.0000
  C   C1520     1.0  0.53533  0.90666  0.95059  1.0000
  N   N127      1.0  0.61645  0.95594  0.97616  1.0000
  H   H1514     1.0  0.54552  0.89446  0.94256  1.0000
  C   C1521     1.0  0.51338  0.83095  0.84772  1.0000
  S   S512      1.0  0.84234  0.64898  0.75419  1.0000
  C   C1522     1.0  0.80316  0.67376  0.75349  1.0000
  C   C1523     1.0  0.96516  0.52154  0.92315  1.0000
  H   H1515     1.0  0.52890  0.78224  0.98485  1.0000
  C   C1524     1.0  0.58926  0.83877  0.97589  1.0000
  C   C1525     1.0  0.82017  0.51992  0.85152  1.0000
  H   H1516     1.0  0.57310  0.92883  0.84962  1.0000
  H   H1517     1.0  0.90488  0.50905  0.94511  1.0000
  H   H1518     1.0  0.86999  0.50742  0.81993  1.0000
  C   C1526     1.0  0.50854  0.82227  0.88599  1.0000
  H   H1519     1.0  0.75641  0.74163  0.76790  1.0000
  Fe  Fe256     1.0  0.82491  0.62201  0.76629  1.0000
  H   H1520     1.0  0.60039  0.98088  0.84854  1.0000
  C   C1527     1.0  0.50710  0.85199  0.97825  1.0000
  H   H1521     1.0  0.68598  0.64685  0.76555  1.0000
  H   H1522     1.0  0.82882  0.55160  0.87844  1.0000
  H   H1523     1.0  0.71121  0.62880  0.76775  1.0000
  C   C1528     1.0  0.82445  0.67080  0.74335  1.0000
  C   C1529     1.0  0.63142  0.96498  0.97906  1.0000
  H   H1524     1.0  0.49328  0.94768  0.94440  1.0000
  H   H1525     1.0  0.50644  0.86511  0.98520  1.0000
  C   C1530     1.0  0.54994  0.98026  0.84707  1.0000
  H   H1526     1.0  0.49215  0.76695  0.84530  1.0000
  H   H1527     1.0  0.55179  0.87748  0.98492  1.0000
  H   H1528     1.0  0.49263  0.75947  0.88357  1.0000
  H   H1529     1.0  0.54978  0.79405  0.96562  1.0000
  H   H1530     1.0  0.75259  0.72499  0.75264  1.0000
  C   C1531     1.0  0.58913  0.95334  0.84852  1.0000
  H   H1531     1.0  0.69660  0.62747  0.74929  1.0000
  H   H1532     1.0  0.96446  0.55381  0.97599  1.0000
  C   C1532     1.0  0.59043  0.98813  0.97880  1.0000
  C   C1533     1.0  0.58693  0.97482  0.84802  1.0000
  H   H1533     1.0  0.57086  0.89198  0.96631  1.0000
  H   H1534     1.0  0.69639  0.78878  0.74409  1.0000
  H   H1535     1.0  0.60877  0.92815  0.97200  1.0000
  C   C1534     1.0  0.49635  0.98216  0.88632  1.0000
  H   H1536     1.0  0.62949  0.92314  0.98630  1.0000
  C   C1535     1.0  0.62621  0.98580  0.98207  1.0000
  C   C1536     1.0  0.56723  0.98842  0.84725  1.0000
  N   N128      1.0  0.74565  0.75785  0.73934  1.0000
