data_image0
_chemical_formula_structural       FeSCFeSHFeSFeS3HSHFeS2FeSFeS3FeS2FeS2FeSFeCS2FeS2FeHSHFeS3H3C6HCH2CH3C6H4C6H6C6H4C6H4CHC6H3C6SH3N2H2C2SHSC4HC3HSHCHCHCHCHNCH4CHC2S2HCHCHCHC3H7NC6H8NC3HSCH3C2H5C3H2C2HCH4CHCNC3NFeH7CFeS2FeS2FeSFeS3FeS2FeHSHFeS3FeHSFeS2FeC2HS2FeS2FeSCFeSFeS3C2HC2NH2C6H6C3H5C6SH3C6H5C6H4C6HCHC6NH3C6H3NC6H5CH4FeHCH3CH2C2HCHC2S2H2CHNSNC5H6CH5C2SNH2C8HSH2C2H3CH2CHNC6H8NH2NC2HC2H2C2H2C3HC2H2CH2CSFeS2FeS2FeCFeS3FeS2FeS2FeS2HS2HCHC7H4C4HC6H8CH3CH2CH2N2C3HC2H7C3H3NC3HC2HFeH2CHFeH2C2HSFeS2FeCSH2FeHS2FeS2FeS2FeSCHS2HC6H4C3H3C4H4C4H3C6H4CHNCH6CHC3NFeC2H3C3H2C2HCH2CSH2FeNCNHC2SCHCFeHCH3SHSCFeS2FeSFeS2HFeS2HSCFeSFeS3C6H4C4NH3CHC3H2CHSC6H4C3FeCH3C2H4C2HCH3CHNC5H2CHCH4CHCHFeC2H2CH2C3NHCHCH4CHCFeSFeS2FeSHFeSFeS3FeS2FeS2CHFeS3H3CHCSC6H2CHC6H5C3H3CHCHC2HFeCH5NC2NCHFeH3C2H2CSCFeS2FeSFeS3FeS2FeS2FeHFeCS2FeS2FeHSFeSHS2FeS2FeS2FeSFeCS2H4C7H3C6H3C5HCHC6H4C4SCH2CHC2HC2HC6H4C7H3C6H5CH8SCN2CH2SCH3SHCH3NC2HCNCH3CHCNH2C2HCHCNH3C2NC2HNC6H3FeH5NHC2H2CHSHCH2C5H2CSH6C3HC3HCH2CH3CHC2HCH5CHCH2CHCHFeS2FeCSFeSCS2FeS2FeS2FeCFeS3FeS2FeS2FeSHNS2FeS2FeS2FeSFeHS2H2C7H3C8H5C6HCH2C6H3C6H4C6H3C6H5CH3SH2CHC3H2CHFeNCH2NHCH2C2H3C3NH2CHCHC2NC6H3SH5CSH2SHCHCHCH6CH2CSNCHC2H2CSCHCHNH4CNH3CHCHCH3CH2NCFeS2FeS2FeHFeS3HSHFeS2FeSFeS3FeS2FeS2FeSFeCS2HSFeS2FeSFeSCSCHC3HCH2C6H4C6HCH2C2H2CHSHC6H4C7NH3C6H4C6H3FeC6H6C2H2CHCHC2HC2HCH3CNCHCH3CNC6H5C2HCSH3CH2CH2C3HSNCHCHSHNC3HC2H3CH5NCH6C4HCH2C2NCH6NHCH4CSCHNHCHCH3NH3C2HCHSC2HCHFeHSFeS2HFeSFeSFeS2FeS2FeSH2S2FeS2FeS2H2FeS3FeS2FeS2FeSFeCS2C8H2CHC6HCH2C6H4C6H4C6H4C6H3C6H4C2H2C2HSH2CHCNCHC2H7NHCHCHC2HCSH2CH2SHCHCH5CNC5H5C2HCH2NC2H4NHCHCHC2HNH2C3HCH5CH2CH2CHNSFeH3SH2NC2NC2HCH2CH2SCSHFeSHFeSFeS2CFeS2FeCSFeSFeNS2H2C6H2CHNSC3HCH2C6HCHC6H4C5H2SCHCNC2HC2H3CH4S2HCHC3H4C2HCHFeNH2C3H3C2NC2H2CSH9C2HC2HSFeS2FeCSFeHFeS3FeS2FeS2CHFeS4CH3C6H4CH2CHC6H3CHC4H3NC6H4CH3C2HFeHCH2CNHCSC2H3CHFeHCNH2C4H2SFeSCHSHFeSFeS2CFeS2FeS2FeSFeS3H2C6H4C6H4C4H4C5HCNHCSHCH3C2H5C2H3C2FeCHCFeHCHCN2CH2CNSFeS2HSCFeSFeS2HNSHFeSCFeSFeS2C7H4C3H3C4HSH2C5H2C7H7C7HNH2CH3CFeHSCH4FeHCHNCH3C3HSHC3HFeCH3FeS2FeS2FeNFeS3NSHFeSHFeSFeS2HCSHFeS2FeSFeS3FeHSFeS2FeSHS2C6H5C4HCH4C6H5CH3FeC6H4C6H4C6H3C6H3CSC2H2NC2HCH5CH2NSCH3C4HC7H3CHCHCHCH2SH2C2H2CH2C6H3NC2HC3H2NH5NH3FeC2HCHCHSH2CH5CSCNH3SC2HSH3CHCFeS2FeS2FeSFeCS2FeHSFeS2CFeSCSFeHSFeS2HCFeS3FeS2FeS2HCFeS4HFeC3HCH2C6H5C3HNHC7H4C6H3C3HC2H4C6H4CHC6H4C6H8CH2CFeCHC2H4C6H3C3NHCNHCH2CHC2HCHNH2NHCH2C3HC2HCSHCSNH2C2H2NCHCHCHCH2C2HCHNC3HSC2SH4FeC2H4CHC2HCSHCHSH2C2H4CH3C2H2CSH2
_chemical_formula_sum              "Fe192 S384 C1152 H1152 N96"
_cell_length_a       60.1343
_cell_length_b       60.2045
_cell_length_c       64.996
_cell_angle_alpha    86.6984
_cell_angle_beta     86.9896
_cell_angle_gamma    87.5867

_space_group_name_H-M_alt    "P 1"
_space_group_IT_number       1

loop_
  _space_group_symop_operation_xyz
  'x, y, z'

loop_
  _atom_site_type_symbol
  _atom_site_label
  _atom_site_symmetry_multiplicity
  _atom_site_fract_x
  _atom_site_fract_y
  _atom_site_fract_z
  _atom_site_occupancy
  Fe  Fe1       1.0  0.09332  0.35333  0.21752  1.0000
  S   S1        1.0  0.08946  0.36501  0.18422  1.0000
  C   C1        1.0  0.34386  0.37364  0.07268  1.0000
  Fe  Fe2       1.0  0.08749  0.30460  0.20846  1.0000
  S   S2        1.0  0.08479  0.31306  0.17471  1.0000
  H   H1        1.0  0.17219  0.34658  0.19654  1.0000
  Fe  Fe3       1.0  0.11305  0.33621  0.17750  1.0000
  S   S3        1.0  0.14407  0.33708  0.15539  1.0000
  Fe  Fe4       1.0  0.06135  0.34104  0.18482  1.0000
  S   S4        1.0  0.02888  0.34402  0.16763  1.0000
  S   S5        1.0  0.11773  0.32515  0.21071  1.0000
  S   S6        1.0  0.06327  0.33195  0.21860  1.0000
  H   H2        1.0  0.36132  0.32680  0.04876  1.0000
  S   S7        1.0  0.07992  0.08473  0.21278  1.0000
  H   H3        1.0  0.30656  0.02520  0.22856  1.0000
  Fe  Fe5       1.0  0.08882  0.14540  0.19039  1.0000
  S   S8        1.0  0.07206  0.11998  0.17295  1.0000
  S   S9        1.0  0.09696  0.18002  0.17677  1.0000
  Fe  Fe6       1.0  0.05353  0.11104  0.20331  1.0000
  S   S10       1.0  0.01564  0.10954  0.21181  1.0000
  Fe  Fe7       1.0  0.09978  0.09584  0.18364  1.0000
  S   S11       1.0  0.11954  0.07183  0.16243  1.0000
  S   S12       1.0  0.06932  0.13791  0.22003  1.0000
  S   S13       1.0  0.11750  0.12197  0.19863  1.0000
  Fe  Fe8       1.0  0.28136  0.41150  0.07948  1.0000
  S   S14       1.0  0.25785  0.43996  0.08821  1.0000
  S   S15       1.0  0.29087  0.40655  0.04574  1.0000
  Fe  Fe9       1.0  0.29310  0.40039  0.12403  1.0000
  S   S16       1.0  0.27132  0.42858  0.13585  1.0000
  S   S17       1.0  0.31065  0.37202  0.14217  1.0000
  Fe  Fe10      1.0  0.24578  0.41698  0.11500  1.0000
  S   S18       1.0  0.20915  0.41628  0.12748  1.0000
  Fe  Fe11      1.0  0.28518  0.44919  0.10804  1.0000
  C   C2        1.0  0.25746  0.05186  0.19879  1.0000
  S   S19       1.0  0.26708  0.38784  0.10427  1.0000
  S   S20       1.0  0.30913  0.42167  0.09824  1.0000
  Fe  Fe12      1.0  0.28360  0.04358  0.09798  1.0000
  S   S21       1.0  0.25499  0.02086  0.09786  1.0000
  S   S22       1.0  0.28907  0.07059  0.07270  1.0000
  Fe  Fe13      1.0  0.29964  0.02219  0.13845  1.0000
  H   H4        1.0  0.14315  0.36465  0.21941  1.0000
  S   S23       1.0  0.32529  0.02308  0.16276  1.0000
  H   H5        1.0  0.34503  0.39161  0.07128  1.0000
  Fe  Fe14      1.0  0.24976  0.02599  0.13209  1.0000
  S   S24       1.0  0.22234  0.03731  0.15593  1.0000
  S   S25       1.0  0.30935  0.01689  0.10525  1.0000
  S   S26       1.0  0.27650  0.05115  0.13103  1.0000
  H   H6        1.0  0.33740  0.31006  0.07712  1.0000
  H   H7        1.0  0.12740  0.35950  0.11643  1.0000
  H   H8        1.0  0.32291  0.32996  0.12118  1.0000
  C   C3        1.0  0.14865  0.06403  0.15995  1.0000
  C   C4        1.0  0.15661  0.05124  0.14340  1.0000
  C   C5        1.0  0.17922  0.04373  0.14137  1.0000
  C   C6        1.0  0.19419  0.04844  0.15619  1.0000
  C   C7        1.0  0.18625  0.06131  0.17270  1.0000
  C   C8        1.0  0.16381  0.06937  0.17438  1.0000
  H   H9        1.0  0.14514  0.04696  0.13211  1.0000
  C   C9        1.0  0.15670  0.39713  0.21446  1.0000
  H   H10       1.0  0.19755  0.06511  0.18429  1.0000
  H   H11       1.0  0.15820  0.07948  0.18698  1.0000
  C   C10       1.0  0.35525  0.36029  0.05842  1.0000
  H   H12       1.0  0.00385  0.09295  0.17202  1.0000
  H   H13       1.0  0.29187  0.00567  0.19995  1.0000
  H   H14       1.0  0.11728  0.39840  0.12436  1.0000
  C   C11       1.0  0.08300  0.24578  0.20863  1.0000
  C   C12       1.0  0.09571  0.24523  0.19002  1.0000
  C   C13       1.0  0.09927  0.22505  0.18017  1.0000
  C   C14       1.0  0.09023  0.20526  0.18882  1.0000
  C   C15       1.0  0.07701  0.20593  0.20715  1.0000
  C   C16       1.0  0.07334  0.22615  0.21695  1.0000
  H   H15       1.0  0.10326  0.26020  0.18347  1.0000
  H   H16       1.0  0.10942  0.22468  0.16594  1.0000
  H   H17       1.0  0.06985  0.19085  0.21391  1.0000
  H   H18       1.0  0.16037  0.18248  0.20960  1.0000
  C   C17       1.0  0.16205  0.35935  0.14816  1.0000
  C   C18       1.0  0.15577  0.38161  0.15126  1.0000
  C   C19       1.0  0.17025  0.39875  0.14453  1.0000
  C   C20       1.0  0.19138  0.39391  0.13503  1.0000
  C   C21       1.0  0.19775  0.37163  0.13219  1.0000
  C   C22       1.0  0.18307  0.35453  0.13850  1.0000
  H   H19       1.0  0.13975  0.38565  0.15877  1.0000
  H   H20       1.0  0.16512  0.41591  0.14684  1.0000
  H   H21       1.0  0.21389  0.36759  0.12490  1.0000
  H   H22       1.0  0.18811  0.33740  0.13593  1.0000
  H   H23       1.0  0.11815  0.32010  0.12419  1.0000
  H   H24       1.0  0.07845  0.40846  0.13684  1.0000
  C   C23       1.0  0.32815  0.08317  0.20285  1.0000
  C   C24       1.0  0.34252  0.06455  0.20599  1.0000
  C   C25       1.0  0.34145  0.04617  0.19366  1.0000
  C   C26       1.0  0.32585  0.04619  0.17830  1.0000
  C   C27       1.0  0.31128  0.06470  0.17547  1.0000
  C   C28       1.0  0.31253  0.08315  0.18757  1.0000
  H   H25       1.0  0.25961  0.38095  0.00982  1.0000
  H   H26       1.0  0.35281  0.03193  0.19598  1.0000
  H   H27       1.0  0.29914  0.06496  0.16385  1.0000
  H   H28       1.0  0.30130  0.09747  0.18512  1.0000
  C   C29       1.0  0.34609  0.37720  0.20257  1.0000
  C   C30       1.0  0.33961  0.39664  0.19102  1.0000
  C   C31       1.0  0.32824  0.39540  0.17272  1.0000
  C   C32       1.0  0.32361  0.37464  0.16570  1.0000
  C   C33       1.0  0.33008  0.35522  0.17727  1.0000
  C   C34       1.0  0.34112  0.35647  0.19572  1.0000
  H   H29       1.0  0.34339  0.41274  0.19621  1.0000
  H   H30       1.0  0.32339  0.41046  0.16391  1.0000
  H   H31       1.0  0.32659  0.33910  0.17194  1.0000
  H   H32       1.0  0.27055  0.00334  0.04747  1.0000
  C   C35       1.0  0.35306  0.33726  0.06016  1.0000
  H   H33       1.0  0.35969  0.03801  0.04406  1.0000
  C   C36       1.0  0.31176  0.06841  0.05443  1.0000
  C   C37       1.0  0.32886  0.05217  0.05695  1.0000
  C   C38       1.0  0.34657  0.05069  0.04205  1.0000
  C   C39       1.0  0.34720  0.06519  0.02436  1.0000
  C   C40       1.0  0.33018  0.08154  0.02186  1.0000
  C   C41       1.0  0.31259  0.08321  0.03693  1.0000
  H   H34       1.0  0.32853  0.04069  0.07029  1.0000
  H   H35       1.0  0.33057  0.09289  0.00834  1.0000
  H   H36       1.0  0.29947  0.09590  0.03491  1.0000
  C   C42       1.0  0.32073  0.34190  0.02070  1.0000
  C   C43       1.0  0.32846  0.36248  0.01302  1.0000
  C   C44       1.0  0.31986  0.38217  0.02150  1.0000
  C   C45       1.0  0.30364  0.38143  0.03781  1.0000
  C   C46       1.0  0.29637  0.36083  0.04594  1.0000
  C   C47       1.0  0.30482  0.34111  0.03730  1.0000
  S   S27       1.0  0.32911  0.10688  0.21742  1.0000
  H   H37       1.0  0.32547  0.39810  0.01512  1.0000
  H   H38       1.0  0.28365  0.36016  0.05836  1.0000
  H   H39       1.0  0.29877  0.32522  0.04330  1.0000
  N   N1        1.0  0.29891  0.01772  0.03202  1.0000
  N   N2        1.0  0.32793  0.34118  0.08985  1.0000
  H   H40       1.0  0.43413  0.38717  0.22770  1.0000
  H   H41       1.0  0.14365  0.08316  0.22656  1.0000
  C   C48       1.0  0.10111  0.32485  0.11914  1.0000
  C   C49       1.0  0.08300  0.39150  0.13301  1.0000
  S   S28       1.0  0.08035  0.27009  0.22282  1.0000
  H   H42       1.0  0.28550  0.04620  0.01512  1.0000
  S   S29       1.0  0.29641  0.48506  0.10987  1.0000
  C   C50       1.0  0.00930  0.28952  0.18509  1.0000
  C   C51       1.0  0.28362  0.39577  0.98787  1.0000
  C   C52       1.0  0.11038  0.36382  0.12158  1.0000
  C   C53       1.0  0.27185  0.37804  0.99727  1.0000
  H   H43       1.0  0.18486  0.03371  0.12869  1.0000
  C   C54       1.0  0.17279  0.36419  0.19921  1.0000
  C   C55       1.0  0.99587  0.35230  0.19849  1.0000
  C   C56       1.0  0.31577  0.00179  0.03321  1.0000
  H   H44       1.0  0.29842  0.34191  0.10945  1.0000
  S   S30       1.0  0.36105  0.37940  0.22506  1.0000
  H   H45       1.0  0.10076  0.32325  0.10223  1.0000
  C   C57       1.0  0.27679  0.35649  0.99110  1.0000
  H   H46       1.0  0.38160  0.19818  0.00239  1.0000
  C   C58       1.0  0.33335  0.01759  0.00179  1.0000
  H   H47       1.0  0.00926  0.35504  0.20843  1.0000
  C   C59       1.0  0.13264  0.05128  0.21865  1.0000
  H   H48       1.0  0.05022  0.37922  0.14084  1.0000
  C   C60       1.0  0.01151  0.29569  0.22122  1.0000
  H   H49       1.0  0.26019  0.02281  0.18082  1.0000
  N   N3        1.0  0.09487  0.34778  0.12422  1.0000
  C   C61       1.0  0.33034  0.36371  0.08847  1.0000
  H   H50       1.0  0.06098  0.34062  0.13263  1.0000
  H   H51       1.0  0.26836  0.34248  0.99877  1.0000
  H   H52       1.0  0.08970  0.31274  0.12717  1.0000
  H   H53       1.0  0.14373  0.40509  0.22410  1.0000
  C   C62       1.0  0.33928  0.32792  0.07610  1.0000
  H   H54       1.0  0.38761  0.23866  0.99509  1.0000
  C   C63       1.0  0.06716  0.37513  0.13523  1.0000
  C   C64       1.0  0.07340  0.35324  0.13066  1.0000
  S   S31       1.0  0.33050  0.31696  0.00984  1.0000
  S   S32       1.0  0.36885  0.06146  0.00533  1.0000
  H   H55       1.0  0.34074  0.36327  0.00029  1.0000
  C   C65       1.0  0.31377  0.33127  0.10669  1.0000
  H   H56       1.0  0.13119  0.22309  0.22107  1.0000
  C   C66       1.0  0.26622  0.06265  0.21491  1.0000
  H   H57       1.0  0.12427  0.05789  0.20508  1.0000
  C   C67       1.0  0.13236  0.02859  0.22424  1.0000
  H   H58       1.0  0.36529  0.36781  0.04574  1.0000
  C   C68       1.0  0.39059  0.20394  0.98831  1.0000
  C   C69       1.0  0.14260  0.18381  0.20575  1.0000
  C   C70       1.0  0.14372  0.06541  0.23056  1.0000
  H   H59       1.0  0.35469  0.06444  0.21770  1.0000
  H   H60       1.0  0.24378  0.05946  0.19025  1.0000
  H   H61       1.0  0.30838  0.31454  0.10320  1.0000
  H   H62       1.0  0.25913  0.07881  0.21885  1.0000
  H   H63       1.0  0.28862  0.01684  0.06364  1.0000
  H   H64       1.0  0.48195  0.30297  0.98666  1.0000
  H   H65       1.0  0.34609  0.34139  0.20444  1.0000
  N   N4        1.0  0.32531  0.09371  0.12019  1.0000
  C   C71       1.0  0.33228  0.07304  0.11421  1.0000
  C   C72       1.0  0.33402  0.10237  0.13691  1.0000
  C   C73       1.0  0.34845  0.06048  0.12498  1.0000
  C   C74       1.0  0.35044  0.09039  0.14788  1.0000
  C   C75       1.0  0.35762  0.06928  0.14188  1.0000
  C   C76       1.0  0.30782  0.10608  0.10891  1.0000
  H   H66       1.0  0.32507  0.06604  0.10120  1.0000
  H   H67       1.0  0.32808  0.11847  0.14210  1.0000
  H   H68       1.0  0.35336  0.04376  0.12067  1.0000
  H   H69       1.0  0.35689  0.09701  0.16149  1.0000
  H   H70       1.0  0.36961  0.05938  0.15079  1.0000
  H   H71       1.0  0.29172  0.09768  0.11174  1.0000
  H   H72       1.0  0.30546  0.12352  0.11354  1.0000
  H   H73       1.0  0.31209  0.10658  0.09202  1.0000
  N   N5        1.0  0.18987  0.39942  0.19220  1.0000
  C   C77       1.0  0.18963  0.37703  0.18956  1.0000
  C   C78       1.0  0.17368  0.40952  0.20443  1.0000
  C   C79       1.0  0.15633  0.37434  0.21181  1.0000
  H   H74       1.0  0.01743  0.28667  0.17013  1.0000
  S   S33       1.0  0.27336  0.99659  0.14008  1.0000
  C   C80       1.0  0.20739  0.41289  0.18190  1.0000
  H   H75       1.0  0.20212  0.36906  0.17947  1.0000
  H   H76       1.0  0.28007  0.41235  0.99325  1.0000
  H   H77       1.0  0.17375  0.42729  0.20639  1.0000
  C   C81       1.0  0.28118  0.01789  0.04834  1.0000
  C   C82       1.0  0.10474  0.38587  0.12605  1.0000
  H   H78       1.0  0.19989  0.42639  0.17175  1.0000
  H   H79       1.0  0.21734  0.42038  0.19344  1.0000
  H   H80       1.0  0.21901  0.40294  0.17180  1.0000
  H   H81       1.0  0.32155  0.37415  0.09950  1.0000
  H   H82       1.0  0.12383  0.01755  0.21494  1.0000
  C   C83       1.0  0.29863  0.03330  0.01584  1.0000
  C   C84       1.0  0.29259  0.03270  0.22043  1.0000
  C   C85       1.0  0.33332  0.00157  0.01819  1.0000
  H   H83       1.0  0.27057  0.03347  0.04756  1.0000
  H   H84       1.0  0.30871  0.48006  0.06588  1.0000
  C   C86       1.0  0.28426  0.02147  0.20437  1.0000
  C   C87       1.0  0.26663  0.03118  0.19349  1.0000
  H   H85       1.0  0.14007  0.19741  0.19368  1.0000
  C   C88       1.0  0.31581  0.03343  0.00045  1.0000
  H   H86       1.0  0.46828  0.12400  0.22328  1.0000
  H   H87       1.0  0.13817  0.16827  0.19871  1.0000
  H   H88       1.0  0.35395  0.22288  0.23173  1.0000
  H   H89       1.0  0.34729  0.01826  0.99047  1.0000
  C   C89       1.0  0.00088  0.34668  0.17813  1.0000
  H   H90       1.0  0.04013  0.28970  0.20062  1.0000
  C   C90       1.0  0.02206  0.29143  0.20216  1.0000
  N   N6        1.0  0.28374  0.05315  0.22533  1.0000
  C   C91       1.0  0.41594  0.38712  0.23164  1.0000
  C   C92       1.0  0.12463  0.20909  0.23039  1.0000
  C   C93       1.0  0.39391  0.22661  0.98421  1.0000
  N   N7        1.0  0.12841  0.18781  0.22431  1.0000
  Fe  Fe15      1.0  0.09655  0.11237  0.22708  1.0000
  H   H91       1.0  0.06340  0.22644  0.23130  1.0000
  H   H92       1.0  0.31611  0.04634  0.98808  1.0000
  H   H93       1.0  0.40739  0.39841  0.22014  1.0000
  H   H94       1.0  0.12307  0.15333  0.23135  1.0000
  H   H95       1.0  0.40993  0.37011  0.23016  1.0000
  H   H96       1.0  0.49120  0.34226  0.01653  1.0000
  H   H97       1.0  0.46855  0.35805  0.98817  1.0000
  C   C94       1.0  0.48652  0.35965  0.98727  1.0000
  Fe  Fe16      1.0  0.17924  0.39278  0.38636  1.0000
  S   S34       1.0  0.19721  0.42464  0.37893  1.0000
  S   S35       1.0  0.17931  0.37670  0.41884  1.0000
  Fe  Fe17      1.0  0.16401  0.39066  0.34231  1.0000
  S   S36       1.0  0.17966  0.42292  0.33227  1.0000
  S   S37       1.0  0.15083  0.36506  0.32206  1.0000
  Fe  Fe18      1.0  0.20941  0.40873  0.34928  1.0000
  S   S38       1.0  0.24335  0.40954  0.33115  1.0000
  Fe  Fe19      1.0  0.16608  0.43582  0.36277  1.0000
  S   S39       1.0  0.14460  0.46825  0.36611  1.0000
  S   S40       1.0  0.19400  0.37626  0.35839  1.0000
  S   S41       1.0  0.14787  0.40429  0.37123  1.0000
  Fe  Fe20      1.0  0.17019  0.03782  0.38064  1.0000
  S   S42       1.0  0.19352  0.00789  0.38384  1.0000
  S   S43       1.0  0.17232  0.06115  0.40655  1.0000
  Fe  Fe21      1.0  0.15222  0.02224  0.34125  1.0000
  H   H98       1.0  0.15048  0.44217  0.40310  1.0000
  S   S44       1.0  0.12774  0.02551  0.31570  1.0000
  H   H99       1.0  0.17066  0.48028  0.40096  1.0000
  Fe  Fe22      1.0  0.20105  0.01390  0.34964  1.0000
  S   S45       1.0  0.23636  0.01165  0.33418  1.0000
  S   S46       1.0  0.14077  0.01799  0.37468  1.0000
  S   S47       1.0  0.17960  0.04522  0.34693  1.0000
  Fe  Fe23      1.0  0.39900  0.32976  0.27864  1.0000
  H   H100      1.0  0.46885  0.07449  0.24771  1.0000
  S   S48       1.0  0.43320  0.33283  0.29281  1.0000
  Fe  Fe24      1.0  0.34742  0.33163  0.28953  1.0000
  S   S49       1.0  0.33976  0.32519  0.25701  1.0000
  S   S50       1.0  0.31821  0.33248  0.31388  1.0000
  Fe  Fe25      1.0  0.36811  0.29949  0.25816  1.0000
  C   C95       1.0  0.15636  0.30430  0.46843  1.0000
  C   C96       1.0  0.14567  0.30975  0.45008  1.0000
  H   H101      1.0  0.07835  0.03046  0.46644  1.0000
  S   S51       1.0  0.37439  0.30421  0.29133  1.0000
  S   S52       1.0  0.37240  0.35747  0.28002  1.0000
  Fe  Fe26      1.0  0.36209  0.13743  0.27936  1.0000
  S   S53       1.0  0.37207  0.10824  0.30063  1.0000
  S   S54       1.0  0.36932  0.17112  0.29143  1.0000
  Fe  Fe27      1.0  0.34730  0.10634  0.24719  1.0000
  S   S55       1.0  0.35705  0.07532  0.26594  1.0000
  C   C97       1.0  0.11076  0.42667  0.43866  1.0000
  Fe  Fe28      1.0  0.33995  0.09279  0.29271  1.0000
  S   S56       1.0  0.31301  0.08130  0.31726  1.0000
  Fe  Fe29      1.0  0.38823  0.09373  0.27210  1.0000
  S   S57       1.0  0.42448  0.08107  0.26543  1.0000
  S   S58       1.0  0.32918  0.12323  0.27355  1.0000
  S   S59       1.0  0.37920  0.12349  0.25118  1.0000
  C   C98       1.0  0.45113  0.08533  0.27528  1.0000
  C   C99       1.0  0.47049  0.08062  0.26286  1.0000
  H   H102      1.0  0.15777  0.41342  0.46431  1.0000
  C   C100      1.0  0.47517  0.09568  0.30204  1.0000
  C   C101      1.0  0.45364  0.09298  0.29494  1.0000
  N   N8        1.0  0.44582  0.14222  0.26838  1.0000
  H   H103      1.0  0.43783  0.37379  0.26487  1.0000
  H   H104      1.0  0.43903  0.09632  0.30488  1.0000
  C   C102      1.0  0.36636  0.23992  0.25680  1.0000
  C   C103      1.0  0.37431  0.23730  0.27667  1.0000
  C   C104      1.0  0.37574  0.21599  0.28677  1.0000
  C   C105      1.0  0.36913  0.19713  0.27721  1.0000
  C   C106      1.0  0.36143  0.19969  0.25727  1.0000
  C   C107      1.0  0.36012  0.22100  0.24710  1.0000
  H   H105      1.0  0.37918  0.25171  0.28429  1.0000
  H   H106      1.0  0.38177  0.21417  0.30220  1.0000
  H   H107      1.0  0.35622  0.18533  0.24976  1.0000
  H   H108      1.0  0.28402  0.00954  0.36639  1.0000
  H   H109      1.0  0.11694  0.34064  0.26064  1.0000
  H   H110      1.0  0.14940  0.03028  0.46869  1.0000
  C   C108      1.0  0.46760  0.33592  0.26190  1.0000
  C   C109      1.0  0.46163  0.33419  0.28304  1.0000
  C   C110      1.0  0.47872  0.33438  0.29708  1.0000
  H   H111      1.0  0.15567  0.01193  0.28009  1.0000
  H   H112      1.0  0.09144  0.19838  0.27350  1.0000
  H   H113      1.0  0.45481  0.33566  0.25082  1.0000
  H   H114      1.0  0.47441  0.33318  0.31347  1.0000
  H   H115      1.0  0.09806  0.36972  0.42591  1.0000
  C   C111      1.0  0.25574  0.03244  0.32557  1.0000
  C   C112      1.0  0.27657  0.02564  0.31658  1.0000
  C   C113      1.0  0.29360  0.04092  0.31201  1.0000
  C   C114      1.0  0.29014  0.06334  0.31644  1.0000
  C   C115      1.0  0.26894  0.07034  0.32454  1.0000
  C   C116      1.0  0.25180  0.05508  0.32892  1.0000
  S   S60       1.0  0.10130  0.38105  0.23792  1.0000
  H   H116      1.0  0.30989  0.03505  0.30629  1.0000
  H   H117      1.0  0.26607  0.08752  0.32833  1.0000
  H   H118      1.0  0.23589  0.06069  0.33570  1.0000
  C   C117      1.0  0.12338  0.05030  0.30028  1.0000
  C   C118      1.0  0.13493  0.06947  0.30313  1.0000
  C   C119      1.0  0.13184  0.08855  0.28988  1.0000
  C   C120      1.0  0.11733  0.08857  0.27362  1.0000
  C   C121      1.0  0.10569  0.06943  0.27084  1.0000
  C   C122      1.0  0.10872  0.05038  0.28414  1.0000
  H   H119      1.0  0.14623  0.06960  0.31552  1.0000
  H   H120      1.0  0.14087  0.10332  0.29215  1.0000
  H   H121      1.0  0.09973  0.03560  0.28185  1.0000
  H   H122      1.0  0.22149  0.04561  0.39959  1.0000
  H   H123      1.0  0.11707  0.41143  0.26585  1.0000
  C   C123      1.0  0.26440  0.38808  0.32723  1.0000
  C   C124      1.0  0.28217  0.39209  0.31265  1.0000
  C   C125      1.0  0.29885  0.37544  0.30849  1.0000
  C   C126      1.0  0.29816  0.35453  0.31908  1.0000
  C   C127      1.0  0.28061  0.35064  0.33393  1.0000
  C   C128      1.0  0.26375  0.36719  0.33786  1.0000
  H   H124      1.0  0.28297  0.40819  0.30440  1.0000
  H   H125      1.0  0.31222  0.37880  0.29710  1.0000
  H   H126      1.0  0.27992  0.33465  0.34236  1.0000
  H   H127      1.0  0.25034  0.36383  0.34922  1.0000
  C   C129      1.0  0.13774  0.37009  0.29837  1.0000
  C   C130      1.0  0.13227  0.35179  0.28740  1.0000
  C   C131      1.0  0.12136  0.35489  0.26874  1.0000
  C   C132      1.0  0.11567  0.37639  0.26097  1.0000
  C   C133      1.0  0.12149  0.39473  0.27173  1.0000
  C   C134      1.0  0.13255  0.39163  0.29034  1.0000
  H   H128      1.0  0.13619  0.33508  0.29353  1.0000
  C   C135      1.0  0.44689  0.13432  0.24902  1.0000
  H   H129      1.0  0.13659  0.40585  0.29868  1.0000
  C   C136      1.0  0.10915  0.07844  0.44625  1.0000
  C   C137      1.0  0.13018  0.08321  0.45271  1.0000
  C   C138      1.0  0.14944  0.07818  0.44026  1.0000
  C   C139      1.0  0.14781  0.06816  0.42142  1.0000
  C   C140      1.0  0.12678  0.06352  0.41496  1.0000
  C   C141      1.0  0.10756  0.06876  0.42726  1.0000
  N   N9        1.0  0.15379  0.03432  0.25356  1.0000
  H   H130      1.0  0.16564  0.08193  0.44533  1.0000
  H   H131      1.0  0.12525  0.05611  0.40037  1.0000
  H   H132      1.0  0.09135  0.06510  0.42213  1.0000
  C   C142      1.0  0.11348  0.36172  0.45475  1.0000
  C   C143      1.0  0.11356  0.36840  0.43372  1.0000
  C   C144      1.0  0.13364  0.37296  0.42256  1.0000
  C   C145      1.0  0.15381  0.37099  0.43238  1.0000
  C   C146      1.0  0.15372  0.36449  0.45349  1.0000
  C   C147      1.0  0.13359  0.35998  0.46469  1.0000
  H   H133      1.0  0.13348  0.37769  0.40632  1.0000
  H   H134      1.0  0.16927  0.36299  0.46120  1.0000
  H   H135      1.0  0.08251  0.00990  0.43418  1.0000
  N   N10       1.0  0.25111  0.05321  0.38147  1.0000
  C   C148      1.0  0.26577  0.06995  0.37776  1.0000
  C   C149      1.0  0.25759  0.03171  0.37770  1.0000
  C   C150      1.0  0.28764  0.06529  0.37031  1.0000
  C   C151      1.0  0.27931  0.02646  0.37024  1.0000
  C   C152      1.0  0.29437  0.04340  0.36646  1.0000
  C   C153      1.0  0.22787  0.05844  0.38803  1.0000
  H   H136      1.0  0.26043  0.08712  0.37995  1.0000
  H   H137      1.0  0.24568  0.01859  0.37959  1.0000
  H   H138      1.0  0.29899  0.07865  0.36648  1.0000
  H   H139      1.0  0.18211  0.01807  0.26673  1.0000
  H   H140      1.0  0.27990  0.00820  0.31394  1.0000
  C   C154      1.0  0.38754  0.41340  0.27744  1.0000
  H   H141      1.0  0.31093  0.03978  0.35968  1.0000
  H   H142      1.0  0.10771  0.23023  0.25249  1.0000
  H   H143      1.0  0.16755  0.03806  0.28284  1.0000
  H   H144      1.0  0.15540  0.31627  0.43670  1.0000
  Fe  Fe30      1.0  0.36605  0.34947  0.24744  1.0000
  H   H145      1.0  0.32458  0.19635  0.29799  1.0000
  C   C155      1.0  0.14292  0.43578  0.41762  1.0000
  H   H146      1.0  0.38215  0.41392  0.24502  1.0000
  H   H147      1.0  0.22585  0.07468  0.39536  1.0000
  H   H148      1.0  0.02141  0.29727  0.23452  1.0000
  C   C156      1.0  0.12407  0.41905  0.45484  1.0000
  H   H149      1.0  0.37291  0.42397  0.28089  1.0000
  H   H150      1.0  0.21099  0.40673  0.29910  1.0000
  C   C157      1.0  0.11139  0.21322  0.24822  1.0000
  C   C158      1.0  0.09476  0.02511  0.46036  1.0000
  H   H151      1.0  0.18725  0.38937  0.29968  1.0000
  C   C159      1.0  0.49198  0.08389  0.26974  1.0000
  H   H152      1.0  0.12028  0.99981  0.41962  1.0000
  C   C160      1.0  0.10640  0.17374  0.25377  1.0000
  C   C161      1.0  0.15672  0.42827  0.43342  1.0000
  S   S61       1.0  0.08806  0.35440  0.46755  1.0000
  S   S62       1.0  0.08459  0.08245  0.46201  1.0000
  H   H153      1.0  0.20143  0.39670  0.27549  1.0000
  H   H154      1.0  0.09594  0.32214  0.43294  1.0000
  C   C162      1.0  0.48705  0.13516  0.24783  1.0000
  H   H155      1.0  0.22282  0.32191  0.31909  1.0000
  N   N11       1.0  0.12026  0.43476  0.42029  1.0000
  S   S63       1.0  0.11513  0.11241  0.25657  1.0000
  N   N12       1.0  0.32363  0.23091  0.30472  1.0000
  C   C163      1.0  0.31889  0.23752  0.28487  1.0000
  C   C164      1.0  0.32698  0.24639  0.31875  1.0000
  C   C165      1.0  0.31754  0.26014  0.27861  1.0000
  C   C166      1.0  0.32562  0.26917  0.31303  1.0000
  C   C167      1.0  0.32084  0.27601  0.29284  1.0000
  H   H156      1.0  0.09933  0.15966  0.26267  1.0000
  H   H157      1.0  0.31684  0.22531  0.27354  1.0000
  H   H158      1.0  0.33088  0.24117  0.33444  1.0000
  H   H159      1.0  0.31474  0.26532  0.26264  1.0000
  H   H160      1.0  0.32845  0.28155  0.32405  1.0000
  H   H161      1.0  0.32000  0.29359  0.28819  1.0000
  C   C168      1.0  0.13480  0.02515  0.46138  1.0000
  H   H162      1.0  0.41711  0.12853  0.28359  1.0000
  H   H163      1.0  0.31045  0.20308  0.32211  1.0000
  H   H164      1.0  0.42492  0.15421  0.29359  1.0000
  H   H165      1.0  0.12231  0.32391  0.41909  1.0000
  H   H166      1.0  0.09302  0.29820  0.46560  1.0000
  C   C169      1.0  0.49016  0.33826  0.25502  1.0000
  C   C170      1.0  0.14720  0.41990  0.45215  1.0000
  S   S64       1.0  0.36271  0.26651  0.24401  1.0000
  N   N13       1.0  0.13694  0.01447  0.44331  1.0000
  H   H167      1.0  0.17471  0.42834  0.43090  1.0000
  H   H168      1.0  0.10908  0.29742  0.42223  1.0000
  C   C171      1.0  0.41899  0.39051  0.28868  1.0000
  C   C172      1.0  0.42402  0.14509  0.27930  1.0000
  C   C173      1.0  0.10617  0.44329  0.40363  1.0000
  C   C174      1.0  0.15445  0.05657  0.24798  1.0000
  C   C175      1.0  0.29249  0.06452  0.24239  1.0000
  C   C176      1.0  0.11848  0.00840  0.43390  1.0000
  C   C177      1.0  0.39290  0.40770  0.25715  1.0000
  C   C178      1.0  0.15909  0.00899  0.43410  1.0000
  H   H169      1.0  0.29081  0.08294  0.23976  1.0000
  S   S65       1.0  0.39403  0.32347  0.24544  1.0000
  H   H170      1.0  0.42895  0.38297  0.30090  1.0000
  H   H171      1.0  0.16271  0.06775  0.25732  1.0000
  C   C179      1.0  0.11212  0.31295  0.42988  1.0000
  C   C180      1.0  0.32476  0.20718  0.31129  1.0000
  H   H172      1.0  0.26029  0.32213  0.30071  1.0000
  H   H173      1.0  0.21723  0.05909  0.37452  1.0000
  H   H174      1.0  0.39640  0.40848  0.30917  1.0000
  C   C181      1.0  0.40069  0.40470  0.29329  1.0000
  H   H175      1.0  0.09444  0.06927  0.25840  1.0000
  H   H176      1.0  0.47683  0.10118  0.31742  1.0000
  C   C182      1.0  0.15617  0.49150  0.40003  1.0000
  H   H177      1.0  0.46417  0.15175  0.29347  1.0000
  N   N14       1.0  0.21915  0.37282  0.29436  1.0000
  C   C183      1.0  0.23974  0.37316  0.28439  1.0000
  C   C184      1.0  0.21301  0.35465  0.30665  1.0000
  C   C185      1.0  0.25463  0.35474  0.28614  1.0000
  C   C186      1.0  0.22760  0.33606  0.30898  1.0000
  C   C187      1.0  0.24850  0.33611  0.29858  1.0000
  C   C188      1.0  0.20393  0.39235  0.29204  1.0000
  H   H178      1.0  0.24496  0.38796  0.27542  1.0000
  H   H179      1.0  0.19688  0.35453  0.31493  1.0000
  H   H180      1.0  0.27117  0.35526  0.27863  1.0000
  H   H181      1.0  0.13161  0.09067  0.46732  1.0000
  H   H182      1.0  0.34060  0.20285  0.31896  1.0000
  H   H183      1.0  0.09281  0.42574  0.44083  1.0000
  H   H184      1.0  0.08922  0.43657  0.40536  1.0000
  H   H185      1.0  0.10479  0.46178  0.40340  1.0000
  N   N15       1.0  0.12316  0.30760  0.44924  1.0000
  H   H186      1.0  0.31062  0.06058  0.24376  1.0000
  H   H187      1.0  0.17411  0.30652  0.46918  1.0000
  N   N16       1.0  0.41099  0.39389  0.25276  1.0000
  C   C189      1.0  0.16546  0.02515  0.27159  1.0000
  C   C190      1.0  0.48582  0.14291  0.26769  1.0000
  H   H188      1.0  0.11651  0.41198  0.46915  1.0000
  C   C191      1.0  0.10210  0.19541  0.25988  1.0000
  C   C192      1.0  0.11980  0.17022  0.23592  1.0000
  H   H189      1.0  0.28352  0.05946  0.25720  1.0000
  H   H190      1.0  0.17189  0.01992  0.43931  1.0000
  C   C193      1.0  0.09711  0.01382  0.44216  1.0000
  C   C194      1.0  0.42391  0.38525  0.26821  1.0000
  H   H191      1.0  0.11352  0.43847  0.38839  1.0000
  H   H192      1.0  0.41219  0.15481  0.26934  1.0000
  C   C195      1.0  0.46493  0.14635  0.27782  1.0000
  C   C196      1.0  0.11090  0.29968  0.46621  1.0000
  C   C197      1.0  0.46749  0.13080  0.23841  1.0000
  H   H193      1.0  0.15909  0.01171  0.41708  1.0000
  C   C198      1.0  0.14115  0.48932  0.38457  1.0000
  C   C199      1.0  0.11369  0.03058  0.47020  1.0000
  H   H194      1.0  0.49440  0.33985  0.23863  1.0000
  H   H195      1.0  0.43179  0.13001  0.24198  1.0000
  C   C200      1.0  0.14309  0.02033  0.24186  1.0000
  H   H196      1.0  0.13371  0.35483  0.48089  1.0000
  H   H197      1.0  0.14272  0.00268  0.24618  1.0000
  C   C201      1.0  0.49450  0.09135  0.28945  1.0000
  S   S66       1.0  0.17760  0.45074  0.58771  1.0000
  Fe  Fe31      1.0  0.09332  0.35794  0.54518  1.0000
  S   S67       1.0  0.06533  0.36562  0.52368  1.0000
  S   S68       1.0  0.10041  0.38748  0.56491  1.0000
  Fe  Fe32      1.0  0.09538  0.30780  0.53416  1.0000
  S   S69       1.0  0.06814  0.31301  0.51203  1.0000
  S   S70       1.0  0.11073  0.27280  0.54142  1.0000
  Fe  Fe33      1.0  0.08563  0.34443  0.50169  1.0000
  C   C202      1.0  0.05372  0.03014  0.56389  1.0000
  Fe  Fe34      1.0  0.05042  0.33364  0.53599  1.0000
  S   S71       1.0  0.01525  0.32622  0.54870  1.0000
  S   S72       1.0  0.11443  0.33811  0.52224  1.0000
  S   S73       1.0  0.07694  0.32694  0.55901  1.0000
  Fe  Fe35      1.0  0.09788  0.09192  0.53721  1.0000
  S   S74       1.0  0.07210  0.07514  0.52062  1.0000
  S   S75       1.0  0.11862  0.07181  0.56116  1.0000
  Fe  Fe36      1.0  0.08395  0.13931  0.51865  1.0000
  S   S76       1.0  0.05768  0.12460  0.50047  1.0000
  S   S77       1.0  0.08186  0.17778  0.51356  1.0000
  Fe  Fe37      1.0  0.04875  0.10374  0.52900  1.0000
  S   S78       1.0  0.01398  0.10054  0.54435  1.0000
  S   S79       1.0  0.18250  0.49111  0.63465  1.0000
  H   H198      1.0  0.07487  0.09696  0.59177  1.0000
  S   S80       1.0  0.07366  0.11935  0.54779  1.0000
  S   S81       1.0  0.11048  0.11315  0.50935  1.0000
  H   H199      1.0  0.06301  0.21921  0.56304  1.0000
  C   C203      1.0  0.04245  0.27141  0.55379  1.0000
  H   H200      1.0  0.04235  0.08367  0.57580  1.0000
  C   C204      1.0  0.10310  0.24654  0.53293  1.0000
  C   C205      1.0  0.08850  0.24484  0.51705  1.0000
  C   C206      1.0  0.08275  0.22369  0.51106  1.0000
  C   C207      1.0  0.09106  0.20389  0.52107  1.0000
  C   C208      1.0  0.10567  0.20560  0.53694  1.0000
  C   C209      1.0  0.11176  0.22675  0.54268  1.0000
  C   C210      1.0  0.11176  0.40756  0.62258  1.0000
  H   H201      1.0  0.13877  0.46659  0.65174  1.0000
  H   H202      1.0  0.11235  0.19061  0.54473  1.0000
  H   H203      1.0  0.12319  0.22775  0.55487  1.0000
  H   H204      1.0  0.15355  0.00461  0.59502  1.0000
  C   C211      1.0  0.12479  0.02921  0.54600  1.0000
  C   C212      1.0  0.12785  0.04312  0.56207  1.0000
  C   C213      1.0  0.13819  0.03393  0.57976  1.0000
  C   C214      1.0  0.07710  0.08025  0.59978  1.0000
  H   H205      1.0  0.14076  0.04447  0.59229  1.0000
  C   C215      1.0  0.15594  0.43489  0.57858  1.0000
  C   C216      1.0  0.13341  0.44168  0.58050  1.0000
  C   C217      1.0  0.11675  0.42739  0.57523  1.0000
  C   C218      1.0  0.12227  0.40623  0.56773  1.0000
  C   C219      1.0  0.14485  0.39984  0.56500  1.0000
  C   C220      1.0  0.16150  0.41403  0.57048  1.0000
  H   H206      1.0  0.12875  0.45761  0.58668  1.0000
  H   H207      1.0  0.09937  0.43254  0.57749  1.0000
  H   H208      1.0  0.14947  0.38361  0.55944  1.0000
  H   H209      1.0  0.17884  0.40853  0.56889  1.0000
  H   H210      1.0  0.09729  0.39909  0.61815  1.0000
  H   H211      1.0  0.10925  0.46521  0.65113  1.0000
  H   H212      1.0  0.16411  0.48867  0.53728  1.0000
  H   H213      1.0  0.09289  0.43660  0.63207  1.0000
  C   C221      1.0  0.14544  0.01126  0.58140  1.0000
  H   H214      1.0  0.00646  0.09426  0.50097  1.0000
  H   H215      1.0  0.12517  0.47484  0.62830  1.0000
  H   H216      1.0  0.06799  0.08005  0.61507  1.0000
  C   C222      1.0  0.12510  0.46269  0.64181  1.0000
  H   H217      1.0  0.11139  0.28750  0.49812  1.0000
  H   H218      1.0  0.08154  0.25976  0.50940  1.0000
  C   C223      1.0  0.02790  0.26779  0.53833  1.0000
  H   H219      1.0  0.11686  0.03593  0.53230  1.0000
  H   H220      1.0  0.04800  0.01754  0.55436  1.0000
  N   N17       1.0  0.05499  0.25414  0.56237  1.0000
  N   N18       1.0  0.12778  0.43995  0.63486  1.0000
  C   C224      1.0  0.14870  0.43058  0.63158  1.0000
  C   C225      1.0  0.10943  0.42883  0.63028  1.0000
  C   C226      1.0  0.15164  0.40932  0.62398  1.0000
  H   H221      1.0  0.08484  0.24664  0.57816  1.0000
  C   C227      1.0  0.13302  0.39781  0.61939  1.0000
  C   C228      1.0  0.02608  0.24629  0.53181  1.0000
  H   H222      1.0  0.16333  0.43986  0.63408  1.0000
  H   H223      1.0  0.08094  0.00954  0.57580  1.0000
  H   H224      1.0  0.16829  0.40240  0.62059  1.0000
  H   H225      1.0  0.04375  0.28817  0.55879  1.0000
  H   H226      1.0  0.09530  0.07778  0.60192  1.0000
  H   H227      1.0  0.03773  0.21193  0.53570  1.0000
  H   H228      1.0  0.07148  0.22264  0.49874  1.0000
  C   C229      1.0  0.13245  0.00665  0.54745  1.0000
  C   C230      1.0  0.03857  0.22868  0.54095  1.0000
  C   C231      1.0  0.05295  0.23292  0.55639  1.0000
  H   H229      1.0  0.07645  0.27531  0.57667  1.0000
  H   H230      1.0  0.06101  0.25626  0.59404  1.0000
  H   H231      1.0  0.13508  0.38179  0.61250  1.0000
  N   N19       1.0  0.06903  0.06293  0.58740  1.0000
  C   C232      1.0  0.14286  0.99747  0.56513  1.0000
  C   C233      1.0  0.07208  0.02562  0.57594  1.0000
  C   C234      1.0  0.05074  0.06735  0.57598  1.0000
  H   H232      1.0  0.01510  0.24331  0.51961  1.0000
  C   C235      1.0  0.07932  0.04222  0.58792  1.0000
  C   C236      1.0  0.04281  0.05105  0.56404  1.0000
  H   H233      1.0  0.02853  0.05484  0.55470  1.0000
  Fe  Fe38      1.0  0.08331  0.09744  0.49335  1.0000
  H   H234      1.0  0.09375  0.03867  0.59708  1.0000
  H   H235      1.0  0.00558  0.34961  0.50920  1.0000
  C   C237      1.0  0.06995  0.25824  0.57872  1.0000
  H   H236      1.0  0.01820  0.28166  0.53145  1.0000
  Fe  Fe39      1.0  0.17742  0.48520  0.60136  1.0000
  H   H237      1.0  0.15190  0.29194  0.50022  1.0000
  H   H238      1.0  0.13042  0.99626  0.53470  1.0000
  C   C238      1.0  0.14395  0.29623  0.48582  1.0000
  C   C239      1.0  0.12111  0.29379  0.48469  1.0000
  H   H239      1.0  0.11198  0.04014  0.48391  1.0000
  S   S82       1.0  0.28699  0.44920  0.88640  1.0000
  Fe  Fe40      1.0  0.36499  0.34502  0.94073  1.0000
  S   S83       1.0  0.37691  0.34587  0.97306  1.0000
  S   S84       1.0  0.35999  0.38064  0.92587  1.0000
  Fe  Fe41      1.0  0.36794  0.29294  0.94300  1.0000
  C   C240      1.0  0.29317  0.35295  0.97550  1.0000
  S   S85       1.0  0.36880  0.26035  0.92592  1.0000
  H   H240      1.0  0.29741  0.33618  0.97096  1.0000
  H   H241      1.0  0.38414  0.45779  0.86109  1.0000
  Fe  Fe42      1.0  0.40202  0.31873  0.96456  1.0000
  H   H242      1.0  0.32368  0.16677  0.91514  1.0000
  S   S86       1.0  0.33990  0.31860  0.94905  1.0000
  S   S87       1.0  0.39217  0.31945  0.93169  1.0000
  Fe  Fe43      1.0  0.34952  0.07813  0.93192  1.0000
  S   S88       1.0  0.37984  0.06232  0.94643  1.0000
  S   S89       1.0  0.32189  0.05823  0.91860  1.0000
  Fe  Fe44      1.0  0.35832  0.12468  0.94943  1.0000
  S   S90       1.0  0.38856  0.11088  0.96550  1.0000
  S   S91       1.0  0.34558  0.16021  0.95666  1.0000
  Fe  Fe45      1.0  0.39721  0.09386  0.93617  1.0000
  S   S92       1.0  0.43196  0.09628  0.92060  1.0000
  C   C241      1.0  0.48227  0.31084  0.97127  1.0000
  H   H243      1.0  0.30444  0.41718  0.94901  1.0000
  S   S93       1.0  0.36757  0.10889  0.91932  1.0000
  S   S94       1.0  0.33750  0.09549  0.96064  1.0000
  H   H244      1.0  0.48724  0.37568  0.95673  1.0000
  C   C242      1.0  0.35221  0.18787  0.94761  1.0000
  C   C243      1.0  0.34487  0.20579  0.95960  1.0000
  C   C244      1.0  0.34982  0.22798  0.95329  1.0000
  C   C245      1.0  0.36173  0.23268  0.93458  1.0000
  C   C246      1.0  0.36861  0.21480  0.92234  1.0000
  C   C247      1.0  0.36416  0.19253  0.92889  1.0000
  H   H245      1.0  0.47521  0.05003  0.91865  1.0000
  H   H246      1.0  0.34423  0.24147  0.96284  1.0000
  H   H247      1.0  0.37764  0.21820  0.90773  1.0000
  H   H248      1.0  0.36979  0.17904  0.91938  1.0000
  C   C248      1.0  0.30488  0.43461  0.83815  1.0000
  C   C249      1.0  0.46263  0.32761  0.94241  1.0000
  C   C250      1.0  0.46207  0.31757  0.96235  1.0000
  H   H249      1.0  0.31760  0.36817  0.95449  1.0000
  H   H250      1.0  0.44722  0.33286  0.93538  1.0000
  H   H251      1.0  0.29273  0.44904  0.83822  1.0000
  C   C251      1.0  0.47656  0.10166  0.92556  1.0000
  C   C252      1.0  0.45628  0.09463  0.93503  1.0000
  C   C253      1.0  0.45610  0.08527  0.95524  1.0000
  C   C254      1.0  0.47610  0.08242  0.96564  1.0000
  H   H252      1.0  0.47685  0.10896  0.90995  1.0000
  H   H253      1.0  0.44063  0.07975  0.96270  1.0000
  H   H254      1.0  0.41500  0.18453  0.94435  1.0000
  H   H255      1.0  0.48349  0.33949  0.91641  1.0000
  C   C255      1.0  0.33742  0.02399  0.89312  1.0000
  C   C256      1.0  0.31946  0.03374  0.90441  1.0000
  C   C257      1.0  0.29838  0.02443  0.90371  1.0000
  C   C258      1.0  0.49331  0.04917  0.91841  1.0000
  H   H256      1.0  0.42138  0.21504  0.91961  1.0000
  H   H257      1.0  0.35372  0.03090  0.89329  1.0000
  H   H258      1.0  0.28425  0.03181  0.91219  1.0000
  C   C259      1.0  0.30706  0.43071  0.89848  1.0000
  C   C260      1.0  0.30237  0.40800  0.90191  1.0000
  C   C261      1.0  0.31813  0.39247  0.91047  1.0000
  C   C262      1.0  0.33895  0.39941  0.91564  1.0000
  C   C263      1.0  0.34352  0.42217  0.91247  1.0000
  C   C264      1.0  0.32770  0.43773  0.90406  1.0000
  H   H259      1.0  0.28647  0.40232  0.89770  1.0000
  H   H260      1.0  0.31429  0.37507  0.91269  1.0000
  H   H261      1.0  0.35951  0.42781  0.91645  1.0000
  H   H262      1.0  0.33164  0.45507  0.90154  1.0000
  C   C265      1.0  0.31542  0.10136  0.88329  1.0000
  H   H263      1.0  0.29756  0.42173  0.84914  1.0000
  N   N20       1.0  0.41200  0.21878  0.95143  1.0000
  C   C266      1.0  0.30160  0.14443  0.93224  1.0000
  H   H264      1.0  0.36077  0.48449  0.83995  1.0000
  H   H265      1.0  0.29883  0.15517  0.94508  1.0000
  H   H266      1.0  0.28145  0.11831  0.94614  1.0000
  H   H267      1.0  0.39545  0.17110  0.97677  1.0000
  H   H268      1.0  0.33546  0.20247  0.97401  1.0000
  H   H269      1.0  0.27881  0.99928  0.89137  1.0000
  C   C267      1.0  0.29191  0.12375  0.93286  1.0000
  H   H270      1.0  0.32999  0.40548  0.95935  1.0000
  C   C268      1.0  0.42319  0.22675  0.93198  1.0000
  C   C269      1.0  0.31559  0.15095  0.91538  1.0000
  C   C270      1.0  0.40934  0.19646  0.95556  1.0000
  N   N21       1.0  0.31004  0.11642  0.89995  1.0000
  Fe  Fe46      1.0  0.36845  0.08086  0.97444  1.0000
  C   C271      1.0  0.36045  0.43180  0.86185  1.0000
  C   C272      1.0  0.29633  0.10986  0.91648  1.0000
  H   H271      1.0  0.30658  0.42822  0.82245  1.0000
  H   H272      1.0  0.28905  0.09362  0.91728  1.0000
  H   H273      1.0  0.40692  0.25145  0.96228  1.0000
  C   C273      1.0  0.36811  0.45297  0.85627  1.0000
  C   C274      1.0  0.31978  0.13660  0.89933  1.0000
  C   C275      1.0  0.33955  0.42604  0.85579  1.0000
  H   H274      1.0  0.31505  0.11050  0.86797  1.0000
  H   H275      1.0  0.32433  0.47334  0.82925  1.0000
  C   C276      1.0  0.39843  0.18872  0.97397  1.0000
  C   C277      1.0  0.33419  0.00563  0.88104  1.0000
  H   H276      1.0  0.33226  0.09339  0.88525  1.0000
  C   C278      1.0  0.29523  0.00581  0.89194  1.0000
  H   H277      1.0  0.41553  0.24302  0.92639  1.0000
  H   H278      1.0  0.30341  0.08777  0.88346  1.0000
  C   C279      1.0  0.35501  0.46796  0.84448  1.0000
  S   S95       1.0  0.43675  0.31465  0.97726  1.0000
  H   H279      1.0  0.33119  0.14153  0.88657  1.0000
  H   H280      1.0  0.33351  0.40973  0.86061  1.0000
  Fe  Fe47      1.0  0.35314  0.31871  0.98084  1.0000
  N   N22       1.0  0.30004  0.39207  0.97292  1.0000
  C   C280      1.0  0.48323  0.33140  0.93173  1.0000
  N   N23       1.0  0.32661  0.44102  0.84459  1.0000
  H   H281      1.0  0.37036  0.42003  0.87121  1.0000
  C   C281      1.0  0.33427  0.46160  0.83858  1.0000
  C   C282      1.0  0.40481  0.23377  0.96561  1.0000
  S   S96       1.0  0.37905  0.29145  0.97538  1.0000
  C   C283      1.0  0.31309  0.99638  0.88027  1.0000
  H   H282      1.0  0.47584  0.07473  0.98110  1.0000
  C   C284      1.0  0.31240  0.41078  0.96335  1.0000
  Fe  Fe48      1.0  0.28690  0.48647  0.87584  1.0000
  H   H283      1.0  0.44113  0.22882  0.93423  1.0000
  C   C285      1.0  0.30463  0.37107  0.96642  1.0000
  H   H284      1.0  0.34817  0.99869  0.87205  1.0000
  H   H285      1.0  0.31293  0.42451  0.97400  1.0000
  H   H286      1.0  0.49469  0.03589  0.94985  1.0000
  S   S97       1.0  0.28868  0.96793  0.08073  1.0000
  H   H287      1.0  0.37711  0.84788  0.11607  1.0000
  S   S98       1.0  0.33849  0.61088  0.00853  1.0000
  C   C286      1.0  0.31020  0.75326  0.00325  1.0000
  Fe  Fe49      1.0  0.40005  0.60780  0.02462  1.0000
  S   S99       1.0  0.37071  0.61183  0.04730  1.0000
  S   S100      1.0  0.43375  0.60717  0.03905  1.0000
  Fe  Fe50      1.0  0.35424  0.58540  0.03078  1.0000
  S   S101      1.0  0.33903  0.55132  0.03884  1.0000
  Fe  Fe51      1.0  0.35773  0.63708  0.02318  1.0000
  S   S102      1.0  0.34318  0.67100  0.03339  1.0000
  S   S103      1.0  0.38484  0.57970  0.01003  1.0000
  H   H288      1.0  0.38801  0.55930  0.09205  1.0000
  Fe  Fe52      1.0  0.39796  0.85000  0.02583  1.0000
  S   S104      1.0  0.38033  0.82965  0.05120  1.0000
  S   S105      1.0  0.43114  0.86669  0.02644  1.0000
  H   H289      1.0  0.32505  0.50634  0.03884  1.0000
  S   S106      1.0  0.33797  0.82839  0.02101  1.0000
  C   C287      1.0  0.37429  0.91041  0.07170  1.0000
  Fe  Fe53      1.0  0.35013  0.85212  0.04374  1.0000
  S   S107      1.0  0.33092  0.86876  0.07071  1.0000
  Fe  Fe54      1.0  0.36971  0.80775  0.02640  1.0000
  S   S108      1.0  0.37791  0.77065  0.02072  1.0000
  S   S109      1.0  0.36859  0.87334  0.01964  1.0000
  S   S110      1.0  0.38961  0.82727  0.00176  1.0000
  C   C288      1.0  0.35296  0.69863  0.02936  1.0000
  C   C289      1.0  0.37144  0.70373  0.01617  1.0000
  C   C290      1.0  0.37872  0.72581  0.01378  1.0000
  C   C291      1.0  0.36765  0.74318  0.02441  1.0000
  C   C292      1.0  0.34918  0.73808  0.03756  1.0000
  C   C293      1.0  0.34191  0.71599  0.03999  1.0000
  H   H290      1.0  0.38014  0.69065  0.00787  1.0000
  H   H291      1.0  0.36585  0.90617  0.05771  1.0000
  H   H292      1.0  0.34050  0.75113  0.04594  1.0000
  H   H293      1.0  0.32764  0.71230  0.05027  1.0000
  C   C294      1.0  0.47899  0.81925  0.04083  1.0000
  C   C295      1.0  0.45810  0.82988  0.03733  1.0000
  C   C296      1.0  0.45667  0.85277  0.03233  1.0000
  C   C297      1.0  0.47613  0.86499  0.03134  1.0000
  N   N24       1.0  0.38569  0.89038  0.08057  1.0000
  H   H294      1.0  0.30584  0.55651  0.00740  1.0000
  H   H295      1.0  0.44321  0.82032  0.03821  1.0000
  H   H296      1.0  0.47510  0.88276  0.02768  1.0000
  C   C298      1.0  0.40606  0.88365  0.07227  1.0000
  H   H297      1.0  0.37278  0.51863  0.05579  1.0000
  C   C299      1.0  0.46151  0.60825  0.00347  1.0000
  C   C300      1.0  0.45984  0.60798  0.02502  1.0000
  C   C301      1.0  0.47938  0.60866  0.03590  1.0000
  H   H298      1.0  0.35892  0.88273  0.10235  1.0000
  H   H299      1.0  0.44662  0.60776  0.99489  1.0000
  C   C302      1.0  0.29177  0.53881  0.98355  1.0000
  H   H300      1.0  0.47828  0.60847  0.05257  1.0000
  S   S111      1.0  0.38777  0.63384  0.00133  1.0000
  C   C303      1.0  0.31969  0.89661  0.07316  1.0000
  C   C304      1.0  0.31336  0.90389  0.09294  1.0000
  C   C305      1.0  0.30451  0.92575  0.09568  1.0000
  C   C306      1.0  0.30136  0.94060  0.07860  1.0000
  C   C307      1.0  0.30779  0.93334  0.05882  1.0000
  C   C308      1.0  0.31709  0.91165  0.05611  1.0000
  H   H301      1.0  0.31506  0.89247  0.10628  1.0000
  H   H302      1.0  0.29949  0.93088  0.11098  1.0000
  H   H303      1.0  0.30529  0.94449  0.04543  1.0000
  H   H304      1.0  0.32172  0.90639  0.04079  1.0000
  C   C309      1.0  0.32645  0.53361  0.05881  1.0000
  C   C310      1.0  0.32179  0.54031  0.07890  1.0000
  C   C311      1.0  0.31261  0.52526  0.09425  1.0000
  Fe  Fe55      1.0  0.35861  0.84862  0.99757  1.0000
  C   C312      1.0  0.32162  0.51177  0.05431  1.0000
  H   H305      1.0  0.32507  0.55708  0.08265  1.0000
  H   H306      1.0  0.44111  0.55932  0.03623  1.0000
  H   H307      1.0  0.40686  0.64582  0.04721  1.0000
  C   C313      1.0  0.41685  0.86405  0.07982  1.0000
  C   C314      1.0  0.38560  0.85799  0.10400  1.0000
  H   H308      1.0  0.30904  0.53063  0.10972  1.0000
  H   H309      1.0  0.29673  0.75333  0.01503  1.0000
  H   H310      1.0  0.43292  0.85871  0.07300  1.0000
  H   H311      1.0  0.43358  0.65276  0.01652  1.0000
  C   C315      1.0  0.41237  0.55614  0.05744  1.0000
  C   C316      1.0  0.48261  0.60901  0.99295  1.0000
  H   H312      1.0  0.37771  0.70473  0.07321  1.0000
  C   C317      1.0  0.30921  0.54746  0.99352  1.0000
  H   H313      1.0  0.48004  0.80148  0.04445  1.0000
  H   H314      1.0  0.41451  0.83568  0.10148  1.0000
  H   H315      1.0  0.36145  0.91734  0.08279  1.0000
  C   C318      1.0  0.40650  0.85113  0.09576  1.0000
  H   H316      1.0  0.38626  0.92366  0.06743  1.0000
  N   N25       1.0  0.42369  0.67580  0.03925  1.0000
  C   C319      1.0  0.42427  0.69819  0.04177  1.0000
  C   C320      1.0  0.40728  0.66354  0.04913  1.0000
  C   C321      1.0  0.40789  0.70891  0.05418  1.0000
  C   C322      1.0  0.39063  0.67371  0.06161  1.0000
  C   C323      1.0  0.39096  0.69654  0.06411  1.0000
  H   H317      1.0  0.39667  0.50741  0.02578  1.0000
  H   H318      1.0  0.43725  0.70796  0.03396  1.0000
  C   C324      1.0  0.40145  0.52092  0.03475  1.0000
  H   H319      1.0  0.40791  0.72680  0.05559  1.0000
  C   C325      1.0  0.30779  0.50339  0.08977  1.0000
  H   H320      1.0  0.41398  0.89330  0.05950  1.0000
  H   H321      1.0  0.37714  0.66406  0.06873  1.0000
  H   H322      1.0  0.27472  0.54120  0.98956  1.0000
  H   H323      1.0  0.45288  0.65494  0.03652  1.0000
  C   C326      1.0  0.37540  0.87780  0.09619  1.0000
  H   H324      1.0  0.39305  0.72947  0.00357  1.0000
  C   C327      1.0  0.42633  0.55003  0.04062  1.0000
  H   H325      1.0  0.43121  0.52782  0.01584  1.0000
  Fe  Fe56      1.0  0.36962  0.60584  0.98854  1.0000
  C   C328      1.0  0.33102  0.54471  0.98539  1.0000
  C   C329      1.0  0.31235  0.49676  0.06963  1.0000
  H   H326      1.0  0.46996  0.80404  0.99145  1.0000
  H   H327      1.0  0.36948  0.53774  0.08754  1.0000
  C   C330      1.0  0.38800  0.52732  0.05179  1.0000
  H   H328      1.0  0.36623  0.56456  0.07399  1.0000
  H   H329      1.0  0.41654  0.57032  0.06587  1.0000
  C   C331      1.0  0.42075  0.53236  0.02918  1.0000
  C   C332      1.0  0.47473  0.82106  0.98786  1.0000
  C   C333      1.0  0.44106  0.66457  0.02648  1.0000
  N   N26       1.0  0.39360  0.54468  0.06293  1.0000
  H   H330      1.0  0.34459  0.55189  0.99278  1.0000
  C   C334      1.0  0.45854  0.83765  0.98331  1.0000
  H   H331      1.0  0.45058  0.67648  0.01612  1.0000
  C   C335      1.0  0.37865  0.55195  0.08000  1.0000
  H   H332      1.0  0.31329  0.78873  0.00202  1.0000
  H   H333      1.0  0.44109  0.83366  0.98342  1.0000
  H   H334      1.0  0.31184  0.71749  0.00174  1.0000
  H   H335      1.0  0.34705  0.98940  0.01953  1.0000
  C   C336      1.0  0.31862  0.73317  0.99576  1.0000
  H   H336      1.0  0.31588  0.98947  0.04611  1.0000
  C   C337      1.0  0.31966  0.77322  0.99584  1.0000
  Fe  Fe57      1.0  0.28107  0.99358  0.10564  1.0000
  S   S112      1.0  0.14966  0.96249  0.40146  1.0000
  Fe  Fe58      1.0  0.05494  0.58868  0.44281  1.0000
  S   S113      1.0  0.08396  0.59902  0.42139  1.0000
  S   S114      1.0  0.02228  0.58334  0.42787  1.0000
  Fe  Fe59      1.0  0.08361  0.58651  0.48011  1.0000
  S   S115      1.0  0.11400  0.59702  0.46131  1.0000
  H   H337      1.0  0.16381  0.99124  0.43785  1.0000
  Fe  Fe60      1.0  0.09083  0.62271  0.44600  1.0000
  S   S116      1.0  0.09964  0.65914  0.43690  1.0000
  Fe  Fe61      1.0  0.10425  0.57228  0.43874  1.0000
  S   S117      1.0  0.13190  0.54611  0.43020  1.0000
  S   S118      1.0  0.06081  0.61352  0.46630  1.0000
  S   S119      1.0  0.07477  0.56076  0.45861  1.0000
  Fe  Fe62      1.0  0.08531  0.79642  0.45685  1.0000
  S   S120      1.0  0.17391  0.99080  0.34250  1.0000
  S   S121      1.0  0.08661  0.75908  0.46780  1.0000
  Fe  Fe63      1.0  0.09992  0.84169  0.43505  1.0000
  S   S122      1.0  0.07243  0.86127  0.45107  1.0000
  S   S123      1.0  0.12225  0.86002  0.41035  1.0000
  C   C338      1.0  0.06676  0.85589  0.38599  1.0000
  H   H338      1.0  0.07280  0.94097  0.40288  1.0000
  Fe  Fe64      1.0  0.05048  0.83346  0.44451  1.0000
  S   S124      1.0  0.01761  0.84075  0.42911  1.0000
  S   S125      1.0  0.11047  0.82178  0.46386  1.0000
  S   S126      1.0  0.07743  0.81461  0.42658  1.0000
  H   H339      1.0  0.09735  0.88380  0.37107  1.0000
  H   H340      1.0  0.00566  0.60065  0.46721  1.0000
  H   H341      1.0  0.00781  0.60399  0.38922  1.0000
  C   C339      1.0  0.01756  0.65145  0.43612  1.0000
  H   H342      1.0  0.10494  0.74095  0.42865  1.0000
  C   C340      1.0  0.12263  0.50444  0.38355  1.0000
  S   S127      1.0  0.05695  0.81421  0.47422  1.0000
  C   C341      1.0  0.09462  0.68690  0.44540  1.0000
  C   C342      1.0  0.08407  0.69134  0.46456  1.0000
  C   C343      1.0  0.08163  0.71345  0.47093  1.0000
  C   C344      1.0  0.08905  0.73166  0.45812  1.0000
  C   C345      1.0  0.09898  0.72730  0.43871  1.0000
  C   C346      1.0  0.10191  0.70512  0.43254  1.0000
  H   H343      1.0  0.07796  0.67783  0.47462  1.0000
  H   H344      1.0  0.06224  0.85480  0.36976  1.0000
  C   C347      1.0  0.00061  0.62115  0.39093  1.0000
  H   H345      1.0  0.03960  0.87914  0.41168  1.0000
  C   C348      1.0  0.14221  0.93391  0.40338  1.0000
  C   C349      1.0  0.12986  0.92589  0.42113  1.0000
  C   C350      1.0  0.12368  0.90343  0.42358  1.0000
  C   C351      1.0  0.13003  0.88849  0.40840  1.0000
  C   C352      1.0  0.14239  0.89650  0.39067  1.0000
  C   C353      1.0  0.14832  0.91904  0.38810  1.0000
  H   H346      1.0  0.12504  0.93715  0.43310  1.0000
  H   H347      1.0  0.11410  0.89766  0.43724  1.0000
  H   H348      1.0  0.14745  0.88518  0.37880  1.0000
  H   H349      1.0  0.15790  0.92480  0.37441  1.0000
  H   H350      1.0  0.06651  0.65039  0.40753  1.0000
  C   C354      1.0  0.11922  0.52155  0.39757  1.0000
  C   C355      1.0  0.13450  0.52405  0.41273  1.0000
  C   C356      1.0  0.15292  0.50879  0.41387  1.0000
  H   H351      1.0  0.01032  0.65679  0.45074  1.0000
  H   H352      1.0  0.10502  0.53311  0.39633  1.0000
  H   H353      1.0  0.16499  0.51058  0.42537  1.0000
  C   C357      1.0  0.05289  0.88881  0.40423  1.0000
  H   H354      1.0  0.05403  0.84721  0.39618  1.0000
  C   C358      1.0  0.08489  0.89153  0.38135  1.0000
  H   H355      1.0  0.04999  0.66402  0.44045  1.0000
  C   C359      1.0  0.07131  0.92372  0.39935  1.0000
  C   C360      1.0  0.03981  0.65539  0.43041  1.0000
  H   H356      1.0  0.11008  0.70207  0.41767  1.0000
  Fe  Fe65      1.0  0.16418  0.98784  0.37668  1.0000
  C   C361      1.0  0.08664  0.91394  0.38542  1.0000
  H   H357      1.0  0.04340  0.62995  0.38510  1.0000
  H   H358      1.0  0.08307  0.84688  0.38823  1.0000
  H   H359      1.0  0.10020  0.92347  0.37825  1.0000
  H   H360      1.0  0.04223  0.91850  0.41969  1.0000
  H   H361      1.0  0.11542  0.53437  0.47161  1.0000
  N   N27       1.0  0.06823  0.87926  0.39079  1.0000
  C   C362      1.0  0.04909  0.64777  0.41188  1.0000
  C   C363      1.0  0.05426  0.91112  0.40881  1.0000
  N   N28       1.0  0.01400  0.63294  0.40472  1.0000
  C   C364      1.0  0.03592  0.63634  0.39923  1.0000
  H   H362      1.0  0.15664  0.53228  0.46902  1.0000
  Fe  Fe66      1.0  0.08158  0.84020  0.47929  1.0000
  H   H363      1.0  0.00418  0.83044  0.47237  1.0000
  H   H364      1.0  0.00036  0.63010  0.37553  1.0000
  H   H365      1.0  0.11090  0.50306  0.37167  1.0000
  C   C365      1.0  0.00478  0.64022  0.42296  1.0000
  C   C366      1.0  0.99511  0.58791  0.43921  1.0000
  H   H366      1.0  0.12624  0.89440  0.48194  1.0000
  H   H367      1.0  0.13236  0.64916  0.47208  1.0000
  C   C367      1.0  0.40551  0.77388  0.71037  1.0000
  S   S128      1.0  0.35830  0.58135  0.70485  1.0000
  C   C368      1.0  0.38880  0.55845  0.65311  1.0000
  Fe  Fe67      1.0  0.35704  0.64567  0.69142  1.0000
  S   S129      1.0  0.36696  0.61983  0.66863  1.0000
  S   S130      1.0  0.35810  0.68143  0.67774  1.0000
  Fe  Fe68      1.0  0.33739  0.60053  0.68141  1.0000
  S   S131      1.0  0.31402  0.58805  0.65766  1.0000
  Fe  Fe69      1.0  0.38713  0.60297  0.69371  1.0000
  S   S132      1.0  0.42180  0.58743  0.68496  1.0000
  S   S133      1.0  0.32633  0.62761  0.70256  1.0000
  S   S134      1.0  0.37885  0.62988  0.71578  1.0000
  Fe  Fe70      1.0  0.38874  0.83321  0.68798  1.0000
  S   S135      1.0  0.37570  0.82723  0.72083  1.0000
  S   S136      1.0  0.42545  0.82399  0.67845  1.0000
  Fe  Fe71      1.0  0.33981  0.84140  0.67290  1.0000
  S   S137      1.0  0.32459  0.83452  0.70476  1.0000
  S   S138      1.0  0.31844  0.85115  0.64512  1.0000
  Fe  Fe72      1.0  0.35134  0.85593  0.71463  1.0000
  H   H368      1.0  0.40114  0.55291  0.66409  1.0000
  Fe  Fe73      1.0  0.35038  0.80626  0.70751  1.0000
  C   C369      1.0  0.16087  0.50698  0.53728  1.0000
  S   S139      1.0  0.36614  0.86378  0.68254  1.0000
  S   S140      1.0  0.36381  0.81137  0.67488  1.0000
  Fe  Fe74      1.0  0.17397  0.53464  0.59023  1.0000
  S   S141      1.0  0.20340  0.51019  0.59115  1.0000
  S   S142      1.0  0.17251  0.55746  0.56129  1.0000
  Fe  Fe75      1.0  0.15504  0.51725  0.63181  1.0000
  H   H369      1.0  0.17700  0.51538  0.53739  1.0000
  S   S143      1.0  0.13022  0.51602  0.65921  1.0000
  Fe  Fe76      1.0  0.20555  0.51887  0.62447  1.0000
  S   S144      1.0  0.23333  0.52312  0.64716  1.0000
  H   H370      1.0  0.17831  0.90910  0.53008  1.0000
  S   S145      1.0  0.17787  0.54508  0.62262  1.0000
  S   S146      1.0  0.14820  0.50940  0.59926  1.0000
  Fe  Fe77      1.0  0.14767  0.90898  0.62521  1.0000
  S   S147      1.0  0.17052  0.93766  0.62401  1.0000
  S   S148      1.0  0.12159  0.90730  0.65161  1.0000
  Fe  Fe78      1.0  0.16833  0.89182  0.58519  1.0000
  S   S149      1.0  0.19361  0.91852  0.58217  1.0000
  S   S150      1.0  0.16831  0.86799  0.55929  1.0000
  Fe  Fe79      1.0  0.19761  0.91152  0.61641  1.0000
  S   S151      1.0  0.22729  0.90898  0.63776  1.0000
  Fe  Fe80      1.0  0.16426  0.94203  0.58993  1.0000
  C   C370      1.0  0.10673  0.63938  0.49477  1.0000
  S   S152      1.0  0.17451  0.88297  0.61869  1.0000
  S   S153      1.0  0.13931  0.91511  0.59208  1.0000
  H   H371      1.0  0.16292  0.93381  0.70004  1.0000
  H   H372      1.0  0.09871  0.80599  0.57511  1.0000
  H   H373      1.0  0.15433  0.93094  0.67405  1.0000
  H   H374      1.0  0.09134  0.55810  0.55475  1.0000
  C   C371      1.0  0.10600  0.85979  0.52305  1.0000
  C   C372      1.0  0.12681  0.85142  0.51578  1.0000
  C   C373      1.0  0.14583  0.85413  0.52699  1.0000
  C   C374      1.0  0.14421  0.86544  0.54536  1.0000
  C   C375      1.0  0.12344  0.87406  0.55242  1.0000
  C   C376      1.0  0.10442  0.87118  0.54134  1.0000
  C   C377      1.0  0.18402  0.52316  0.68281  1.0000
  H   H375      1.0  0.16188  0.84743  0.52143  1.0000
  H   H376      1.0  0.12189  0.88252  0.56666  1.0000
  H   H377      1.0  0.08836  0.87766  0.54708  1.0000
  C   C378      1.0  0.14767  0.56169  0.54814  1.0000
  C   C379      1.0  0.14871  0.57071  0.52774  1.0000
  C   C380      1.0  0.12917  0.57494  0.51698  1.0000
  C   C381      1.0  0.10840  0.57062  0.52673  1.0000
  C   C382      1.0  0.10738  0.56141  0.54708  1.0000
  C   C383      1.0  0.12696  0.55677  0.55772  1.0000
  H   H378      1.0  0.16471  0.57447  0.52023  1.0000
  H   H379      1.0  0.13020  0.58201  0.50133  1.0000
  H   H380      1.0  0.12597  0.54998  0.57351  1.0000
  C   C384      1.0  0.45212  0.83233  0.68569  1.0000
  C   C385      1.0  0.45455  0.85027  0.69807  1.0000
  C   C386      1.0  0.47602  0.85666  0.70275  1.0000
  C   C387      1.0  0.10884  0.73072  0.72927  1.0000
  C   C388      1.0  0.47157  0.82075  0.67836  1.0000
  H   H381      1.0  0.43988  0.85941  0.70384  1.0000
  C   C389      1.0  0.11386  0.61881  0.54959  1.0000
  H   H382      1.0  0.47000  0.80694  0.66867  1.0000
  C   C390      1.0  0.29094  0.86368  0.64413  1.0000
  C   C391      1.0  0.28133  0.86736  0.62484  1.0000
  C   C392      1.0  0.26105  0.87988  0.62280  1.0000
  C   C393      1.0  0.25008  0.88906  0.64004  1.0000
  C   C394      1.0  0.25915  0.88453  0.65947  1.0000
  C   C395      1.0  0.27933  0.87182  0.66155  1.0000
  H   H383      1.0  0.29002  0.86107  0.61124  1.0000
  H   H384      1.0  0.25445  0.88323  0.60771  1.0000
  H   H385      1.0  0.25090  0.89148  0.67296  1.0000
  H   H386      1.0  0.28633  0.86904  0.67652  1.0000
  C   C396      1.0  0.35198  0.70618  0.69086  1.0000
  C   C397      1.0  0.35118  0.72665  0.67929  1.0000
  C   C398      1.0  0.34892  0.74694  0.68910  1.0000
  C   C399      1.0  0.34717  0.74697  0.71063  1.0000
  S   S154      1.0  0.34545  0.77213  0.72366  1.0000
  C   C400      1.0  0.34989  0.70617  0.71240  1.0000
  H   H387      1.0  0.35273  0.72682  0.66262  1.0000
  H   H388      1.0  0.34854  0.76254  0.67998  1.0000
  C   C401      1.0  0.19276  0.87532  0.67457  1.0000
  H   H389      1.0  0.16117  0.90065  0.49892  1.0000
  C   C402      1.0  0.45129  0.59054  0.68546  1.0000
  C   C403      1.0  0.46164  0.60560  0.69741  1.0000
  H   H390      1.0  0.17258  0.93906  0.52724  1.0000
  C   C404      1.0  0.46492  0.57633  0.67347  1.0000
  C   C405      1.0  0.18255  0.58822  0.70483  1.0000
  H   H391      1.0  0.45737  0.56468  0.66414  1.0000
  C   C406      1.0  0.29030  0.57121  0.65601  1.0000
  C   C407      1.0  0.28372  0.55548  0.67164  1.0000
  C   C408      1.0  0.26619  0.54116  0.66869  1.0000
  C   C409      1.0  0.25471  0.54244  0.65023  1.0000
  C   C410      1.0  0.26100  0.55847  0.63480  1.0000
  C   C411      1.0  0.27873  0.57257  0.63762  1.0000
  H   H392      1.0  0.29249  0.55396  0.68578  1.0000
  H   H393      1.0  0.26162  0.52881  0.68075  1.0000
  H   H394      1.0  0.25250  0.55974  0.62049  1.0000
  H   H395      1.0  0.28361  0.58457  0.62535  1.0000
  C   C412      1.0  0.11965  0.84832  0.69952  1.0000
  C   C413      1.0  0.13224  0.84643  0.68083  1.0000
  C   C414      1.0  0.13279  0.86428  0.66588  1.0000
  C   C415      1.0  0.12036  0.88398  0.66935  1.0000
  C   C416      1.0  0.10722  0.88559  0.68776  1.0000
  C   C417      1.0  0.10701  0.86791  0.70289  1.0000
  C   C418      1.0  0.48824  0.57686  0.67330  1.0000
  H   H396      1.0  0.14282  0.86278  0.65170  1.0000
  H   H397      1.0  0.09738  0.90071  0.69047  1.0000
  H   H398      1.0  0.09709  0.86947  0.71715  1.0000
  C   C419      1.0  0.12261  0.57697  0.69871  1.0000
  C   C420      1.0  0.11454  0.55649  0.70636  1.0000
  C   C421      1.0  0.11670  0.53790  0.69406  1.0000
  C   C422      1.0  0.12715  0.53965  0.67420  1.0000
  C   C423      1.0  0.13525  0.56011  0.66666  1.0000
  C   C424      1.0  0.13289  0.57868  0.67882  1.0000
  H   H399      1.0  0.40157  0.73093  0.72172  1.0000
  H   H400      1.0  0.11030  0.52213  0.69997  1.0000
  H   H401      1.0  0.14300  0.56179  0.65132  1.0000
  H   H402      1.0  0.40145  0.69929  0.69902  1.0000
  H   H403      1.0  0.08845  0.83036  0.56034  1.0000
  C   C425      1.0  0.48537  0.60598  0.69740  1.0000
  H   H404      1.0  0.27115  0.93757  0.67959  1.0000
  H   H405      1.0  0.19601  0.84289  0.69022  1.0000
  H   H406      1.0  0.09527  0.52417  0.50494  1.0000
  H   H407      1.0  0.32167  0.54917  0.62640  1.0000
  H   H408      1.0  0.12502  0.93767  0.54446  1.0000
  H   H409      1.0  0.32382  0.92599  0.61700  1.0000
  H   H410      1.0  0.09244  0.78371  0.72550  1.0000
  H   H411      1.0  0.10660  0.55501  0.72169  1.0000
  S   S155      1.0  0.08146  0.85597  0.51018  1.0000
  C   C426      1.0  0.12532  0.92827  0.53066  1.0000
  N   N29       1.0  0.16588  0.90090  0.68992  1.0000
  N   N30       1.0  0.40509  0.75535  0.69677  1.0000
  C   C427      1.0  0.40706  0.75937  0.67582  1.0000
  H   H412      1.0  0.16255  0.92297  0.54973  1.0000
  H   H413      1.0  0.12724  0.60717  0.55546  1.0000
  S   S156      1.0  0.12117  0.82640  0.71869  1.0000
  C   C428      1.0  0.36978  0.54627  0.65121  1.0000
  H   H414      1.0  0.14854  0.88902  0.71761  1.0000
  H   H415      1.0  0.35054  0.69055  0.72149  1.0000
  H   H416      1.0  0.18071  0.52431  0.66615  1.0000
  S   S157      1.0  0.08339  0.57779  0.51450  1.0000
  H   H417      1.0  0.13675  0.92153  0.69529  1.0000
  C   C429      1.0  0.35649  0.57301  0.62601  1.0000
  H   H418      1.0  0.16303  0.64050  0.49600  1.0000
  H   H419      1.0  0.12823  0.84263  0.50169  1.0000
  H   H420      1.0  0.08196  0.78498  0.50445  1.0000
  N   N31       1.0  0.30889  0.91465  0.64577  1.0000
  C   C430      1.0  0.29045  0.92657  0.65285  1.0000
  C   C431      1.0  0.32375  0.90525  0.65928  1.0000
  H   H421      1.0  0.12592  0.73246  0.72339  1.0000
  C   C432      1.0  0.31999  0.90711  0.68055  1.0000
  N   N32       1.0  0.18365  0.54551  0.69063  1.0000
  C   C433      1.0  0.31314  0.91248  0.62354  1.0000
  H   H422      1.0  0.27844  0.93372  0.64218  1.0000
  H   H423      1.0  0.33823  0.89558  0.65367  1.0000
  H   H424      1.0  0.16755  0.85184  0.71808  1.0000
  C   C434      1.0  0.49305  0.82698  0.68323  1.0000
  H   H425      1.0  0.12097  0.77412  0.49412  1.0000
  C   C435      1.0  0.39159  0.57819  0.64112  1.0000
  N   N33       1.0  0.11903  0.62647  0.52811  1.0000
  H   H426      1.0  0.36761  0.53107  0.66076  1.0000
  H   H427      1.0  0.07389  0.80648  0.53547  1.0000
  C   C436      1.0  0.15452  0.92293  0.68992  1.0000
  C   C437      1.0  0.18162  0.89618  0.67465  1.0000
  H   H428      1.0  0.33147  0.89916  0.69128  1.0000
  C   C438      1.0  0.14068  0.62990  0.52152  1.0000
  H   H429      1.0  0.20273  0.59667  0.67729  1.0000
  C   C439      1.0  0.19483  0.56193  0.67954  1.0000
  N   N34       1.0  0.35397  0.55358  0.63775  1.0000
  H   H430      1.0  0.15156  0.51099  0.55191  1.0000
  H   H431      1.0  0.29728  0.91312  0.61540  1.0000
  H   H432      1.0  0.08499  0.62805  0.52010  1.0000
  C   C440      1.0  0.12870  0.64292  0.48788  1.0000
  C   C441      1.0  0.14555  0.90775  0.50518  1.0000
  N   N35       1.0  0.14836  0.51485  0.51931  1.0000
  C   C442      1.0  0.17186  0.57118  0.71637  1.0000
  C   C443      1.0  0.16571  0.92282  0.53277  1.0000
  H   H433      1.0  0.18545  0.90847  0.66226  1.0000
  N   N36       1.0  0.10796  0.80678  0.54315  1.0000
  C   C444      1.0  0.12955  0.80057  0.53777  1.0000
  C   C445      1.0  0.09099  0.80132  0.53139  1.0000
  C   C446      1.0  0.13462  0.78890  0.51999  1.0000
  C   C447      1.0  0.09544  0.78937  0.51372  1.0000
  C   C448      1.0  0.11739  0.78321  0.50796  1.0000
  C   C449      1.0  0.10281  0.81827  0.56221  1.0000
  H   H434      1.0  0.14303  0.80501  0.54704  1.0000
  H   H435      1.0  0.15409  0.62604  0.53185  1.0000
  H   H436      1.0  0.15177  0.78436  0.51553  1.0000
  Fe  Fe81      1.0  0.34885  0.60961  0.72529  1.0000
  H   H437      1.0  0.20064  0.51475  0.68479  1.0000
  H   H438      1.0  0.11711  0.82797  0.56636  1.0000
  H   H439      1.0  0.13916  0.59447  0.67281  1.0000
  H   H440      1.0  0.14200  0.83128  0.67809  1.0000
  H   H441      1.0  0.42277  0.77610  0.71493  1.0000
  N   N37       1.0  0.14501  0.91932  0.52273  1.0000
  H   H442      1.0  0.29783  0.91993  0.70446  1.0000
  C   C450      1.0  0.14585  0.63806  0.50129  1.0000
  C   C451      1.0  0.10562  0.91271  0.50378  1.0000
  H   H443      1.0  0.32154  0.89607  0.62045  1.0000
  H   H444      1.0  0.09016  0.90924  0.49689  1.0000
  C   C452      1.0  0.15955  0.52051  0.50099  1.0000
  H   H445      1.0  0.16337  0.53689  0.71765  1.0000
  S   S158      1.0  0.15307  0.96908  0.56551  1.0000
  H   H446      1.0  0.09819  0.60951  0.55102  1.0000
  C   C453      1.0  0.40505  0.72003  0.67105  1.0000
  H   H447      1.0  0.33945  0.52436  0.62861  1.0000
  H   H448      1.0  0.17762  0.51974  0.49982  1.0000
  C   C454      1.0  0.10213  0.63113  0.51503  1.0000
  C   C455      1.0  0.30104  0.91883  0.68795  1.0000
  C   C456      1.0  0.28618  0.92874  0.67404  1.0000
  C   C457      1.0  0.17206  0.86438  0.70606  1.0000
  C   C458      1.0  0.33444  0.54017  0.63586  1.0000
  H   H449      1.0  0.34357  0.57928  0.61591  1.0000
  H   H450      1.0  0.20496  0.87159  0.66219  1.0000
  C   C459      1.0  0.37532  0.58561  0.62752  1.0000
  S   S159      1.0  0.12163  0.60066  0.71357  1.0000
  H   H451      1.0  0.40604  0.58805  0.64284  1.0000
  H   H452      1.0  0.32624  0.53647  0.65134  1.0000
  H   H453      1.0  0.40758  0.74508  0.64605  1.0000
  H   H454      1.0  0.37695  0.60134  0.61867  1.0000
  H   H455      1.0  0.20391  0.55839  0.66513  1.0000
  H   H456      1.0  0.45141  0.61673  0.70675  1.0000
  C   C460      1.0  0.10497  0.77132  0.73171  1.0000
  C   C461      1.0  0.40684  0.74180  0.66264  1.0000
  C   C462      1.0  0.40359  0.73406  0.70514  1.0000
  H   H457      1.0  0.18127  0.60506  0.71003  1.0000
  C   C463      1.0  0.12555  0.51564  0.52071  1.0000
  C   C464      1.0  0.18784  0.85930  0.69034  1.0000
  C   C465      1.0  0.12588  0.90425  0.49545  1.0000
  H   H458      1.0  0.40392  0.70627  0.66110  1.0000
  C   C466      1.0  0.16124  0.88543  0.70565  1.0000
  H   H459      1.0  0.40842  0.77629  0.66923  1.0000
  H   H460      1.0  0.09340  0.64266  0.48430  1.0000
  C   C467      1.0  0.40368  0.71608  0.69242  1.0000
  H   H461      1.0  0.08964  0.93138  0.52816  1.0000
  H   H462      1.0  0.11197  0.63326  0.55949  1.0000
  H   H463      1.0  0.17084  0.51280  0.69058  1.0000
  C   C468      1.0  0.10531  0.92494  0.52142  1.0000
  H   H464      1.0  0.11664  0.51124  0.53522  1.0000
  C   C469      1.0  0.17251  0.54979  0.70897  1.0000
  C   C470      1.0  0.19433  0.58357  0.68639  1.0000
  H   H465      1.0  0.48338  0.55237  0.71264  1.0000
  C   C471      1.0  0.11335  0.52277  0.50363  1.0000
  H   H466      1.0  0.11104  0.69474  0.72900  1.0000
  H   H467      1.0  0.47755  0.87066  0.71221  1.0000
  H   H468      1.0  0.39947  0.78964  0.70249  1.0000
  H   H469      1.0  0.49321  0.61736  0.70679  1.0000
  H   H470      1.0  0.07388  0.71650  0.48596  1.0000
  C   C472      1.0  0.12463  0.52874  0.48497  1.0000
  H   H471      1.0  0.11978  0.77187  0.72074  1.0000
  C   C473      1.0  0.34743  0.72649  0.72221  1.0000
  H   H472      1.0  0.39429  0.77104  0.72435  1.0000
  H   H473      1.0  0.28516  0.56601  0.72901  1.0000
  C   C474      1.0  0.14786  0.52759  0.48356  1.0000
  H   H474      1.0  0.16215  0.57479  0.73044  1.0000
  C   C475      1.0  0.10051  0.70935  0.73228  1.0000
  H   H475      1.0  0.30073  0.59035  0.73257  1.0000
  Fe  Fe82      1.0  0.28915  0.53444  0.88764  1.0000
  S   S160      1.0  0.26024  0.51190  0.88575  1.0000
  S   S161      1.0  0.28846  0.55438  0.91641  1.0000
  Fe  Fe83      1.0  0.30985  0.52106  0.84646  1.0000
  C   C476      1.0  0.33965  0.94052  0.82536  1.0000
  S   S162      1.0  0.33601  0.52138  0.82007  1.0000
  Fe  Fe84      1.0  0.25891  0.52501  0.85242  1.0000
  S   S163      1.0  0.23356  0.53597  0.82801  1.0000
  C   C477      1.0  0.06582  0.72558  0.74582  1.0000
  S   S164      1.0  0.28612  0.54910  0.85517  1.0000
  S   S165      1.0  0.31560  0.50840  0.87922  1.0000
  Fe  Fe85      1.0  0.26823  0.90562  0.88788  1.0000
  S   S166      1.0  0.25190  0.93864  0.87778  1.0000
  S   S167      1.0  0.26535  0.89302  0.92147  1.0000
  Fe  Fe86      1.0  0.28874  0.89832  0.84490  1.0000
  S   S168      1.0  0.27530  0.93115  0.83217  1.0000
  S   S169      1.0  0.30737  0.87178  0.82691  1.0000
  Fe  Fe87      1.0  0.28532  0.94557  0.86172  1.0000
  C   C478      1.0  0.07883  0.70681  0.74054  1.0000
  Fe  Fe88      1.0  0.24317  0.92101  0.84929  1.0000
  S   S170      1.0  0.21246  0.92260  0.82940  1.0000
  S   S171      1.0  0.30152  0.91299  0.87271  1.0000
  S   S172      1.0  0.25678  0.88779  0.86111  1.0000
  Fe  Fe89      1.0  0.06940  0.61303  0.77808  1.0000
  S   S173      1.0  0.08545  0.63413  0.75203  1.0000
  S   S174      1.0  0.03229  0.61999  0.78741  1.0000
  Fe  Fe90      1.0  0.11560  0.59447  0.79244  1.0000
  S   S175      1.0  0.13403  0.61430  0.76744  1.0000
  S   S176      1.0  0.13331  0.57543  0.81901  1.0000
  Fe  Fe91      1.0  0.11014  0.64277  0.77456  1.0000
  S   S177      1.0  0.12618  0.67627  0.77433  1.0000
  H   H476      1.0  0.26495  0.60933  0.79480  1.0000
  N   N38       1.0  0.35137  0.92250  0.81440  1.0000
  S   S178      1.0  0.09317  0.62385  0.80112  1.0000
  S   S179      1.0  0.09063  0.58195  0.77121  1.0000
  Fe  Fe92      1.0  0.11112  0.84256  0.79393  1.0000
  S   S180      1.0  0.12023  0.81184  0.77649  1.0000
  S   S181      1.0  0.13733  0.85196  0.81657  1.0000
  Fe  Fe93      1.0  0.06303  0.84478  0.77705  1.0000
  S   S182      1.0  0.07023  0.81521  0.75809  1.0000
  S   S183      1.0  0.02767  0.86110  0.77824  1.0000
  Fe  Fe94      1.0  0.08626  0.79974  0.78610  1.0000
  S   S184      1.0  0.07374  0.76586  0.79730  1.0000
  Fe  Fe95      1.0  0.10341  0.83013  0.75003  1.0000
  H   H477      1.0  0.35580  0.94257  0.78646  1.0000
  S   S185      1.0  0.07795  0.82883  0.80564  1.0000
  S   S186      1.0  0.09550  0.86144  0.76681  1.0000
  H   H478      1.0  0.31743  0.91499  0.76077  1.0000
  H   H479      1.0  0.33790  0.93656  0.84227  1.0000
  C   C479      1.0  0.11168  0.70077  0.78194  1.0000
  C   C480      1.0  0.12231  0.72112  0.77906  1.0000
  C   C481      1.0  0.11096  0.74118  0.78394  1.0000
  C   C482      1.0  0.08897  0.74096  0.79203  1.0000
  C   C483      1.0  0.07856  0.72052  0.79551  1.0000
  C   C484      1.0  0.08981  0.70047  0.79034  1.0000
  C   C485      1.0  0.00156  0.84875  0.77491  1.0000
  H   H480      1.0  0.11924  0.75679  0.78151  1.0000
  H   H481      1.0  0.06155  0.72024  0.80181  1.0000
  H   H482      1.0  0.08148  0.68485  0.79262  1.0000
  C   C486      1.0  0.35856  0.92633  0.79422  1.0000
  C   C487      1.0  0.00426  0.59137  0.76929  1.0000
  C   C488      1.0  0.19152  0.90285  0.82629  1.0000
  C   C489      1.0  0.18844  0.88420  0.83989  1.0000
  C   C490      1.0  0.17152  0.86922  0.83686  1.0000
  C   C491      1.0  0.15767  0.87226  0.81997  1.0000
  C   C492      1.0  0.16093  0.89076  0.80622  1.0000
  C   C493      1.0  0.17756  0.90600  0.80949  1.0000
  H   H483      1.0  0.19885  0.88149  0.85295  1.0000
  H   H484      1.0  0.16922  0.85505  0.84766  1.0000
  H   H485      1.0  0.15045  0.89350  0.79322  1.0000
  H   H486      1.0  0.17958  0.92040  0.79892  1.0000
  H   H487      1.0  0.31961  0.60014  0.80036  1.0000
  C   C494      1.0  0.28931  0.88096  0.93301  1.0000
  C   C495      1.0  0.28882  0.87592  0.95443  1.0000
  C   C496      1.0  0.30826  0.86802  0.96416  1.0000
  C   C497      1.0  0.32821  0.86489  0.95242  1.0000
  C   C498      1.0  0.32850  0.86941  0.93100  1.0000
  C   C499      1.0  0.30918  0.87738  0.92134  1.0000
  H   H488      1.0  0.27344  0.87847  0.96355  1.0000
  C   C500      1.0  0.33511  0.53324  0.96738  1.0000
  H   H489      1.0  0.34382  0.86681  0.92180  1.0000
  H   H490      1.0  0.30969  0.88063  0.90485  1.0000
  C   C501      1.0  0.31384  0.87528  0.80017  1.0000
  C   C502      1.0  0.31108  0.89598  0.78950  1.0000
  C   C503      1.0  0.31892  0.89879  0.76878  1.0000
  C   C504      1.0  0.32936  0.88090  0.75858  1.0000
  C   C505      1.0  0.33120  0.85999  0.76898  1.0000
  C   C506      1.0  0.32356  0.85724  0.78975  1.0000
  H   H491      1.0  0.30364  0.90999  0.79738  1.0000
  H   H492      1.0  0.33917  0.84610  0.76124  1.0000
  H   H493      1.0  0.32571  0.84116  0.79790  1.0000
  C   C507      1.0  0.20594  0.54798  0.82627  1.0000
  C   C508      1.0  0.19882  0.55606  0.80679  1.0000
  C   C509      1.0  0.17690  0.56492  0.80433  1.0000
  C   C510      1.0  0.16159  0.56549  0.82129  1.0000
  C   C511      1.0  0.16876  0.55765  0.84079  1.0000
  C   C512      1.0  0.19080  0.54910  0.84332  1.0000
  H   H494      1.0  0.21030  0.55523  0.79346  1.0000
  H   H495      1.0  0.17171  0.57079  0.78922  1.0000
  H   H496      1.0  0.15711  0.55790  0.85404  1.0000
  H   H497      1.0  0.19587  0.54289  0.85837  1.0000
  C   C513      1.0  0.33648  0.54541  0.80309  1.0000
  C   C514      1.0  0.32679  0.56565  0.80917  1.0000
  C   C515      1.0  0.32713  0.58455  0.79546  1.0000
  C   C516      1.0  0.33692  0.58339  0.77547  1.0000
  C   C517      1.0  0.34683  0.56320  0.76936  1.0000
  C   C518      1.0  0.34670  0.54429  0.78320  1.0000
  H   H498      1.0  0.31926  0.56687  0.82454  1.0000
  H   H499      1.0  0.35456  0.56218  0.75402  1.0000
  H   H500      1.0  0.35441  0.52873  0.77845  1.0000
  C   C519      1.0  0.31133  0.56773  0.92572  1.0000
  C   C520      1.0  0.33271  0.56608  0.91623  1.0000
  C   C521      1.0  0.35076  0.57542  0.92519  1.0000
  C   C522      1.0  0.34762  0.58635  0.94374  1.0000
  C   C523      1.0  0.32616  0.58831  0.95299  1.0000
  C   C524      1.0  0.30812  0.57913  0.94397  1.0000
  H   H501      1.0  0.33537  0.55751  0.90207  1.0000
  H   H502      1.0  0.36727  0.57407  0.91779  1.0000
  H   H503      1.0  0.29161  0.58063  0.95133  1.0000
  H   H504      1.0  0.37373  0.91194  0.76683  1.0000
  H   H505      1.0  0.37880  0.87433  0.78397  1.0000
  C   C525      1.0  0.35402  0.90175  0.82392  1.0000
  H   H506      1.0  0.28203  0.60898  0.75933  1.0000
  H   H507      1.0  0.10992  0.77664  0.74683  1.0000
  H   H508      1.0  0.25415  0.94608  0.92344  1.0000
  S   S187      1.0  0.28289  0.49742  0.84244  1.0000
  H   H509      1.0  0.34736  0.89833  0.83958  1.0000
  H   H510      1.0  0.01481  0.81525  0.77226  1.0000
  C   C526      1.0  0.26853  0.57376  0.80026  1.0000
  H   H511      1.0  0.00349  0.86851  0.81812  1.0000
  C   C527      1.0  0.29645  0.52742  0.96555  1.0000
  C   C528      1.0  0.36434  0.88424  0.81327  1.0000
  C   C529      1.0  0.32075  0.92475  0.94771  1.0000
  H   H512      1.0  0.32951  0.91472  0.95938  1.0000
  H   H513      1.0  0.30783  0.86448  0.98068  1.0000
  C   C530      1.0  0.29755  0.94891  0.91758  1.0000
  H   H514      1.0  0.27501  0.53830  0.80133  1.0000
  Fe  Fe96      1.0  0.10810  0.60406  0.74657  1.0000
  N   N39       1.0  0.99630  0.83428  0.82392  1.0000
  C   C531      1.0  0.33206  0.93222  0.92951  1.0000
  H   H515      1.0  0.36550  0.86761  0.82061  1.0000
  H   H516      1.0  0.20304  0.81592  0.82288  1.0000
  N   N40       1.0  0.28747  0.57367  0.76030  1.0000
  H   H517      1.0  0.30775  0.51145  0.93000  1.0000
  C   C532      1.0  0.32047  0.94459  0.91442  1.0000
  H   H518      1.0  0.25931  0.96204  0.94542  1.0000
  H   H519      1.0  0.31302  0.56351  0.73862  1.0000
  C   C533      1.0  0.00605  0.61010  0.78081  1.0000
  C   C534      1.0  0.36887  0.90916  0.78308  1.0000
  H   H520      1.0  0.34882  0.95619  0.82309  1.0000
  H   H521      1.0  0.26124  0.57373  0.81591  1.0000
  H   H522      1.0  0.18904  0.84424  0.79698  1.0000
  C   C535      1.0  0.27048  0.59369  0.78838  1.0000
  C   C536      1.0  0.46478  0.85961  0.97941  1.0000
  C   C537      1.0  0.02354  0.80422  0.81999  1.0000
  N   N41       1.0  0.31792  0.52477  0.95770  1.0000
  H   H523      1.0  0.48236  0.57949  0.73705  1.0000
  H   H524      1.0  0.01064  0.77197  0.81642  1.0000
  C   C538      1.0  0.29785  0.92955  0.95044  1.0000
  H   H525      1.0  0.29193  0.53852  0.76574  1.0000
  C   C539      1.0  0.27623  0.55381  0.79203  1.0000
  H   H526      1.0  0.10330  0.68550  0.83267  1.0000
  C   C540      1.0  0.37171  0.88800  0.79270  1.0000
  C   C541      1.0  0.09920  0.65367  0.84923  1.0000
  N   N42       1.0  0.23808  0.86677  0.80585  1.0000
  C   C542      1.0  0.24624  0.85090  0.81971  1.0000
  C   C543      1.0  0.21803  0.86427  0.79739  1.0000
  C   C544      1.0  0.23380  0.83239  0.82608  1.0000
  C   C545      1.0  0.20528  0.84582  0.80321  1.0000
  C   C546      1.0  0.21312  0.82995  0.81784  1.0000
  C   C547      1.0  0.25132  0.88603  0.79925  1.0000
  H   H527      1.0  0.26238  0.85263  0.82609  1.0000
  H   H528      1.0  0.21147  0.87691  0.78651  1.0000
  H   H529      1.0  0.24010  0.82012  0.83744  1.0000
  S   S188      1.0  0.30993  0.97381  0.86382  1.0000
  H   H530      1.0  0.34597  0.72634  0.73888  1.0000
  H   H531      1.0  0.26139  0.88261  0.78489  1.0000
  H   H532      1.0  0.24037  0.90119  0.79665  1.0000
  H   H533      1.0  0.26277  0.88984  0.81132  1.0000
  H   H534      1.0  0.34348  0.71760  0.97568  1.0000
  C   C548      1.0  0.99984  0.82584  0.77303  1.0000
  S   S189      1.0  0.35338  0.85590  0.96359  1.0000
  H   H535      1.0  0.28862  0.95829  0.90565  1.0000
  H   H536      1.0  0.36280  0.79576  0.98147  1.0000
  S   S190      1.0  0.34172  0.88572  0.73361  1.0000
  H   H537      1.0  0.35048  0.79451  0.95681  1.0000
  C   C549      1.0  0.34548  0.75348  0.97404  1.0000
  H   H538      1.0  0.32907  0.95061  0.90022  1.0000
  C   C550      1.0  0.28003  0.59335  0.76828  1.0000
  H   H539      1.0  0.25448  0.93240  0.94831  1.0000
  C   C551      1.0  0.01809  0.82675  0.82263  1.0000
  H   H540      1.0  0.13931  0.72141  0.77272  1.0000
  H   H541      1.0  0.07245  0.69025  0.74354  1.0000
  H   H542      1.0  0.32344  0.59693  0.96710  1.0000
  H   H543      1.0  0.01922  0.58252  0.76375  1.0000
  H   H544      1.0  0.13569  0.60943  0.84539  1.0000
  H   H545      1.0  0.17409  0.63744  0.82570  1.0000
  C   C552      1.0  0.12860  0.62611  0.84250  1.0000
  H   H546      1.0  0.10003  0.62029  0.86331  1.0000
  H   H547      1.0  0.16048  0.64233  0.80146  1.0000
  C   C553      1.0  0.15937  0.63372  0.81709  1.0000
  S   S191      1.0  0.33497  0.60724  0.75842  1.0000
  N   N43       1.0  0.13883  0.64070  0.82851  1.0000
  C   C554      1.0  0.10850  0.63226  0.85287  1.0000
  H   H548      1.0  0.15970  0.61555  0.81465  1.0000
  C   C555      1.0  0.13036  0.66203  0.82556  1.0000
  C   C556      1.0  0.11031  0.66878  0.83566  1.0000
  H   H549      1.0  0.13889  0.67385  0.81503  1.0000
  H   H550      1.0  0.08338  0.65852  0.85682  1.0000
  C   C557      1.0  0.07471  0.74670  0.74269  1.0000
  S   S192      1.0  0.37087  0.59706  0.95498  1.0000
  C   C558      1.0  0.34696  0.79406  0.97377  1.0000
  H   H551      1.0  0.48377  0.60909  0.97627  1.0000
  C   C559      1.0  0.28570  0.55406  0.77190  1.0000
  H   H552      1.0  0.32267  0.94355  0.81959  1.0000
  N   N44       1.0  0.09585  0.74906  0.73423  1.0000
  H   H553      1.0  0.34973  0.92825  0.92705  1.0000
  H   H554      1.0  0.35205  0.53170  0.96089  1.0000
  H   H555      1.0  0.35965  0.75336  0.96302  1.0000
  H   H556      1.0  0.32842  0.49480  0.94382  1.0000
  C   C560      1.0  0.29696  0.57333  0.73905  1.0000
  N   N45       1.0  0.28648  0.94108  0.93528  1.0000
  H   H557      1.0  0.33572  0.52014  0.92899  1.0000
  H   H558      1.0  0.03139  0.83834  0.82299  1.0000
  H   H559      1.0  0.04084  0.79835  0.81843  1.0000
  C   C561      1.0  0.32272  0.51206  0.93928  1.0000
  H   H560      1.0  0.28275  0.52124  0.95759  1.0000
  C   C562      1.0  0.26245  0.94579  0.93834  1.0000
  H   H561      1.0  0.49184  0.88187  0.97757  1.0000
  C   C563      1.0  0.48721  0.86470  0.98025  1.0000
  H   H562      1.0  0.04925  0.72372  0.75298  1.0000
  H   H563      1.0  0.28907  0.92324  0.96443  1.0000
  H   H564      1.0  0.06484  0.76115  0.74760  1.0000
  C   C564      1.0  0.00653  0.78937  0.81889  1.0000
  H   H565      1.0  0.45217  0.87268  0.97651  1.0000
  H   H566      1.0  0.33582  0.80883  0.97696  1.0000
  N   N46       1.0  0.33686  0.77314  0.98118  1.0000
  C   C565      1.0  0.33641  0.73322  0.98110  1.0000
  Fe  Fe97      1.0  0.89413  0.34346  0.19454  1.0000
  S   S193      1.0  0.88295  0.31637  0.21732  1.0000
  S   S194      1.0  0.92773  0.35631  0.20329  1.0000
  Fe  Fe98      1.0  0.84900  0.34338  0.17307  1.0000
  S   S195      1.0  0.83596  0.31540  0.19437  1.0000
  S   S196      1.0  0.82913  0.35911  0.14612  1.0000
  Fe  Fe99      1.0  0.84982  0.33465  0.21922  1.0000
  H   H567      1.0  0.68361  0.03884  0.20954  1.0000
  Fe  Fe100     1.0  0.87048  0.29944  0.19059  1.0000
  S   S197      1.0  0.88436  0.26357  0.19005  1.0000
  S   S198      1.0  0.86137  0.36327  0.19835  1.0000
  S   S199      1.0  0.88300  0.32594  0.16738  1.0000
  H   H568      1.0  0.62348  0.13710  0.03424  1.0000
  S   S200      1.0  0.86413  0.07744  0.20177  1.0000
  H   H569      1.0  0.87351  0.16240  0.13885  1.0000
  Fe  Fe101     1.0  0.84836  0.13900  0.18636  1.0000
  S   S201      1.0  0.85774  0.11338  0.16303  1.0000
  S   S202      1.0  0.83681  0.17407  0.17566  1.0000
  Fe  Fe102     1.0  0.83537  0.09023  0.18251  1.0000
  S   S203      1.0  0.80848  0.06513  0.17686  1.0000
  Fe  Fe103     1.0  0.88545  0.10307  0.18450  1.0000
  S   S204      1.0  0.92167  0.09591  0.17271  1.0000
  S   S205      1.0  0.82444  0.11664  0.20444  1.0000
  S   S206      1.0  0.87697  0.12989  0.20646  1.0000
  Fe  Fe104     1.0  0.65259  0.41477  0.12106  1.0000
  S   S207      1.0  0.67893  0.43901  0.12575  1.0000
  S   S208      1.0  0.62556  0.41163  0.14649  1.0000
  Fe  Fe105     1.0  0.67482  0.40021  0.08080  1.0000
  S   S209      1.0  0.70337  0.42283  0.08330  1.0000
  S   S210      1.0  0.67693  0.37799  0.05357  1.0000
  Fe  Fe106     1.0  0.70344  0.41123  0.11703  1.0000
  S   S211      1.0  0.72818  0.39750  0.14109  1.0000
  Fe  Fe107     1.0  0.67623  0.44859  0.09180  1.0000
  C   C566      1.0  0.63893  0.00389  0.02285  1.0000
  S   S212      1.0  0.67679  0.38676  0.11364  1.0000
  S   S213      1.0  0.64797  0.42621  0.08778  1.0000
  H   H570      1.0  0.87481  0.22260  0.14527  1.0000
  S   S214      1.0  0.63910  0.00862  0.11501  1.0000
  Fe  Fe108     1.0  0.69910  0.03220  0.11515  1.0000
  S   S215      1.0  0.66853  0.05078  0.12757  1.0000
  S   S216      1.0  0.73320  0.04853  0.11311  1.0000
  Fe  Fe109     1.0  0.65874  0.01755  0.14166  1.0000
  S   S217      1.0  0.64732  0.01461  0.17538  1.0000
  Fe  Fe110     1.0  0.65160  0.04050  0.09974  1.0000
  S   S218      1.0  0.62613  0.06274  0.08313  1.0000
  C   C567      1.0  0.64888  0.09383  0.21416  1.0000
  S   S219      1.0  0.68274  0.02458  0.08582  1.0000
  C   C568      1.0  0.56448  0.34637  0.20819  1.0000
  H   H571      1.0  0.80566  0.07163  0.22205  1.0000
  C   C569      1.0  0.57100  0.37704  0.17517  1.0000
  C   C570      1.0  0.94772  0.10220  0.18272  1.0000
  C   C571      1.0  0.94905  0.11269  0.20127  1.0000
  H   H572      1.0  0.89342  0.39256  0.21605  1.0000
  C   C572      1.0  0.96773  0.09559  0.17209  1.0000
  H   H573      1.0  0.93392  0.11798  0.20966  1.0000
  H   H574      1.0  0.96701  0.08752  0.15770  1.0000
  C   C573      1.0  0.78683  0.06205  0.15938  1.0000
  C   C574      1.0  0.78620  0.07366  0.14011  1.0000
  C   C575      1.0  0.76952  0.06954  0.12637  1.0000
  C   C576      1.0  0.75286  0.05416  0.13179  1.0000
  C   C577      1.0  0.75321  0.04284  0.15122  1.0000
  C   C578      1.0  0.77018  0.04661  0.16477  1.0000
  H   H575      1.0  0.79887  0.08546  0.13558  1.0000
  H   H576      1.0  0.76959  0.07834  0.11138  1.0000
  H   H577      1.0  0.74070  0.03085  0.15566  1.0000
  H   H578      1.0  0.77050  0.03739  0.17954  1.0000
  C   C579      1.0  0.86902  0.23917  0.18915  1.0000
  C   C580      1.0  0.84808  0.23958  0.18072  1.0000
  C   C581      1.0  0.83788  0.21946  0.17761  1.0000
  C   C582      1.0  0.84835  0.19880  0.18315  1.0000
  C   C583      1.0  0.86879  0.19844  0.19249  1.0000
  C   C584      1.0  0.87916  0.21853  0.19527  1.0000
  H   H579      1.0  0.84014  0.25534  0.17588  1.0000
  C   C585      1.0  0.64953  0.09999  0.17655  1.0000
  H   H580      1.0  0.87703  0.18268  0.19682  1.0000
  H   H581      1.0  0.89532  0.21807  0.20189  1.0000
  C   C586      1.0  0.95569  0.35183  0.19320  1.0000
  C   C587      1.0  0.97345  0.35511  0.20586  1.0000
  H   H582      1.0  0.64057  0.34387  0.99796  1.0000
  H   H583      1.0  0.75344  0.00223  0.06395  1.0000
  C   C588      1.0  0.96070  0.34560  0.17301  1.0000
  H   H584      1.0  0.60194  0.01731  0.08783  1.0000
  S   S220      1.0  0.63013  0.32776  0.20964  1.0000
  H   H585      1.0  0.94729  0.34318  0.16299  1.0000
  C   C589      1.0  0.80169  0.37181  0.14575  1.0000
  C   C590      1.0  0.79444  0.38243  0.12724  1.0000
  C   C591      1.0  0.77226  0.39092  0.12560  1.0000
  C   C592      1.0  0.75696  0.38896  0.14254  1.0000
  C   C593      1.0  0.76437  0.37890  0.16121  1.0000
  C   C594      1.0  0.78652  0.37035  0.16283  1.0000
  H   H586      1.0  0.80602  0.38381  0.11396  1.0000
  H   H587      1.0  0.76703  0.39883  0.11121  1.0000
  H   H588      1.0  0.75279  0.37735  0.17447  1.0000
  H   H589      1.0  0.79175  0.36227  0.17717  1.0000
  C   C595      1.0  0.98313  0.34332  0.16547  1.0000
  C   C596      1.0  0.60131  0.07110  0.19918  1.0000
  C   C597      1.0  0.60515  0.06896  0.17789  1.0000
  C   C598      1.0  0.61876  0.05134  0.17042  1.0000
  C   C599      1.0  0.62821  0.03543  0.18422  1.0000
  C   C600      1.0  0.62349  0.03694  0.20550  1.0000
  C   C601      1.0  0.61027  0.05487  0.21300  1.0000
  N   N47       1.0  0.97581  0.29616  0.20609  1.0000
  H   H590      1.0  0.62208  0.05019  0.15399  1.0000
  H   H591      1.0  0.63069  0.02462  0.21624  1.0000
  H   H592      1.0  0.59251  0.03562  0.03427  1.0000
  C   C602      1.0  0.62972  0.35159  0.19268  1.0000
  C   C603      1.0  0.63832  0.34982  0.17236  1.0000
  C   C604      1.0  0.63760  0.36831  0.15820  1.0000
  C   C605      1.0  0.62820  0.38867  0.16428  1.0000
  C   C606      1.0  0.61994  0.39056  0.18471  1.0000
  C   C607      1.0  0.62074  0.37208  0.19890  1.0000
  H   H593      1.0  0.64531  0.33400  0.16746  1.0000
  H   H594      1.0  0.64367  0.36659  0.14241  1.0000
  H   H595      1.0  0.61267  0.40631  0.18950  1.0000
  H   H596      1.0  0.96987  0.36002  0.22148  1.0000
  C   C608      1.0  0.61633  0.35997  0.01826  1.0000
  C   C609      1.0  0.61327  0.37216  0.03609  1.0000
  C   C610      1.0  0.63164  0.37784  0.04706  1.0000
  C   C611      1.0  0.65326  0.37106  0.04046  1.0000
  C   C612      1.0  0.65631  0.35879  0.02270  1.0000
  C   C613      1.0  0.63796  0.35333  0.01159  1.0000
  H   H597      1.0  0.59661  0.37732  0.04142  1.0000
  H   H598      1.0  0.62906  0.38726  0.06072  1.0000
  H   H599      1.0  0.67296  0.35341  0.01750  1.0000
  Fe  Fe111     1.0  0.85393  0.10500  0.22236  1.0000
  C   C614      1.0  0.63081  0.07533  0.01293  1.0000
  C   C615      1.0  0.61174  0.08229  0.02440  1.0000
  C   C616      1.0  0.61064  0.07863  0.04600  1.0000
  C   C617      1.0  0.62843  0.06773  0.05615  1.0000
  C   C618      1.0  0.64744  0.06075  0.04463  1.0000
  C   C619      1.0  0.64868  0.06470  0.02311  1.0000
  H   H600      1.0  0.59796  0.09065  0.01667  1.0000
  H   H601      1.0  0.59589  0.08411  0.05488  1.0000
  H   H602      1.0  0.66125  0.05247  0.05230  1.0000
  H   H603      1.0  0.62848  0.48601  0.08094  1.0000
  H   H604      1.0  0.58638  0.34951  0.15952  1.0000
  H   H605      1.0  0.54557  0.35496  0.02457  1.0000
  C   C620      1.0  0.66403  0.40671  0.21443  1.0000
  C   C621      1.0  0.90352  0.15237  0.15394  1.0000
  H   H606      1.0  0.95141  0.04781  0.19494  1.0000
  H   H607      1.0  0.65517  0.11221  0.02883  1.0000
  C   C622      1.0  0.67429  0.05454  0.21107  1.0000
  H   H608      1.0  0.56173  0.33452  0.22118  1.0000
  C   C623      1.0  0.95138  0.29777  0.20837  1.0000
  H   H609      1.0  0.67292  0.13310  0.01643  1.0000
  C   C624      1.0  0.56085  0.38404  0.19362  1.0000
  C   C625      1.0  0.66839  0.06742  0.19343  1.0000
  H   H610      1.0  0.56855  0.30718  0.18172  1.0000
  C   C626      1.0  0.99004  0.10845  0.19908  1.0000
  C   C627      1.0  0.98872  0.09872  0.18015  1.0000
  H   H611      1.0  0.66191  0.11296  0.17286  1.0000
  C   C628      1.0  0.66733  0.06164  0.23053  1.0000
  H   H612      1.0  0.66697  0.10835  0.00347  1.0000
  H   H613      1.0  0.91161  0.21525  0.15726  1.0000
  H   H614      1.0  0.73617  0.35935  0.07818  1.0000
  C   C629      1.0  0.49947  0.35057  0.00320  1.0000
  N   N48       1.0  0.89114  0.19039  0.14700  1.0000
  C   C630      1.0  0.98821  0.29797  0.22294  1.0000
  H   H615      1.0  0.93392  0.14736  0.16996  1.0000
  C   C631      1.0  0.96884  0.05968  0.22004  1.0000
  H   H616      1.0  0.69566  0.41288  0.17851  1.0000
  H   H617      1.0  0.77678  0.07006  0.21644  1.0000
  H   H618      1.0  0.73172  0.37815  0.09884  1.0000
  C   C632      1.0  0.60620  0.02356  0.03660  1.0000
  N   N49       1.0  0.74826  0.34756  0.10746  1.0000
  C   C633      1.0  0.76963  0.34386  0.09971  1.0000
  C   C634      1.0  0.74234  0.34082  0.12739  1.0000
  C   C635      1.0  0.78561  0.33285  0.11194  1.0000
  C   C636      1.0  0.75788  0.32969  0.14001  1.0000
  C   C637      1.0  0.77967  0.32577  0.13221  1.0000
  C   C638      1.0  0.73205  0.36039  0.09497  1.0000
  H   H619      1.0  0.77462  0.35003  0.08423  1.0000
  H   H620      1.0  0.72575  0.34484  0.13386  1.0000
  H   H621      1.0  0.80279  0.33074  0.10613  1.0000
  H   H622      1.0  0.75335  0.32501  0.15599  1.0000
  H   H623      1.0  0.79221  0.31816  0.14212  1.0000
  C   C639      1.0  0.57792  0.35468  0.17372  1.0000
  C   C640      1.0  0.67799  0.44448  0.03610  1.0000
  H   H624      1.0  0.64938  0.46512  0.04491  1.0000
  C   C641      1.0  0.58192  0.31631  0.18828  1.0000
  S   S221      1.0  0.67768  0.48387  0.07603  1.0000
  H   H625      1.0  0.68916  0.45263  0.04559  1.0000
  H   H626      1.0  0.66631  0.41900  0.17462  1.0000
  H   H627      1.0  0.97076  0.12321  0.22404  1.0000
  C   C642      1.0  0.88809  0.16811  0.14584  1.0000
  H   H628      1.0  0.66030  0.42440  0.21182  1.0000
  H   H629      1.0  0.57425  0.38900  0.16230  1.0000
  C   C643      1.0  0.62100  0.01901  0.01991  1.0000
  H   H630      1.0  0.67922  0.39380  0.16604  1.0000
  H   H631      1.0  0.61890  0.02762  0.00494  1.0000
  C   C644      1.0  0.87545  0.20664  0.13740  1.0000
  C   C645      1.0  0.55746  0.36862  0.21023  1.0000
  C   C646      1.0  0.74818  0.01022  0.07848  1.0000
  H   H632      1.0  0.88045  0.20986  0.12087  1.0000
  S   S222      1.0  0.59275  0.35382  0.00463  1.0000
  N   N50       1.0  0.65554  0.08660  0.19514  1.0000
  C   C647      1.0  0.67831  0.37227  0.20219  1.0000
  H   H633      1.0  0.59748  0.31482  0.17831  1.0000
  C   C648      1.0  0.65562  0.45152  0.03566  1.0000
  H   H634      1.0  0.71503  0.35401  0.09798  1.0000
  S   S223      1.0  0.58655  0.09505  0.20782  1.0000
  H   H635      1.0  0.58598  0.30822  0.20353  1.0000
  N   N51       1.0  0.67338  0.39454  0.19881  1.0000
  C   C649      1.0  0.62341  0.14075  0.01770  1.0000
  C   C650      1.0  0.53591  0.34186  0.01812  1.0000
  C   C651      1.0  0.92879  0.06126  0.21840  1.0000
  H   H636      1.0  0.63133  0.42441  0.98467  1.0000
  C   C652      1.0  0.92488  0.18224  0.16473  1.0000
  C   C653      1.0  0.67895  0.40562  0.17860  1.0000
  H   H637      1.0  0.67342  0.06147  0.17836  1.0000
  H   H638      1.0  0.85822  0.20043  0.13873  1.0000
  H   H639      1.0  0.76145  0.02153  0.08210  1.0000
  C   C654      1.0  0.97002  0.11568  0.20938  1.0000
  H   H640      1.0  0.61421  0.37369  0.21454  1.0000
  H   H641      1.0  0.66356  0.05944  0.01430  1.0000
  H   H642      1.0  0.94387  0.30358  0.19363  1.0000
  H   H643      1.0  0.63265  0.10809  0.17880  1.0000
  H   H644      1.0  0.59807  0.08135  0.16712  1.0000
  N   N52       1.0  0.57488  0.33974  0.19021  1.0000
  C   C655      1.0  0.75337  0.99473  0.11386  1.0000
  H   H645      1.0  0.82206  0.21989  0.17037  1.0000
  H   H646      1.0  0.93908  0.18793  0.17231  1.0000
  H   H647      1.0  0.55584  0.40143  0.19511  1.0000
  H   H648      1.0  0.62402  0.44627  0.02323  1.0000
  H   H649      1.0  0.54958  0.37379  0.22471  1.0000
  H   H650      1.0  0.97626  0.29047  0.17397  1.0000
  C   C656      1.0  0.90933  0.19757  0.15614  1.0000
  C   C657      1.0  0.63429  0.41322  0.99852  1.0000
  C   C658      1.0  0.59353  0.01847  0.07297  1.0000
  C   C659      1.0  0.98604  0.29179  0.18736  1.0000
  H   H651      1.0  0.58655  0.03586  0.07130  1.0000
  C   C660      1.0  0.68585  0.42676  0.02450  1.0000
  H   H652      1.0  0.90121  0.13472  0.15285  1.0000
  H   H653      1.0  0.67636  0.34366  0.22386  1.0000
  C   C661      1.0  0.92196  0.15949  0.16351  1.0000
  C   C662      1.0  0.67123  0.41644  0.01236  1.0000
  N   N53       1.0  0.64930  0.42347  0.01197  1.0000
  C   C663      1.0  0.94984  0.05508  0.20987  1.0000
  H   H654      1.0  0.76385  0.00846  0.11647  1.0000
  H   H655      1.0  0.68563  0.36258  0.18982  1.0000
  H   H656      1.0  0.94570  0.31014  0.21979  1.0000
  H   H657      1.0  0.98672  0.33906  0.14967  1.0000
  H   H658      1.0  0.73283  0.02078  0.07613  1.0000
  H   H659      1.0  0.64882  0.08942  0.16312  1.0000
  N   N54       1.0  0.60934  0.01356  0.05573  1.0000
  H   H660      1.0  0.94471  0.28129  0.21340  1.0000
  C   C664      1.0  0.64141  0.44076  0.02343  1.0000
  H   H661      1.0  0.59179  0.15922  0.01960  1.0000
  H   H662      1.0  0.70304  0.42070  0.02528  1.0000
  H   H663      1.0  0.64130  0.39701  0.99326  1.0000
  H   H664      1.0  0.67745  0.40244  0.00366  1.0000
  C   C665      1.0  0.62655  0.99827  0.05862  1.0000
  S   S224      1.0  0.69013  0.99908  0.13054  1.0000
  C   C666      1.0  0.60548  0.15331  0.00954  1.0000
  H   H665      1.0  0.98532  0.05597  0.21312  1.0000
  N   N55       1.0  0.64055  0.13305  0.00499  1.0000
  H   H666      1.0  0.79254  0.04573  0.22611  1.0000
  C   C667      1.0  0.78968  0.06399  0.22726  1.0000
  H   H667      1.0  0.52577  0.33361  0.03091  1.0000
  C   C668      1.0  0.65989  0.12117  0.01389  1.0000
  H   H668      1.0  0.91418  0.05853  0.20989  1.0000
  H   H669      1.0  0.65073  0.00046  0.01011  1.0000
  H   H670      1.0  0.63851  0.10892  0.21550  1.0000
  N   N56       1.0  0.52221  0.35166  0.00166  1.0000
  H   H671      1.0  0.57979  0.00665  0.07385  1.0000
  H   H672      1.0  0.54805  0.32920  0.01181  1.0000
  H   H673      1.0  0.60732  0.05632  0.22943  1.0000
  C   C669      1.0  0.53255  0.36175  0.98460  1.0000
  C   C670      1.0  0.67328  0.36149  0.22144  1.0000
  H   H674      1.0  0.61810  0.40977  0.00691  1.0000
  C   C671      1.0  0.60527  0.15811  0.98829  1.0000
  H   H675      1.0  0.89484  0.41862  0.22772  1.0000
  S   S225      1.0  0.63364  0.08050  0.98603  1.0000
  C   C672      1.0  0.64035  0.13749  0.98411  1.0000
  C   C673      1.0  0.65467  0.08147  0.23212  1.0000
  H   H676      1.0  0.91822  0.39865  0.22856  1.0000
  C   C674      1.0  0.89973  0.40064  0.22942  1.0000
  H   H677      1.0  0.55054  0.36266  0.98355  1.0000
  Fe  Fe112     1.0  0.78812  0.01860  0.33137  1.0000
  H   H678      1.0  0.57465  0.22443  0.24927  1.0000
  S   S226      1.0  0.80138  0.01725  0.29819  1.0000
  Fe  Fe113     1.0  0.79293  0.03846  0.37268  1.0000
  S   S227      1.0  0.76258  0.02208  0.38672  1.0000
  S   S228      1.0  0.81543  0.06129  0.38787  1.0000
  H   H679      1.0  0.64904  0.08700  0.24718  1.0000
  Fe  Fe114     1.0  0.74618  0.03222  0.35675  1.0000
  S   S229      1.0  0.71191  0.05104  0.35769  1.0000
  Fe  Fe115     1.0  0.61512  0.32965  0.24211  1.0000
  S   S230      1.0  0.77588  0.05096  0.34401  1.0000
  Fe  Fe116     1.0  0.61864  0.35099  0.28315  1.0000
  S   S231      1.0  0.63627  0.32148  0.26908  1.0000
  S   S232      1.0  0.64025  0.37969  0.29187  1.0000
  Fe  Fe117     1.0  0.57187  0.33698  0.26885  1.0000
  S   S233      1.0  0.58791  0.30720  0.25376  1.0000
  S   S234      1.0  0.53540  0.34216  0.25923  1.0000
  Fe  Fe118     1.0  0.60731  0.30173  0.28213  1.0000
  S   S235      1.0  0.61256  0.26744  0.29820  1.0000
  H   H680      1.0  0.83442  0.38363  0.23601  1.0000
  H   H681      1.0  0.94372  0.08494  0.26089  1.0000
  S   S236      1.0  0.59035  0.33066  0.29833  1.0000
  S   S237      1.0  0.59836  0.35986  0.25514  1.0000
  Fe  Fe119     1.0  0.60675  0.09655  0.28248  1.0000
  S   S238      1.0  0.61081  0.12086  0.25484  1.0000
  S   S239      1.0  0.63841  0.07531  0.29047  1.0000
  Fe  Fe120     1.0  0.55486  0.10133  0.28190  1.0000
  S   S240      1.0  0.55644  0.12481  0.25406  1.0000
  S   S241      1.0  0.52131  0.09467  0.29936  1.0000
  H   H682      1.0  0.78627  0.11144  0.28057  1.0000
  H   H683      1.0  0.78728  0.13168  0.40823  1.0000
  Fe  Fe121     1.0  0.58314  0.14172  0.26966  1.0000
  S   S242      1.0  0.57671  0.17924  0.26463  1.0000
  S   S243      1.0  0.58055  0.07711  0.26834  1.0000
  S   S244      1.0  0.58068  0.11896  0.29851  1.0000
  Fe  Fe122     1.0  0.79675  0.42588  0.32880  1.0000
  S   S245      1.0  0.76477  0.44543  0.33644  1.0000
  S   S246      1.0  0.81240  0.42686  0.29612  1.0000
  Fe  Fe123     1.0  0.79977  0.40593  0.37291  1.0000
  S   S247      1.0  0.76742  0.42270  0.38315  1.0000
  S   S248      1.0  0.82540  0.38695  0.39232  1.0000
  Fe  Fe124     1.0  0.75396  0.41323  0.35289  1.0000
  S   S249      1.0  0.72313  0.39216  0.34905  1.0000
  Fe  Fe125     1.0  0.78121  0.45337  0.36585  1.0000
  C   C675      1.0  0.77144  0.05481  0.26119  1.0000
  S   S250      1.0  0.78569  0.39389  0.34439  1.0000
  S   S251      1.0  0.81373  0.43648  0.35642  1.0000
  C   C676      1.0  0.87511  0.36995  0.28606  1.0000
  C   C677      1.0  0.82797  0.36219  0.26315  1.0000
  C   C678      1.0  0.82971  0.38286  0.25232  1.0000
  C   C679      1.0  0.82490  0.40261  0.26259  1.0000
  C   C680      1.0  0.81846  0.40181  0.28371  1.0000
  C   C681      1.0  0.81708  0.38112  0.29451  1.0000
  C   C682      1.0  0.82169  0.36143  0.28426  1.0000
  C   C683      1.0  0.88327  0.40303  0.26474  1.0000
  H   H684      1.0  0.82605  0.41857  0.25412  1.0000
  H   H685      1.0  0.81262  0.38021  0.31080  1.0000
  C   C684      1.0  0.73674  0.07496  0.40135  1.0000
  H   H686      1.0  0.60813  0.05939  0.32605  1.0000
  C   C685      1.0  0.60532  0.24266  0.28707  1.0000
  C   C686      1.0  0.59268  0.24337  0.26959  1.0000
  C   C687      1.0  0.58492  0.22361  0.26249  1.0000
  C   C688      1.0  0.58985  0.20287  0.27262  1.0000
  C   C689      1.0  0.60316  0.20199  0.28969  1.0000
  C   C690      1.0  0.61078  0.22185  0.29692  1.0000
  H   H687      1.0  0.58835  0.25916  0.26184  1.0000
  C   C691      1.0  0.50133  0.33638  0.29020  1.0000
  H   H688      1.0  0.60701  0.18615  0.29767  1.0000
  H   H689      1.0  0.62057  0.22114  0.31046  1.0000
  C   C692      1.0  0.70096  0.38875  0.33206  1.0000
  C   C693      1.0  0.69391  0.40549  0.31770  1.0000
  C   C694      1.0  0.67558  0.40229  0.30547  1.0000
  C   C695      1.0  0.66413  0.38220  0.30707  1.0000
  C   C696      1.0  0.67160  0.36524  0.32101  1.0000
  C   C697      1.0  0.68969  0.36858  0.33348  1.0000
  H   H690      1.0  0.70200  0.42125  0.31656  1.0000
  H   H691      1.0  0.66994  0.41568  0.29495  1.0000
  H   H692      1.0  0.66305  0.34973  0.32263  1.0000
  H   H693      1.0  0.69479  0.35549  0.34454  1.0000
  C   C698      1.0  0.69202  0.05800  0.33850  1.0000
  C   C699      1.0  0.67359  0.07241  0.34332  1.0000
  C   C700      1.0  0.65724  0.07819  0.32884  1.0000
  C   C701      1.0  0.65893  0.06944  0.30929  1.0000
  C   C702      1.0  0.67731  0.05501  0.30448  1.0000
  C   C703      1.0  0.69379  0.04943  0.31888  1.0000
  H   H694      1.0  0.67196  0.07917  0.35841  1.0000
  H   H695      1.0  0.64333  0.08934  0.33286  1.0000
  H   H696      1.0  0.67883  0.04800  0.28950  1.0000
  H   H697      1.0  0.70769  0.03822  0.31491  1.0000
  C   C704      1.0  0.81745  0.03936  0.28757  1.0000
  C   C705      1.0  0.82471  0.03958  0.26667  1.0000
  C   C706      1.0  0.83565  0.05800  0.25726  1.0000
  C   C707      1.0  0.83955  0.07625  0.26876  1.0000
  C   C708      1.0  0.83310  0.07565  0.28984  1.0000
  C   C709      1.0  0.82200  0.05731  0.29921  1.0000
  H   H698      1.0  0.82143  0.02564  0.25764  1.0000
  H   H699      1.0  0.80337  0.43348  0.43798  1.0000
  H   H700      1.0  0.83627  0.08962  0.29887  1.0000
  H   H701      1.0  0.81677  0.05718  0.31538  1.0000
  C   C710      1.0  0.81648  0.36559  0.46115  1.0000
  C   C711      1.0  0.83758  0.36491  0.45104  1.0000
  C   C712      1.0  0.84001  0.37159  0.42996  1.0000
  C   C713      1.0  0.82147  0.37922  0.41888  1.0000
  C   C714      1.0  0.80042  0.38021  0.42908  1.0000
  C   C715      1.0  0.79794  0.37329  0.45011  1.0000
  H   H702      1.0  0.85198  0.35901  0.45936  1.0000
  H   H703      1.0  0.85635  0.37077  0.42216  1.0000
  H   H704      1.0  0.78599  0.38586  0.42067  1.0000
  C   C716      1.0  0.81638  0.07094  0.45718  1.0000
  C   C717      1.0  0.80018  0.05781  0.44960  1.0000
  C   C718      1.0  0.80044  0.05356  0.42851  1.0000
  C   C719      1.0  0.81674  0.06272  0.41483  1.0000
  C   C720      1.0  0.83335  0.07523  0.42253  1.0000
  C   C721      1.0  0.83324  0.07927  0.44365  1.0000
  H   H705      1.0  0.78710  0.05128  0.46001  1.0000
  H   H706      1.0  0.78754  0.04395  0.42273  1.0000
  H   H707      1.0  0.84605  0.08233  0.41202  1.0000
  H   H708      1.0  0.75813  0.33289  0.30411  1.0000
  C   C722      1.0  0.76803  0.09604  0.38786  1.0000
  C   C723      1.0  0.58411  0.02441  0.29554  1.0000
  H   H709      1.0  0.98137  0.07474  0.24612  1.0000
  H   H710      1.0  0.78228  0.36383  0.24644  1.0000
  C   C724      1.0  0.76493  0.05999  0.28140  1.0000
  C   C725      1.0  0.74240  0.07897  0.42131  1.0000
  H   H711      1.0  0.51828  0.29013  0.28586  1.0000
  S   S252      1.0  0.75748  0.00008  0.34253  1.0000
  H   H712      1.0  0.76576  0.08441  0.30423  1.0000
  H   H713      1.0  0.80383  0.42643  0.41150  1.0000
  C   C726      1.0  0.54350  0.22660  0.29760  1.0000
  H   H714      1.0  0.79720  0.10161  0.24500  1.0000
  C   C727      1.0  0.75098  0.40946  0.29554  1.0000
  N   N57       1.0  0.92672  0.07139  0.23676  1.0000
  C   C728      1.0  0.85748  0.48287  0.40901  1.0000
  H   H715      1.0  0.89653  0.35732  0.23868  1.0000
  C   C729      1.0  0.90457  0.07866  0.24493  1.0000
  C   C730      1.0  0.82226  0.30605  0.46172  1.0000
  H   H716      1.0  0.75676  0.04776  0.29181  1.0000
  H   H717      1.0  0.55265  0.08572  0.33173  1.0000
  H   H718      1.0  0.87061  0.45779  0.38877  1.0000
  H   H719      1.0  0.78721  0.45008  0.41935  1.0000
  H   H720      1.0  0.54869  0.02327  0.29200  1.0000
  H   H721      1.0  0.58112  0.08658  0.33811  1.0000
  H   H722      1.0  0.80835  0.47988  0.43691  1.0000
  N   N58       1.0  0.57309  0.05790  0.32247  1.0000
  H   H723      1.0  0.82037  0.34549  0.29276  1.0000
  C   C731      1.0  0.91527  0.15203  0.48001  1.0000
  H   H724      1.0  0.54200  0.28783  0.26772  1.0000
  C   C732      1.0  0.55693  0.26641  0.31144  1.0000
  H   H725      1.0  0.52687  0.24719  0.27462  1.0000
  C   C733      1.0  0.56367  0.24627  0.32150  1.0000
  C   C734      1.0  0.79234  0.11381  0.41053  1.0000
  H   H726      1.0  0.77828  0.10218  0.37468  1.0000
  C   C735      1.0  0.56182  0.03089  0.29964  1.0000
  S   S253      1.0  0.85161  0.10037  0.25713  1.0000
  H   H727      1.0  0.79866  0.11074  0.42626  1.0000
  H   H728      1.0  0.50659  0.08021  0.25990  1.0000
  C   C736      1.0  0.60079  0.03463  0.30525  1.0000
  H   H729      1.0  0.82564  0.29962  0.44614  1.0000
  H   H730      1.0  0.56291  0.06743  0.35250  1.0000
  S   S254      1.0  0.83266  0.33687  0.25098  1.0000
  H   H731      1.0  0.73267  0.07209  0.43451  1.0000
  C   C737      1.0  0.84004  0.48889  0.42283  1.0000
  H   H732      1.0  0.83927  0.43292  0.39682  1.0000
  C   C738      1.0  0.50725  0.33850  0.26906  1.0000
  H   H733      1.0  0.72258  0.06498  0.39883  1.0000
  H   H734      1.0  0.98013  0.30133  0.23780  1.0000
  H   H735      1.0  0.88185  0.33901  0.27132  1.0000
  H   H736      1.0  0.56294  0.21050  0.32149  1.0000
  H   H737      1.0  0.53904  0.21107  0.29148  1.0000
  C   C739      1.0  0.78778  0.08998  0.25503  1.0000
  N   N59       1.0  0.75795  0.38747  0.28843  1.0000
  C   C740      1.0  0.76755  0.38586  0.26899  1.0000
  C   C741      1.0  0.75423  0.36871  0.30084  1.0000
  C   C742      1.0  0.77398  0.36505  0.26160  1.0000
  C   C743      1.0  0.76071  0.34766  0.29404  1.0000
  C   C744      1.0  0.77075  0.34588  0.27432  1.0000
  H   H738      1.0  0.67141  0.05170  0.24438  1.0000
  H   H739      1.0  0.77080  0.40076  0.25929  1.0000
  H   H740      1.0  0.74643  0.36993  0.31620  1.0000
  H   H741      1.0  0.86865  0.40332  0.29585  1.0000
  H   H742      1.0  0.89985  0.09534  0.23791  1.0000
  C   C745      1.0  0.59495  0.05136  0.31883  1.0000
  C   C746      1.0  0.78159  0.09566  0.27516  1.0000
  H   H743      1.0  0.61824  0.03009  0.30194  1.0000
  C   C747      1.0  0.55657  0.04768  0.31331  1.0000
  H   H744      1.0  0.65122  0.40597  0.24633  1.0000
  H   H745      1.0  0.76803  0.03850  0.25615  1.0000
  N   N60       1.0  0.89075  0.39019  0.24887  1.0000
  C   C748      1.0  0.55695  0.22627  0.31447  1.0000
  C   C749      1.0  0.53695  0.24706  0.28798  1.0000
  H   H746      1.0  0.56306  0.28178  0.31652  1.0000
  H   H747      1.0  0.73563  0.41567  0.28797  1.0000
  H   H748      1.0  0.57504  0.24618  0.33394  1.0000
  H   H749      1.0  0.58847  0.01172  0.28466  1.0000
  N   N61       1.0  0.78293  0.06965  0.24838  1.0000
  H   H750      1.0  0.80712  0.31729  0.46103  1.0000
  C   C750      1.0  0.65888  0.39647  0.23392  1.0000
  H   H751      1.0  0.83651  0.31612  0.46529  1.0000
  C   C751      1.0  0.76079  0.09178  0.42411  1.0000
  H   H752      1.0  0.53921  0.05278  0.31626  1.0000
  C   C752      1.0  0.87530  0.39311  0.28354  1.0000
  C   C753      1.0  0.53670  0.28770  0.28436  1.0000
  H   H753      1.0  0.92158  0.16216  0.46630  1.0000
  N   N62       1.0  0.77346  0.09993  0.40747  1.0000
  H   H754      1.0  0.74738  0.40891  0.31249  1.0000
  H   H755      1.0  0.84081  0.05815  0.24108  1.0000
  C   C754      1.0  0.74952  0.08366  0.38451  1.0000
  C   C755      1.0  0.80319  0.44053  0.42182  1.0000
  C   C756      1.0  0.77014  0.08051  0.28841  1.0000
  H   H756      1.0  0.76518  0.09474  0.43968  1.0000
  C   C757      1.0  0.83932  0.44869  0.40412  1.0000
  H   H757      1.0  0.86835  0.36206  0.30035  1.0000
  H   H758      1.0  0.76442  0.42146  0.29205  1.0000
  H   H759      1.0  0.91333  0.13467  0.47560  1.0000
  H   H760      1.0  0.80651  0.10980  0.39946  1.0000
  H   H761      1.0  0.65932  0.36554  0.25232  1.0000
  C   C758      1.0  0.88274  0.35701  0.26981  1.0000
  H   H762      1.0  0.95912  0.14461  0.47682  1.0000
  H   H763      1.0  0.77648  0.32974  0.26900  1.0000
  C   C759      1.0  0.89067  0.36747  0.25126  1.0000
  H   H764      1.0  0.74520  0.08061  0.36895  1.0000
  H   H765      1.0  0.84583  0.08934  0.44934  1.0000
  C   C760      1.0  0.56718  0.07522  0.33697  1.0000
  H   H766      1.0  0.82967  0.26213  0.45814  1.0000
  N   N63       1.0  0.82202  0.45501  0.41732  1.0000
  S   S255      1.0  0.78103  0.48505  0.38449  1.0000
  Fe  Fe126     1.0  0.58396  0.10221  0.24168  1.0000
  H   H767      1.0  0.51408  0.33680  0.30129  1.0000
  H   H768      1.0  0.78154  0.37374  0.45780  1.0000
  H   H769      1.0  0.88309  0.42104  0.26286  1.0000
  S   S256      1.0  0.80784  0.00752  0.35885  1.0000
  H   H770      1.0  0.50318  0.13185  0.24006  1.0000
  H   H771      1.0  0.89171  0.06681  0.24157  1.0000
  N   N64       1.0  0.54372  0.26659  0.29491  1.0000
  C   C761      1.0  0.82226  0.47474  0.42672  1.0000
  C   C762      1.0  0.96660  0.07027  0.23861  1.0000
  N   N65       1.0  0.81900  0.28819  0.47777  1.0000
  C   C763      1.0  0.82357  0.26642  0.47345  1.0000
  C   C764      1.0  0.94528  0.07614  0.24676  1.0000
  H   H772      1.0  0.54412  0.30226  0.29080  1.0000
  C   C765      1.0  0.85720  0.46262  0.39962  1.0000
  H   H773      1.0  0.50101  0.14547  0.27543  1.0000
  H   H774      1.0  0.83182  0.99734  0.41867  1.0000
  C   C766      1.0  0.66348  0.37371  0.23736  1.0000
  H   H775      1.0  0.90401  0.07968  0.26198  1.0000
  H   H776      1.0  0.97153  0.09076  0.48277  1.0000
  S   S257      1.0  0.79323  0.47182  0.58528  1.0000
  C   C767      1.0  0.81923  0.03073  0.63565  1.0000
  S   S258      1.0  0.82875  0.11306  0.52756  1.0000
  H   H777      1.0  0.81617  0.99573  0.59748  1.0000
  Fe  Fe127     1.0  0.89012  0.09777  0.51005  1.0000
  S   S259      1.0  0.88121  0.11517  0.53908  1.0000
  H   H778      1.0  0.85203  0.01973  0.53372  1.0000
  Fe  Fe128     1.0  0.85362  0.09034  0.54403  1.0000
  S   S260      1.0  0.84654  0.06748  0.57281  1.0000
  Fe  Fe129     1.0  0.85720  0.13635  0.51987  1.0000
  S   S261      1.0  0.86084  0.17418  0.51247  1.0000
  S   S262      1.0  0.86490  0.07141  0.51645  1.0000
  C   C768      1.0  0.78614  0.05062  0.62220  1.0000
  Fe  Fe130     1.0  0.85467  0.35631  0.55029  1.0000
  S   S263      1.0  0.86463  0.36975  0.51846  1.0000
  S   S264      1.0  0.84854  0.37897  0.57753  1.0000
  Fe  Fe131     1.0  0.85738  0.30699  0.53662  1.0000
  C   C769      1.0  0.94717  0.38105  0.54824  1.0000
  S   S265      1.0  0.84979  0.27133  0.54906  1.0000
  Fe  Fe132     1.0  0.88987  0.34092  0.51790  1.0000
  S   S266      1.0  0.92447  0.34840  0.50413  1.0000
  Fe  Fe133     1.0  0.84113  0.34560  0.50740  1.0000
  N   N66       1.0  0.93075  0.15202  0.49669  1.0000
  S   S267      1.0  0.88165  0.32888  0.55065  1.0000
  S   S268      1.0  0.82972  0.33338  0.53942  1.0000
  H   H779      1.0  0.77129  0.04053  0.56471  1.0000
  H   H780      1.0  0.89161  0.39042  0.55130  1.0000
  C   C770      1.0  0.85867  0.20080  0.52357  1.0000
  C   C771      1.0  0.86639  0.21958  0.51175  1.0000
  C   C772      1.0  0.86450  0.24112  0.51947  1.0000
  C   C773      1.0  0.85456  0.24430  0.53911  1.0000
  C   C774      1.0  0.84701  0.22550  0.55098  1.0000
  C   C775      1.0  0.84910  0.20392  0.54334  1.0000
  H   H781      1.0  0.87387  0.21746  0.49645  1.0000
  H   H782      1.0  0.87041  0.25531  0.51010  1.0000
  C   C776      1.0  0.82989  0.01189  0.64493  1.0000
  H   H783      1.0  0.84303  0.18977  0.55267  1.0000
  N   N67       1.0  0.92633  0.38801  0.54248  1.0000
  S   S269      1.0  0.86701  0.31776  0.50373  1.0000
  C   C777      1.0  0.94983  0.09354  0.51006  1.0000
  C   C778      1.0  0.94896  0.09591  0.53137  1.0000
  C   C779      1.0  0.96880  0.09759  0.54170  1.0000
  H   H784      1.0  0.77935  0.40721  0.62292  1.0000
  C   C780      1.0  0.92360  0.40019  0.52253  1.0000
  H   H785      1.0  0.93302  0.09647  0.53989  1.0000
  H   H786      1.0  0.96797  0.09946  0.55818  1.0000
  C   C781      1.0  0.97028  0.32367  0.54450  1.0000
  C   C782      1.0  0.94999  0.32826  0.53490  1.0000
  C   C783      1.0  0.94970  0.34069  0.51606  1.0000
  C   C784      1.0  0.96989  0.34816  0.50680  1.0000
  C   C785      1.0  0.98964  0.09722  0.53080  1.0000
  C   C786      1.0  0.99053  0.09466  0.50953  1.0000
  H   H787      1.0  0.93458  0.32239  0.54218  1.0000
  C   C787      1.0  0.83949  0.00739  0.53712  1.0000
  H   H788      1.0  0.84751  0.01187  0.64779  1.0000
  C   C788      1.0  0.81139  0.44765  0.58301  1.0000
  C   C789      1.0  0.82165  0.43694  0.59993  1.0000
  C   C790      1.0  0.83348  0.41631  0.59780  1.0000
  C   C791      1.0  0.83543  0.40613  0.57875  1.0000
  C   C792      1.0  0.82594  0.41727  0.56166  1.0000
  C   C793      1.0  0.81392  0.43777  0.56383  1.0000
  H   H789      1.0  0.81989  0.44421  0.61480  1.0000
  H   H790      1.0  0.84082  0.40797  0.61116  1.0000
  H   H791      1.0  0.82742  0.40990  0.54684  1.0000
  H   H792      1.0  0.80616  0.44589  0.55060  1.0000
  C   C794      1.0  0.78769  0.03646  0.57030  1.0000
  C   C795      1.0  0.80471  0.05185  0.56658  1.0000
  C   C796      1.0  0.82577  0.04723  0.57437  1.0000
  C   C797      1.0  0.82974  0.02679  0.58541  1.0000
  C   C798      1.0  0.91042  0.37300  0.57475  1.0000
  H   H793      1.0  0.80130  0.06765  0.55831  1.0000
  H   H794      1.0  0.84591  0.02310  0.59162  1.0000
  S   S270      1.0  0.76902  0.99820  0.58738  1.0000
  C   C799      1.0  0.75922  0.42627  0.57708  1.0000
  H   H795      1.0  0.80880  0.31082  0.50083  1.0000
  C   C800      1.0  0.76780  0.40906  0.56503  1.0000
  N   N68       1.0  0.78030  0.39176  0.57362  1.0000
  C   C801      1.0  0.76320  0.42550  0.59806  1.0000
  C   C802      1.0  0.78937  0.37406  0.56063  1.0000
  H   H796      1.0  0.80418  0.28129  0.52864  1.0000
  C   C803      1.0  0.95009  0.36952  0.56728  1.0000
  C   C804      1.0  0.77556  0.40756  0.60677  1.0000
  H   H797      1.0  0.82204  0.04631  0.52418  1.0000
  H   H798      1.0  0.76506  0.41003  0.54864  1.0000
  H   H799      1.0  0.80388  0.36504  0.56765  1.0000
  C   C805      1.0  0.96820  0.14780  0.50799  1.0000
  H   H800      1.0  0.77638  0.36198  0.55845  1.0000
  H   H801      1.0  0.75753  0.43929  0.60732  1.0000
  H   H802      1.0  0.81661  0.03030  0.50255  1.0000
  H   H803      1.0  0.97032  0.31422  0.55917  1.0000
  S   S271      1.0  0.92535  0.09231  0.49622  1.0000
  S   S272      1.0  0.86687  0.11907  0.49055  1.0000
  H   H804      1.0  0.75038  0.44062  0.57008  1.0000
  C   C806      1.0  0.81256  0.03224  0.51924  1.0000
  H   H805      1.0  0.90520  0.15775  0.52006  1.0000
  C   C807      1.0  0.99019  0.34357  0.51640  1.0000
  C   C808      1.0  0.80901  0.27695  0.51301  1.0000
  C   C809      1.0  0.92290  0.15512  0.51651  1.0000
  H   H806      1.0  0.79556  0.38112  0.54529  1.0000
  H   H807      1.0  0.79430  0.37722  0.60100  1.0000
  H   H808      1.0  0.81143  0.24170  0.52085  1.0000
  H   H809      1.0  0.96164  0.38376  0.53784  1.0000
  C   C810      1.0  0.78401  0.39070  0.59426  1.0000
  C   C811      1.0  0.79157  0.01614  0.58158  1.0000
  H   H810      1.0  0.82886  0.04526  0.63124  1.0000
  C   C812      1.0  0.97070  0.09270  0.49925  1.0000
  H   H811      1.0  0.90777  0.39596  0.51583  1.0000
  Fe  Fe134     1.0  0.84075  0.09438  0.49975  1.0000
  N   N69       1.0  0.81814  0.01153  0.53120  1.0000
  H   H812      1.0  0.79794  0.05992  0.61148  1.0000
  H   H813      1.0  0.92366  0.41839  0.52438  1.0000
  C   C813      1.0  0.81317  0.25471  0.50865  1.0000
  C   C814      1.0  0.96037  0.15105  0.52821  1.0000
  C   C815      1.0  0.93757  0.15467  0.53256  1.0000
  H   H814      1.0  0.93120  0.15674  0.54828  1.0000
  H   H815      1.0  0.82459  0.23210  0.48552  1.0000
  H   H816      1.0  0.83929  0.22766  0.56619  1.0000
  C   C816      1.0  0.90812  0.38451  0.55562  1.0000
  C   C817      1.0  0.95303  0.14808  0.49236  1.0000
  N   N70       1.0  0.79712  0.03061  0.63160  1.0000
  C   C818      1.0  0.78501  0.01224  0.63701  1.0000
  C   C819      1.0  0.93153  0.36534  0.58052  1.0000
  H   H817      1.0  0.96983  0.35774  0.49218  1.0000
  H   H818      1.0  0.78528  0.99939  0.53115  1.0000
  C   C820      1.0  0.81286  0.01120  0.58875  1.0000
  S   S273      1.0  0.81242  0.35585  0.48722  1.0000
  H   H819      1.0  0.93350  0.35610  0.59518  1.0000
  H   H820      1.0  0.79464  0.03724  0.52145  1.0000
  H   H821      1.0  0.77215  0.04617  0.61285  1.0000
  H   H822      1.0  0.77960  0.06168  0.63437  1.0000
  H   H823      1.0  0.97192  0.14999  0.54055  1.0000
  H   H824      1.0  0.76754  0.01201  0.63361  1.0000
  H   H825      1.0  0.89583  0.36993  0.58493  1.0000
  H   H826      1.0  0.96660  0.36340  0.57143  1.0000
  H   H827      1.0  0.98581  0.14417  0.50460  1.0000
  C   C821      1.0  0.80228  0.99605  0.53561  1.0000
  C   C822      1.0  0.99044  0.33143  0.53539  1.0000
  H   H828      1.0  0.93710  0.39535  0.51108  1.0000
  C   C823      1.0  0.81196  0.29357  0.49728  1.0000
  C   C824      1.0  0.82062  0.24935  0.48879  1.0000
  H   H829      1.0  0.89852  0.15914  0.48472  1.0000
  S   S274      1.0  0.81395  0.07773  0.48329  1.0000
  Fe  Fe135     1.0  0.59264  0.08400  0.92268  1.0000
  S   S275      1.0  0.58381  0.06683  0.95332  1.0000
  S   S276      1.0  0.59748  0.06118  0.89544  1.0000
  Fe  Fe136     1.0  0.58494  0.13137  0.94061  1.0000
  C   C825      1.0  0.55063  0.23959  0.90685  1.0000
  S   S277      1.0  0.57775  0.16947  0.93764  1.0000
  Fe  Fe137     1.0  0.60507  0.09190  0.96614  1.0000
  H   H830      1.0  0.51832  0.30989  0.96778  1.0000
  Fe  Fe138     1.0  0.55578  0.09264  0.95605  1.0000
  S   S278      1.0  0.52144  0.08294  0.96899  1.0000
  S   S279      1.0  0.61531  0.10845  0.93527  1.0000
  S   S280      1.0  0.56303  0.10859  0.92463  1.0000
  Fe  Fe139     1.0  0.60539  0.30070  0.94483  1.0000
  S   S281      1.0  0.57615  0.30907  0.96649  1.0000
  S   S282      1.0  0.62002  0.26519  0.94026  1.0000
  Fe  Fe140     1.0  0.60942  0.35017  0.92769  1.0000
  S   S283      1.0  0.58010  0.36099  0.94791  1.0000
  S   S284      1.0  0.62118  0.37619  0.90254  1.0000
  C   C826      1.0  0.52742  0.04125  0.93583  1.0000
  H   H831      1.0  0.62271  0.39004  0.84972  1.0000
  Fe  Fe141     1.0  0.56341  0.33029  0.93979  1.0000
  S   S285      1.0  0.52875  0.33196  0.92726  1.0000
  S   S286      1.0  0.62596  0.32953  0.95324  1.0000
  S   S287      1.0  0.59161  0.32061  0.91767  1.0000
  S   S288      1.0  0.69032  0.45279  0.88470  1.0000
  C   C827      1.0  0.49653  0.09905  0.93606  1.0000
  H   H832      1.0  0.53142  0.27789  0.91516  1.0000
  H   H833      1.0  0.55423  0.05339  0.87771  1.0000
  H   H834      1.0  0.49711  0.06426  0.88783  1.0000
  C   C828      1.0  0.63866  0.39940  0.90301  1.0000
  C   C829      1.0  0.66067  0.39667  0.90907  1.0000
  C   C830      1.0  0.67595  0.41367  0.90430  1.0000
  C   C831      1.0  0.66947  0.43370  0.89359  1.0000
  C   C832      1.0  0.64716  0.43693  0.88855  1.0000
  C   C833      1.0  0.63197  0.41981  0.89305  1.0000
  H   H835      1.0  0.66631  0.38094  0.91627  1.0000
  H   H836      1.0  0.69314  0.41090  0.90823  1.0000
  H   H837      1.0  0.64184  0.45219  0.88034  1.0000
  H   H838      1.0  0.61514  0.42204  0.88798  1.0000
  C   C834      1.0  0.50423  0.04117  0.93592  1.0000
  H   H839      1.0  0.61285  0.24139  0.88943  1.0000
  H   H840      1.0  0.66587  0.01466  0.90897  1.0000
  C   C835      1.0  0.58433  0.22078  0.89401  1.0000
  H   H841      1.0  0.53599  0.03597  0.94966  1.0000
  C   C836      1.0  0.59076  0.19499  0.94156  1.0000
  C   C837      1.0  0.61337  0.19815  0.93649  1.0000
  C   C838      1.0  0.62214  0.21956  0.93695  1.0000
  C   C839      1.0  0.60854  0.23814  0.94247  1.0000
  C   C840      1.0  0.58612  0.23481  0.94828  1.0000
  C   C841      1.0  0.57733  0.21343  0.94775  1.0000
  H   H842      1.0  0.62392  0.18440  0.93126  1.0000
  H   H843      1.0  0.63949  0.22187  0.93238  1.0000
  H   H844      1.0  0.57543  0.24881  0.95272  1.0000
  C   C842      1.0  0.64804  0.00190  0.88454  1.0000
  H   H845      1.0  0.55332  0.29406  0.90339  1.0000
  C   C843      1.0  0.61357  0.02299  0.87683  1.0000
  C   C844      1.0  0.61680  0.03796  0.89223  1.0000
  C   C845      1.0  0.63557  0.03444  0.90406  1.0000
  C   C846      1.0  0.65113  0.01671  0.90009  1.0000
  H   H846      1.0  0.55367  0.20433  0.90178  1.0000
  H   H847      1.0  0.59925  0.02551  0.86745  1.0000
  H   H848      1.0  0.63848  0.04579  0.91586  1.0000
  N   N71       1.0  0.66210  0.42831  0.83955  1.0000
  C   C847      1.0  0.64179  0.41881  0.83984  1.0000
  C   C848      1.0  0.68016  0.41651  0.84705  1.0000
  C   C849      1.0  0.63904  0.39718  0.84845  1.0000
  C   C850      1.0  0.67799  0.39486  0.85576  1.0000
  C   C851      1.0  0.65725  0.38523  0.85656  1.0000
  C   C852      1.0  0.66474  0.45116  0.83098  1.0000
  H   H849      1.0  0.62743  0.42819  0.83404  1.0000
  H   H850      1.0  0.69614  0.42424  0.84725  1.0000
  H   H851      1.0  0.62241  0.15330  0.95888  1.0000
  H   H852      1.0  0.69207  0.38603  0.86268  1.0000
  C   C853      1.0  0.50289  0.31476  0.96062  1.0000
  H   H853      1.0  0.64858  0.46084  0.83074  1.0000
  H   H854      1.0  0.67568  0.46014  0.84065  1.0000
  H   H855      1.0  0.67227  0.45110  0.81501  1.0000
  C   C854      1.0  0.54981  0.27931  0.91398  1.0000
  C   C855      1.0  0.53942  0.04937  0.91817  1.0000
  H   H856      1.0  0.53342  0.23875  0.91259  1.0000
  Fe  Fe142     1.0  0.68513  0.48798  0.86970  1.0000
  H   H857      1.0  0.55546  0.28254  0.92950  1.0000
  C   C856      1.0  0.50342  0.32533  0.94088  1.0000
  H   H858      1.0  0.51204  0.10426  0.92850  1.0000
  H   H859      1.0  0.55088  0.08085  0.88725  1.0000
  C   C857      1.0  0.49699  0.36955  0.96961  1.0000
  N   N72       1.0  0.56138  0.25923  0.90638  1.0000
  H   H860      1.0  0.59225  0.27527  0.90054  1.0000
  C   C858      1.0  0.56191  0.22010  0.90060  1.0000
  S   S289      1.0  0.57629  0.11596  0.97231  1.0000
  C   C859      1.0  0.58340  0.26000  0.89999  1.0000
  C   C860      1.0  0.59517  0.24084  0.89364  1.0000
  H   H861      1.0  0.59350  0.20557  0.89003  1.0000
  H   H862      1.0  0.65503  0.36891  0.86423  1.0000
  H   H863      1.0  0.65371  0.13101  0.97399  1.0000
  C   C861      1.0  0.54172  0.06622  0.88307  1.0000
  H   H864      1.0  0.55981  0.21129  0.95165  1.0000
  Fe  Fe143     1.0  0.59551  0.33913  0.97301  1.0000
  H   H865      1.0  0.55744  0.04963  0.91829  1.0000
  C   C862      1.0  0.62890  0.00497  0.87315  1.0000
  N   N73       1.0  0.52860  0.05733  0.90111  1.0000
  H   H866      1.0  0.53120  0.07151  0.86999  1.0000
  H   H867      1.0  0.52850  0.37774  0.95430  1.0000
  C   C863      1.0  0.49644  0.08909  0.95606  1.0000
  C   C864      1.0  0.52016  0.37065  0.96823  1.0000
  C   C865      1.0  0.62273  0.15005  0.97546  1.0000
  C   C866      1.0  0.50582  0.05739  0.90108  1.0000
  H   H868      1.0  0.59140  0.16768  0.98169  1.0000
  H   H869      1.0  0.62627  0.99390  0.86105  1.0000
  S   S290      1.0  0.67378  0.96226  0.08233  1.0000
  Fe  Fe144     1.0  0.56141  0.61382  0.00489  1.0000
  S   S291      1.0  0.56872  0.61752  0.03799  1.0000
  C   C867      1.0  0.62730  0.54253  0.99899  1.0000
  H   H870      1.0  0.55533  0.73011  0.08045  1.0000
  S   S292      1.0  0.62154  0.62060  0.02344  1.0000
  H   H871      1.0  0.71430  0.94712  0.10566  1.0000
  Fe  Fe145     1.0  0.59801  0.59299  0.03270  1.0000
  S   S293      1.0  0.60330  0.55994  0.05207  1.0000
  Fe  Fe146     1.0  0.59163  0.64486  0.02562  1.0000
  S   S294      1.0  0.58660  0.67972  0.03873  1.0000
  S   S295      1.0  0.58879  0.58776  0.00031  1.0000
  C   C868      1.0  0.74920  0.97880  0.12997  1.0000
  Fe  Fe147     1.0  0.58852  0.85118  0.99827  1.0000
  S   S296      1.0  0.61955  0.84475  0.01588  1.0000
  S   S297      1.0  0.52835  0.61042  0.98988  1.0000
  Fe  Fe148     1.0  0.55805  0.83188  0.03332  1.0000
  S   S298      1.0  0.58685  0.82464  0.05374  1.0000
  S   S299      1.0  0.52453  0.81698  0.04209  1.0000
  Fe  Fe149     1.0  0.59891  0.85879  0.04262  1.0000
  S   S300      1.0  0.60650  0.88525  0.06549  1.0000
  Fe  Fe150     1.0  0.60462  0.81134  0.02539  1.0000
  S   S301      1.0  0.62350  0.77751  0.02364  1.0000
  S   S302      1.0  0.56838  0.86662  0.02424  1.0000
  S   S303      1.0  0.57548  0.81718  0.00563  1.0000
  H   H872      1.0  0.62428  0.70916  0.07657  1.0000
  H   H873      1.0  0.51192  0.86389  0.03370  1.0000
  C   C869      1.0  0.59641  0.70628  0.02935  1.0000
  C   C870      1.0  0.58160  0.72507  0.02965  1.0000
  C   C871      1.0  0.58943  0.74694  0.02676  1.0000
  C   C872      1.0  0.61231  0.75037  0.02398  1.0000
  C   C873      1.0  0.62703  0.73160  0.02286  1.0000
  C   C874      1.0  0.61917  0.70975  0.02545  1.0000
  H   H874      1.0  0.62880  0.98988  0.07365  1.0000
  H   H875      1.0  0.57782  0.76110  0.02750  1.0000
  H   H876      1.0  0.64476  0.73394  0.02072  1.0000
  H   H877      1.0  0.63088  0.69560  0.02557  1.0000
  C   C875      1.0  0.65432  0.94159  0.07736  1.0000
  C   C876      1.0  0.65944  0.92708  0.06134  1.0000
  C   C877      1.0  0.64492  0.91014  0.05713  1.0000
  C   C878      1.0  0.62507  0.90719  0.06911  1.0000
  C   C879      1.0  0.61989  0.92185  0.08500  1.0000
  C   C880      1.0  0.63425  0.93899  0.08901  1.0000
  H   H878      1.0  0.67491  0.92876  0.05221  1.0000
  H   H879      1.0  0.64933  0.89902  0.04495  1.0000
  H   H880      1.0  0.60470  0.91978  0.09447  1.0000
  H   H881      1.0  0.63000  0.94978  0.10149  1.0000
  C   C881      1.0  0.61794  0.51852  0.06792  1.0000
  C   C882      1.0  0.62443  0.53904  0.05839  1.0000
  C   C883      1.0  0.64725  0.54226  0.05447  1.0000
  C   C884      1.0  0.66316  0.52523  0.05993  1.0000
  H   H882      1.0  0.60042  0.51582  0.07127  1.0000
  H   H883      1.0  0.65275  0.55807  0.04784  1.0000
  H   H884      1.0  0.68072  0.52808  0.05700  1.0000
  H   H885      1.0  0.51536  0.60998  0.03393  1.0000
  C   C885      1.0  0.72568  0.96019  0.10801  1.0000
  C   C886      1.0  0.56114  0.77402  0.07521  1.0000
  C   C887      1.0  0.65666  0.50476  0.06954  1.0000
  C   C888      1.0  0.60042  0.76142  0.07429  1.0000
  C   C889      1.0  0.49702  0.85434  0.03467  1.0000
  H   H886      1.0  0.63455  0.74885  0.07177  1.0000
  C   C890      1.0  0.61149  0.72241  0.07723  1.0000
  N   N74       1.0  0.57847  0.75619  0.07676  1.0000
  H   H887      1.0  0.75641  0.98022  0.14478  1.0000
  C   C891      1.0  0.58909  0.71722  0.07972  1.0000
  S   S304      1.0  0.58288  0.64190  0.99279  1.0000
  H   H888      1.0  0.53346  0.84492  0.00017  1.0000
  C   C892      1.0  0.64115  0.55990  0.00236  1.0000
  H   H889      1.0  0.54477  0.76858  0.08196  1.0000
  H   H890      1.0  0.55908  0.77945  0.05874  1.0000
  H   H891      1.0  0.73164  0.94910  0.13944  1.0000
  C   C893      1.0  0.73533  0.96137  0.12697  1.0000
  C   C894      1.0  0.57269  0.73441  0.07933  1.0000
  H   H892      1.0  0.58447  0.69992  0.08088  1.0000
  H   H893      1.0  0.68709  0.57613  0.00232  1.0000
  H   H894      1.0  0.72205  0.97576  0.07778  1.0000
  H   H895      1.0  0.61340  0.53887  0.00985  1.0000
  H   H896      1.0  0.60504  0.77858  0.07133  1.0000
  C   C895      1.0  0.61724  0.74464  0.07457  1.0000
  C   C896      1.0  0.50045  0.60954  0.02537  1.0000
  H   H897      1.0  0.56562  0.78863  0.08361  1.0000
  H   H898      1.0  0.56401  0.72270  0.03287  1.0000
  H   H899      1.0  0.63761  0.56956  0.01581  1.0000
  C   C897      1.0  0.52628  0.85391  0.98650  1.0000
  C   C898      1.0  0.73010  0.97650  0.09228  1.0000
  Fe  Fe151     1.0  0.61081  0.61606  0.99129  1.0000
  C   C899      1.0  0.50218  0.60966  0.00382  1.0000
  H   H900      1.0  0.65541  0.98134  0.04472  1.0000
  C   C900      1.0  0.63387  0.50151  0.07344  1.0000
  Fe  Fe152     1.0  0.67103  0.99283  0.10234  1.0000
  H   H901      1.0  0.50936  0.81392  0.99305  1.0000
  C   C901      1.0  0.49855  0.83137  0.03921  1.0000
  H   H902      1.0  0.66383  0.59621  0.00111  1.0000
  C   C902      1.0  0.67324  0.58282  0.99285  1.0000
  N   N75       1.0  0.65860  0.56489  0.98875  1.0000
  N   N76       1.0  0.50290  0.84839  0.98517  1.0000
  C   C903      1.0  0.49698  0.82676  0.98872  1.0000
  H   H903      1.0  0.52814  0.87195  0.98842  1.0000
  H   H904      1.0  0.63217  0.80921  0.98342  1.0000
  C   C904      1.0  0.64165  0.99329  0.04227  1.0000
  N   N77       1.0  0.74399  0.99333  0.09525  1.0000
  S   S305      1.0  0.77649  0.95835  0.39105  1.0000
  Fe  Fe153     1.0  0.88989  0.60014  0.45290  1.0000
  S   S306      1.0  0.87548  0.61494  0.42348  1.0000
  S   S307      1.0  0.92400  0.60279  0.46622  1.0000
  H   H905      1.0  0.90626  0.76358  0.45759  1.0000
  S   S308      1.0  0.82648  0.60016  0.44315  1.0000
  C   C905      1.0  0.82823  0.92427  0.45013  1.0000
  Fe  Fe154     1.0  0.85459  0.58401  0.42455  1.0000
  S   S309      1.0  0.84973  0.56213  0.39716  1.0000
  Fe  Fe155     1.0  0.84845  0.62986  0.44454  1.0000
  S   S310      1.0  0.83273  0.66558  0.44272  1.0000
  S   S311      1.0  0.87158  0.56848  0.45209  1.0000
  H   H906      1.0  0.98313  0.61957  0.39711  1.0000
  N   N78       1.0  0.82503  0.96317  0.42497  1.0000
  S   S312      1.0  0.83028  0.82653  0.44095  1.0000
  H   H907      1.0  0.97319  0.84920  0.41557  1.0000
  Fe  Fe156     1.0  0.88938  0.83469  0.46086  1.0000
  S   S313      1.0  0.88358  0.82673  0.42844  1.0000
  C   C906      1.0  0.96530  0.79421  0.41443  1.0000
  Fe  Fe157     1.0  0.85493  0.85250  0.42990  1.0000
  S   S314      1.0  0.85168  0.88071  0.40467  1.0000
  Fe  Fe158     1.0  0.85952  0.80133  0.44241  1.0000
  S   S315      1.0  0.86847  0.76541  0.43280  1.0000
  S   S316      1.0  0.86291  0.86227  0.46154  1.0000
  C   C907      1.0  0.82349  0.98368  0.41170  1.0000
  C   C908      1.0  0.84356  0.69304  0.44133  1.0000
  C   C909      1.0  0.82915  0.71135  0.44603  1.0000
  C   C910      1.0  0.83654  0.73346  0.44416  1.0000
  C   C911      1.0  0.85843  0.73772  0.43707  1.0000
  C   C912      1.0  0.87285  0.71940  0.43236  1.0000
  C   C913      1.0  0.86560  0.69726  0.43466  1.0000
  H   H908      1.0  0.81205  0.70845  0.45112  1.0000
  H   H909      1.0  0.82511  0.74722  0.44774  1.0000
  H   H910      1.0  0.88978  0.72235  0.42676  1.0000
  H   H911      1.0  0.87694  0.68352  0.43085  1.0000
  C   C914      1.0  0.97185  0.84455  0.43190  1.0000
  C   C915      1.0  0.95060  0.84285  0.44198  1.0000
  C   C916      1.0  0.94867  0.83687  0.46310  1.0000
  H   H912      1.0  0.97677  0.80033  0.40215  1.0000
  H   H913      1.0  0.84583  0.65965  0.40050  1.0000
  H   H914      1.0  0.93575  0.84627  0.43344  1.0000
  C   C917      1.0  0.78687  0.60899  0.40399  1.0000
  C   C918      1.0  0.96967  0.60145  0.46643  1.0000
  C   C919      1.0  0.95112  0.59691  0.45526  1.0000
  C   C920      1.0  0.95467  0.58786  0.43597  1.0000
  H   H915      1.0  0.98760  0.63689  0.42769  1.0000
  S   S317      1.0  0.86647  0.80879  0.47486  1.0000
  H   H916      1.0  0.94055  0.58417  0.42727  1.0000
  H   H917      1.0  0.96336  0.77978  0.46564  1.0000
  C   C921      1.0  0.79651  0.52086  0.40377  1.0000
  C   C922      1.0  0.81151  0.53765  0.40720  1.0000
  C   C923      1.0  0.83072  0.54040  0.39429  1.0000
  C   C924      1.0  0.83470  0.52588  0.37811  1.0000
  C   C925      1.0  0.97278  0.78942  0.43421  1.0000
  H   H918      1.0  0.80803  0.54862  0.41968  1.0000
  H   H919      1.0  0.84935  0.52785  0.36787  1.0000
  C   C926      1.0  0.84196  0.64940  0.38752  1.0000
  C   C927      1.0  0.79690  0.93594  0.39308  1.0000
  C   C928      1.0  0.81745  0.93623  0.38193  1.0000
  C   C929      1.0  0.83371  0.91891  0.38529  1.0000
  C   C930      1.0  0.82980  0.90113  0.39994  1.0000
  C   C931      1.0  0.80906  0.90060  0.41077  1.0000
  C   C932      1.0  0.79274  0.91783  0.40729  1.0000
  H   H920      1.0  0.82089  0.94984  0.37077  1.0000
  H   H921      1.0  0.84957  0.91943  0.37664  1.0000
  H   H922      1.0  0.80563  0.88699  0.42193  1.0000
  H   H923      1.0  0.77687  0.91727  0.41591  1.0000
  H   H924      1.0  0.79444  0.93254  0.46050  1.0000
  H   H925      1.0  0.77297  0.59853  0.40847  1.0000
  H   H926      1.0  0.79187  0.96706  0.43797  1.0000
  C   C933      1.0  0.84433  0.95026  0.42446  1.0000
  C   C934      1.0  0.94289  0.79182  0.41074  1.0000
  C   C935      1.0  0.80741  0.95721  0.43803  1.0000
  C   C936      1.0  0.80873  0.93770  0.45079  1.0000
  C   C937      1.0  0.84617  0.93057  0.43691  1.0000
  C   C938      1.0  0.81996  0.50876  0.37498  1.0000
  C   C939      1.0  0.80060  0.50617  0.38772  1.0000
  H   H927      1.0  0.83787  0.66071  0.37403  1.0000
  N   N79       1.0  0.93578  0.77974  0.44628  1.0000
  H   H928      1.0  0.93674  0.79589  0.39553  1.0000
  H   H929      1.0  0.91086  0.78282  0.42397  1.0000
  C   C940      1.0  0.92829  0.78449  0.42694  1.0000
  H   H930      1.0  0.78161  0.51918  0.41374  1.0000
  H   H931      1.0  0.80508  0.66079  0.40950  1.0000
  H   H932      1.0  0.86100  0.91971  0.43559  1.0000
  C   C941      1.0  0.80501  0.60057  0.39219  1.0000
  Fe  Fe159     1.0  0.84416  0.58562  0.47069  1.0000
  H   H933      1.0  0.85735  0.63931  0.38362  1.0000
  S   S318      1.0  0.86350  0.61616  0.47380  1.0000
  C   C942      1.0  0.82313  0.61399  0.38704  1.0000
  H   H934      1.0  0.85811  0.95469  0.41379  1.0000
  H   H935      1.0  0.96708  0.60839  0.48140  1.0000
  H   H936      1.0  0.99003  0.79192  0.43736  1.0000
  H   H937      1.0  0.82340  0.49778  0.36250  1.0000
  Fe  Fe160     1.0  0.83952  0.83565  0.47260  1.0000
  H   H938      1.0  0.83994  0.50478  0.42994  1.0000
  C   C943      1.0  0.78689  0.63079  0.41021  1.0000
  H   H939      1.0  0.80530  0.58357  0.38740  1.0000
  N   N80       1.0  0.82313  0.63527  0.39342  1.0000
  C   C944      1.0  0.99156  0.59702  0.45846  1.0000
  H   H940      1.0  0.77302  0.63749  0.41960  1.0000
  H   H941      1.0  0.97914  0.57614  0.41318  1.0000
  H   H942      1.0  0.83733  0.60706  0.37821  1.0000
  C   C945      1.0  0.97657  0.58332  0.42804  1.0000
  C   C946      1.0  0.80517  0.64385  0.40456  1.0000
  C   C947      1.0  0.96813  0.83258  0.47398  1.0000
  H   H943      1.0  0.82915  0.90861  0.45926  1.0000
  S   S319      1.0  0.92240  0.83425  0.47650  1.0000
  H   H944      1.0  0.80586  0.98902  0.40923  1.0000
  C   C948      1.0  0.95762  0.78250  0.45012  1.0000
  C   C949      1.0  0.92006  0.77296  0.46324  1.0000
  C   C950      1.0  0.98936  0.83399  0.46385  1.0000
  H   H945      1.0  0.91281  0.78796  0.47064  1.0000
  Fe  Fe161     1.0  0.77656  0.99135  0.37128  1.0000
  C   C951      1.0  0.99131  0.83995  0.44274  1.0000
  H   H946      1.0  0.92836  0.76191  0.47503  1.0000
  H   H947      1.0  0.83135  0.98098  0.39613  1.0000
  H   H948      1.0  0.87097  0.49410  0.40536  1.0000
  Fe  Fe162     1.0  0.79005  0.93285  0.63665  1.0000
  S   S320      1.0  0.75617  0.94854  0.63107  1.0000
  S   S321      1.0  0.80190  0.93577  0.66876  1.0000
  Fe  Fe163     1.0  0.79703  0.91886  0.59205  1.0000
  S   S322      1.0  0.76335  0.93290  0.58372  1.0000
  S   S323      1.0  0.82406  0.90832  0.56845  1.0000
  Fe  Fe164     1.0  0.77238  0.96243  0.60109  1.0000
  N   N81       1.0  0.87488  0.56936  0.53033  1.0000
  Fe  Fe165     1.0  0.75057  0.91750  0.61465  1.0000
  S   S324      1.0  0.72221  0.89300  0.62075  1.0000
  S   S325      1.0  0.80637  0.94895  0.60818  1.0000
  S   S326      1.0  0.78416  0.90127  0.62154  1.0000
  N   N82       1.0  0.76465  0.88685  0.68327  1.0000
  S   S327      1.0  0.58820  0.58181  0.70900  1.0000
  H   H949      1.0  0.49822  0.56557  0.66389  1.0000
  Fe  Fe166     1.0  0.58023  0.64672  0.70982  1.0000
  S   S328      1.0  0.58152  0.62860  0.68032  1.0000
  H   H950      1.0  0.87586  0.57001  0.49765  1.0000
  Fe  Fe167     1.0  0.55909  0.60406  0.69814  1.0000
  S   S329      1.0  0.52861  0.58848  0.68563  1.0000
  Fe  Fe168     1.0  0.61042  0.60783  0.69363  1.0000
  S   S330      1.0  0.64631  0.60314  0.67975  1.0000
  S   S331      1.0  0.82830  0.56143  0.49446  1.0000
  H   H951      1.0  0.54242  0.54101  0.72614  1.0000
  C   C952      1.0  0.84535  0.98742  0.54800  1.0000
  S   S332      1.0  0.58403  0.86436  0.71266  1.0000
  H   H952      1.0  0.87810  0.60195  0.54084  1.0000
  Fe  Fe169     1.0  0.59506  0.80730  0.68976  1.0000
  S   S333      1.0  0.58185  0.83748  0.67110  1.0000
  S   S334      1.0  0.60120  0.77465  0.67413  1.0000
  Fe  Fe170     1.0  0.60813  0.85619  0.68607  1.0000
  S   S335      1.0  0.62979  0.88566  0.67482  1.0000
  Fe  Fe171     1.0  0.55909  0.84271  0.69933  1.0000
  S   S336      1.0  0.52211  0.85478  0.70117  1.0000
  S   S337      1.0  0.62267  0.82564  0.70251  1.0000
  S   S338      1.0  0.57125  0.81181  0.71713  1.0000
  Fe  Fe172     1.0  0.79541  0.52543  0.64631  1.0000
  H   H953      1.0  0.50456  0.90144  0.68885  1.0000
  S   S339      1.0  0.81388  0.52395  0.67597  1.0000
  Fe  Fe173     1.0  0.78570  0.55030  0.60595  1.0000
  S   S340      1.0  0.76081  0.52587  0.59812  1.0000
  S   S341      1.0  0.79363  0.58095  0.58558  1.0000
  Fe  Fe174     1.0  0.74821  0.52717  0.63135  1.0000
  S   S342      1.0  0.71074  0.52752  0.64044  1.0000
  H   H954      1.0  0.74355  0.57465  0.58419  1.0000
  S   S343      1.0  0.77131  0.55371  0.63838  1.0000
  S   S344      1.0  0.81193  0.52424  0.61440  1.0000
  C   C953      1.0  0.80154  0.57611  0.55968  1.0000
  C   C954      1.0  0.80055  0.55484  0.55233  1.0000
  C   C955      1.0  0.80814  0.55089  0.53203  1.0000
  C   C956      1.0  0.81703  0.56806  0.51901  1.0000
  C   C957      1.0  0.81773  0.58946  0.52620  1.0000
  C   C958      1.0  0.80985  0.59349  0.54650  1.0000
  H   H955      1.0  0.79425  0.54132  0.56235  1.0000
  H   H956      1.0  0.82451  0.60279  0.51623  1.0000
  H   H957      1.0  0.81062  0.61000  0.55212  1.0000
  H   H958      1.0  0.96679  0.82804  0.49033  1.0000
  H   H959      1.0  0.49802  0.52806  0.72350  1.0000
  C   C959      1.0  0.59673  0.74869  0.68762  1.0000
  C   C960      1.0  0.60114  0.72891  0.67737  1.0000
  C   C961      1.0  0.59482  0.70821  0.68663  1.0000
  C   C962      1.0  0.58410  0.70721  0.70627  1.0000
  H   H960      1.0  0.86220  0.98433  0.55294  1.0000
  C   C963      1.0  0.58702  0.74750  0.70764  1.0000
  H   H961      1.0  0.60883  0.72968  0.66193  1.0000
  H   H962      1.0  0.59748  0.69321  0.67830  1.0000
  H   H963      1.0  0.64306  0.90876  0.71777  1.0000
  H   H964      1.0  0.58371  0.76253  0.71578  1.0000
  C   C964      1.0  0.66407  0.58121  0.67011  1.0000
  C   C965      1.0  0.68685  0.58511  0.66594  1.0000
  C   C966      1.0  0.70153  0.56867  0.65751  1.0000
  C   C967      1.0  0.69357  0.54805  0.65304  1.0000
  C   C968      1.0  0.67087  0.54401  0.65758  1.0000
  C   C969      1.0  0.65621  0.56043  0.66609  1.0000
  H   H965      1.0  0.69315  0.60110  0.66899  1.0000
  H   H966      1.0  0.71888  0.57211  0.65407  1.0000
  H   H967      1.0  0.66449  0.52817  0.65415  1.0000
  H   H968      1.0  0.63877  0.55713  0.66916  1.0000
  H   H969      1.0  0.79483  0.96392  0.55045  1.0000
  C   C970      1.0  0.75867  0.86221  0.65646  1.0000
  H   H970      1.0  0.80757  0.53430  0.52654  1.0000
  H   H971      1.0  0.55941  0.92542  0.69755  1.0000
  H   H972      1.0  0.65478  0.55831  0.71220  1.0000
  Fe  Fe175     1.0  0.78636  0.49936  0.60840  1.0000
  C   C971      1.0  0.69710  0.89120  0.63675  1.0000
  C   C972      1.0  0.68768  0.90925  0.64726  1.0000
  C   C973      1.0  0.66727  0.90714  0.65897  1.0000
  C   C974      1.0  0.65613  0.88691  0.66065  1.0000
  C   C975      1.0  0.66586  0.86871  0.65060  1.0000
  C   C976      1.0  0.68609  0.87091  0.63865  1.0000
  H   H973      1.0  0.69578  0.92501  0.64591  1.0000
  H   H974      1.0  0.65994  0.92141  0.66655  1.0000
  H   H975      1.0  0.65758  0.85304  0.65161  1.0000
  H   H976      1.0  0.69311  0.85681  0.63059  1.0000
  C   C977      1.0  0.81507  0.86197  0.51620  1.0000
  C   C978      1.0  0.79814  0.86442  0.53174  1.0000
  C   C979      1.0  0.80009  0.87942  0.54734  1.0000
  C   C980      1.0  0.81912  0.89195  0.54756  1.0000
  C   C981      1.0  0.83566  0.89011  0.53159  1.0000
  C   C982      1.0  0.83361  0.87526  0.51592  1.0000
  H   H977      1.0  0.78370  0.85424  0.53202  1.0000
  H   H978      1.0  0.78723  0.88072  0.55955  1.0000
  H   H979      1.0  0.85041  0.89978  0.53165  1.0000
  H   H980      1.0  0.84670  0.87360  0.50403  1.0000
  C   C983      1.0  0.84261  0.87644  0.69643  1.0000
  C   C984      1.0  0.83886  0.87813  0.67525  1.0000
  C   C985      1.0  0.82656  0.89637  0.66663  1.0000
  C   C986      1.0  0.81822  0.91325  0.67909  1.0000
  C   C987      1.0  0.82226  0.91181  0.70023  1.0000
  C   C988      1.0  0.83427  0.89332  0.70895  1.0000
  H   H981      1.0  0.84543  0.86519  0.66549  1.0000
  H   H982      1.0  0.82369  0.89740  0.65031  1.0000
  H   H983      1.0  0.81595  0.92491  0.70994  1.0000
  C   C989      1.0  0.83799  0.58666  0.70357  1.0000
  C   C990      1.0  0.82842  0.58825  0.68424  1.0000
  C   C991      1.0  0.82151  0.56910  0.67527  1.0000
  C   C992      1.0  0.82443  0.54815  0.68546  1.0000
  C   C993      1.0  0.83490  0.54647  0.70432  1.0000
  C   C994      1.0  0.84150  0.56563  0.71342  1.0000
  H   H984      1.0  0.82581  0.60443  0.67642  1.0000
  H   H985      1.0  0.81369  0.57058  0.66062  1.0000
  H   H986      1.0  0.83738  0.53031  0.71221  1.0000
  C   C995      1.0  0.77637  0.84830  0.66304  1.0000
  S   S345      1.0  0.77152  0.49850  0.64113  1.0000
  C   C996      1.0  0.52592  0.75428  0.71146  1.0000
  C   C997      1.0  0.57738  0.89753  0.65558  1.0000
  H   H987      1.0  0.79168  0.60850  0.70767  1.0000
  H   H988      1.0  0.74958  0.85837  0.64317  1.0000
  N   N83       1.0  0.54553  0.74767  0.67248  1.0000
  C   C998      1.0  0.75300  0.88153  0.66684  1.0000
  C   C999      1.0  0.64949  0.89821  0.73039  1.0000
  H   H989      1.0  0.55700  0.87659  0.63923  1.0000
  C   C1000     1.0  0.49882  0.59137  0.68538  1.0000
  H   H990      1.0  0.67228  0.61750  0.62342  1.0000
  H   H991      1.0  0.88132  0.84768  0.50619  1.0000
  H   H992      1.0  0.65275  0.58234  0.62091  1.0000
  H   H993      1.0  0.71283  0.55222  0.59475  1.0000
  H   H994      1.0  0.54267  0.74665  0.64017  1.0000
  C   C1001     1.0  0.68089  0.60340  0.61640  1.0000
  H   H995      1.0  0.54763  0.78300  0.66921  1.0000
  H   H996      1.0  0.81961  0.81241  0.54716  1.0000
  N   N84       1.0  0.71435  0.58648  0.60130  1.0000
  S   S346      1.0  0.84334  0.61136  0.71572  1.0000
  C   C1002     1.0  0.53846  0.89194  0.66441  1.0000
  H   H997      1.0  0.52324  0.88374  0.66166  1.0000
  H   H998      1.0  0.52230  0.90272  0.70991  1.0000
  H   H999      1.0  0.90242  0.84348  0.52486  1.0000
  C   C1003     1.0  0.73798  0.58786  0.59482  1.0000
  C   C1004     1.0  0.78786  0.85361  0.68009  1.0000
  C   C1005     1.0  0.80755  0.97594  0.54651  1.0000
  C   C1006     1.0  0.66989  0.58365  0.61496  1.0000
  H   H1000     1.0  0.78552  0.97870  0.65081  1.0000
  C   C1007     1.0  0.55751  0.88776  0.65170  1.0000
  C   C1008     1.0  0.82924  0.97162  0.55271  1.0000
  C   C1009     1.0  0.78154  0.87291  0.69025  1.0000
  C   C1010     1.0  0.51933  0.90971  0.69402  1.0000
  C   C1011     1.0  0.55556  0.74430  0.65178  1.0000
  C   C1012     1.0  0.53900  0.72976  0.68493  1.0000
  C   C1013     1.0  0.81769  0.99305  0.65041  1.0000
  H   H1001     1.0  0.79065  0.87693  0.70342  1.0000
  H   H1002     1.0  0.78067  0.58548  0.69597  1.0000
  H   H1003     1.0  0.82565  0.97825  0.65762  1.0000
  C   C1014     1.0  0.64985  0.87513  0.72936  1.0000
  H   H1004     1.0  0.67332  0.54951  0.60651  1.0000
  C   C1015     1.0  0.70380  0.56692  0.60020  1.0000
  H   H1005     1.0  0.80187  0.84310  0.68526  1.0000
  C   C1016     1.0  0.50009  0.54510  0.71643  1.0000
  H   H1006     1.0  0.59350  0.91864  0.67537  1.0000
  C   C1017     1.0  0.68137  0.56528  0.60678  1.0000
  H   H1007     1.0  0.64354  0.86776  0.71609  1.0000
  H   H1008     1.0  0.74836  0.58604  0.60850  1.0000
  S   S347      1.0  0.81351  0.84068  0.49871  1.0000
  H   H1009     1.0  0.59247  0.89405  0.64617  1.0000
  H   H1010     1.0  0.83345  0.95612  0.56127  1.0000
  C   C1018     1.0  0.88646  0.57421  0.51025  1.0000
  C   C1019     1.0  0.70329  0.60451  0.60949  1.0000
  H   H1011     1.0  0.51012  0.54418  0.70160  1.0000
  H   H1012     1.0  0.50771  0.81802  0.67722  1.0000
  C   C1020     1.0  0.83388  0.82242  0.54908  1.0000
  H   H1013     1.0  0.86835  0.53619  0.52325  1.0000
  H   H1014     1.0  0.85150  0.86190  0.57909  1.0000
  C   C1021     1.0  0.86695  0.54857  0.53479  1.0000
  C   C1022     1.0  0.58073  0.72685  0.71689  1.0000
  C   C1023     1.0  0.85613  0.54328  0.55394  1.0000
  C   C1024     1.0  0.86127  0.58067  0.56372  1.0000
  C   C1025     1.0  0.85326  0.55948  0.56845  1.0000
  C   C1026     1.0  0.75833  0.90721  0.69382  1.0000
  H   H1015     1.0  0.73941  0.89242  0.66145  1.0000
  H   H1016     1.0  0.89031  0.59209  0.50766  1.0000
  H   H1017     1.0  0.74321  0.90460  0.70405  1.0000
  N   N85       1.0  0.86912  0.83607  0.53590  1.0000
  C   C1027     1.0  0.85164  0.82256  0.53429  1.0000
  C   C1028     1.0  0.86930  0.84993  0.55187  1.0000
  H   H1018     1.0  0.85084  0.81246  0.52106  1.0000
  C   C1029     1.0  0.85179  0.85023  0.56693  1.0000
  C   C1030     1.0  0.83397  0.83640  0.56546  1.0000
  C   C1031     1.0  0.88685  0.83687  0.51955  1.0000
  H   H1019     1.0  0.56355  0.72737  0.65085  1.0000
  H   H1020     1.0  0.88265  0.86135  0.55271  1.0000
  N   N86       1.0  0.53921  0.90553  0.68053  1.0000
  H   H1021     1.0  0.74142  0.60406  0.58643  1.0000
  H   H1022     1.0  0.85848  0.59352  0.57472  1.0000
  H   H1023     1.0  0.84920  0.52701  0.55720  1.0000
  H   H1024     1.0  0.84885  0.56411  0.72824  1.0000
  H   H1025     1.0  0.54214  0.71291  0.68006  1.0000
  N   N87       1.0  0.78830  0.57943  0.72762  1.0000
  H   H1026     1.0  0.90242  0.56431  0.50899  1.0000
  H   H1027     1.0  0.56899  0.75625  0.64791  1.0000
  H   H1028     1.0  0.71189  0.61977  0.61100  1.0000
  Fe  Fe176     1.0  0.59765  0.83304  0.72832  1.0000
  C   C1032     1.0  0.55867  0.91508  0.68450  1.0000
  C   C1033     1.0  0.87218  0.58535  0.54449  1.0000
  H   H1029     1.0  0.89118  0.81998  0.51413  1.0000
  C   C1034     1.0  0.57798  0.91134  0.67204  1.0000
  H   H1030     1.0  0.75507  0.92126  0.68235  1.0000
  C   C1035     1.0  0.78049  0.59425  0.71058  1.0000
  H   H1031     1.0  0.84409  0.55589  0.58304  1.0000
  S   S348      1.0  0.85753  0.85276  0.70635  1.0000
  H   H1032     1.0  0.81984  0.83720  0.57651  1.0000
  H   H1033     1.0  0.76331  0.60073  0.71437  1.0000
  C   C1036     1.0  0.54211  0.76883  0.67895  1.0000
  H   H1034     1.0  0.77202  0.91242  0.70315  1.0000
  H   H1035     1.0  0.78122  0.83350  0.65487  1.0000
  H   H1036     1.0  0.83726  0.89221  0.72526  1.0000
  H   H1037     1.0  0.78114  0.54963  0.71332  1.0000
  H   H1038     1.0  0.68374  0.56515  0.71090  1.0000
  C   C1037     1.0  0.52927  0.73277  0.70465  1.0000
  S   S349      1.0  0.57150  0.68280  0.71684  1.0000
  C   C1038     1.0  0.67035  0.55717  0.72079  1.0000
  N   N88       1.0  0.51122  0.55871  0.73047  1.0000
  H   H1039     1.0  0.52522  0.71839  0.71481  1.0000
  H   H1040     1.0  0.51528  0.92785  0.69436  1.0000
  H   H1041     1.0  0.67486  0.53918  0.72349  1.0000
  S   S350      1.0  0.61028  0.62803  0.72187  1.0000
  C   C1039     1.0  0.78688  0.55684  0.72693  1.0000
  C   C1040     1.0  0.53220  0.77247  0.69850  1.0000
  H   H1042     1.0  0.64868  0.59583  0.72615  1.0000
  S   S351      1.0  0.55643  0.62323  0.72661  1.0000
  H   H1043     1.0  0.52982  0.78927  0.70370  1.0000
  H   H1044     1.0  0.57250  0.72621  0.73211  1.0000
  H   H1045     1.0  0.51884  0.75683  0.72688  1.0000
  C   C1041     1.0  0.79510  0.99325  0.64653  1.0000
  H   H1046     1.0  0.88713  0.72202  0.72989  1.0000
  C   C1042     1.0  0.49546  0.84509  0.69540  1.0000
  Fe  Fe177     1.0  0.66922  0.89840  0.87522  1.0000
  S   S352      1.0  0.69724  0.92208  0.87079  1.0000
  S   S353      1.0  0.66965  0.87515  0.90402  1.0000
  Fe  Fe178     1.0  0.64897  0.91545  0.83529  1.0000
  S   S354      1.0  0.67510  0.94087  0.82880  1.0000
  S   S355      1.0  0.62290  0.91529  0.81139  1.0000
  Fe  Fe179     1.0  0.69960  0.91272  0.83752  1.0000
  S   S356      1.0  0.72744  0.90429  0.81302  1.0000
  Fe  Fe180     1.0  0.67004  0.94786  0.86253  1.0000
  C   C1043     1.0  0.61115  0.81420  0.94283  1.0000
  S   S357      1.0  0.67327  0.88723  0.84271  1.0000
  S   S358      1.0  0.64220  0.92423  0.86838  1.0000
  Fe  Fe181     1.0  0.65953  0.53164  0.87628  1.0000
  H   H1047     1.0  0.67904  0.56230  0.79057  1.0000
  S   S359      1.0  0.63129  0.54358  0.89795  1.0000
  Fe  Fe182     1.0  0.66720  0.51546  0.83263  1.0000
  S   S360      1.0  0.69329  0.51879  0.88571  1.0000
  S   S361      1.0  0.65404  0.51262  0.80088  1.0000
  C   C1044     1.0  0.68784  0.91461  0.93579  1.0000
  Fe  Fe183     1.0  0.70634  0.53265  0.85429  1.0000
  S   S362      1.0  0.73391  0.55779  0.84681  1.0000
  C   C1045     1.0  0.88438  0.53015  0.80366  1.0000
  S   S363      1.0  0.67262  0.54793  0.84633  1.0000
  Fe  Fe184     1.0  0.90121  0.59887  0.77115  1.0000
  H   H1048     1.0  0.61883  0.59726  0.88832  1.0000
  S   S364      1.0  0.93697  0.58408  0.76729  1.0000
  Fe  Fe185     1.0  0.85334  0.58945  0.79048  1.0000
  S   S365      1.0  0.83842  0.62043  0.77479  1.0000
  S   S366      1.0  0.83432  0.56114  0.80791  1.0000
  H   H1049     1.0  0.88024  0.71438  0.80921  1.0000
  C   C1046     1.0  0.56892  0.61824  0.94397  1.0000
  Fe  Fe186     1.0  0.86938  0.63724  0.78296  1.0000
  S   S367      1.0  0.87307  0.67007  0.79789  1.0000
  S   S368      1.0  0.87290  0.57857  0.76204  1.0000
  S   S369      1.0  0.88294  0.60692  0.80104  1.0000
  Fe  Fe187     1.0  0.84742  0.84215  0.78583  1.0000
  S   S370      1.0  0.83250  0.82790  0.75884  1.0000
  S   S371      1.0  0.82449  0.85490  0.81246  1.0000
  Fe  Fe188     1.0  0.89590  0.82680  0.77192  1.0000
  S   S372      1.0  0.88324  0.81186  0.74405  1.0000
  S   S373      1.0  0.93270  0.81634  0.77765  1.0000
  H   H1050     1.0  0.67171  0.86073  0.77551  1.0000
  C   C1047     1.0  0.54395  0.56592  0.74828  1.0000
  Fe  Fe189     1.0  0.85562  0.79821  0.76466  1.0000
  S   S374      1.0  0.84168  0.76476  0.75894  1.0000
  S   S375      1.0  0.87545  0.85907  0.76681  1.0000
  S   S376      1.0  0.86897  0.81111  0.79301  1.0000
  S   S377      1.0  0.61005  0.83000  0.76073  1.0000
  H   H1051     1.0  0.97456  0.86314  0.82063  1.0000
  Fe  Fe190     1.0  0.58679  0.60316  0.73623  1.0000
  C   C1048     1.0  0.97867  0.81644  0.77291  1.0000
  C   C1049     1.0  0.95883  0.82973  0.77452  1.0000
  C   C1050     1.0  0.96057  0.85275  0.77560  1.0000
  H   H1052     1.0  0.88979  0.68423  0.74568  1.0000
  C   C1051     1.0  0.79130  0.79305  0.78443  1.0000
  H   H1053     1.0  0.97766  0.79863  0.77202  1.0000
  H   H1054     1.0  0.94558  0.86328  0.77685  1.0000
  C   C1052     1.0  0.86362  0.69624  0.78727  1.0000
  C   C1053     1.0  0.85039  0.69807  0.77016  1.0000
  C   C1054     1.0  0.84361  0.71921  0.76185  1.0000
  C   C1055     1.0  0.85025  0.73867  0.77035  1.0000
  C   C1056     1.0  0.86352  0.73688  0.78744  1.0000
  C   C1057     1.0  0.87003  0.71571  0.79594  1.0000
  H   H1055     1.0  0.84528  0.68318  0.76342  1.0000
  H   H1056     1.0  0.54068  0.59263  0.76903  1.0000
  H   H1057     1.0  0.86871  0.75174  0.79412  1.0000
  H   H1058     1.0  0.94531  0.57203  0.81194  1.0000
  H   H1059     1.0  0.92873  0.70581  0.78005  1.0000
  C   C1058     1.0  0.98305  0.58383  0.76516  1.0000
  C   C1059     1.0  0.96329  0.59504  0.77218  1.0000
  C   C1060     1.0  0.96505  0.61389  0.78355  1.0000
  H   H1060     1.0  0.68498  0.54336  0.75794  1.0000
  N   N89       1.0  0.90785  0.71162  0.75460  1.0000
  H   H1061     1.0  0.95010  0.62266  0.78919  1.0000
  C   C1061     1.0  0.89749  0.57101  0.84227  1.0000
  C   C1062     1.0  0.76138  0.55803  0.83478  1.0000
  C   C1063     1.0  0.77436  0.53856  0.83153  1.0000
  C   C1064     1.0  0.79652  0.53983  0.82317  1.0000
  C   C1065     1.0  0.80592  0.56052  0.81759  1.0000
  C   C1066     1.0  0.79275  0.57995  0.82030  1.0000
  C   C1067     1.0  0.77076  0.57868  0.82901  1.0000
  H   H1062     1.0  0.76753  0.52255  0.83598  1.0000
  H   H1063     1.0  0.80648  0.52465  0.82122  1.0000
  H   H1064     1.0  0.79967  0.59601  0.81627  1.0000
  H   H1065     1.0  0.76099  0.59388  0.83154  1.0000
  C   C1068     1.0  0.63462  0.56192  0.91755  1.0000
  C   C1069     1.0  0.61759  0.56383  0.93300  1.0000
  C   C1070     1.0  0.61839  0.57974  0.94784  1.0000
  C   C1071     1.0  0.63608  0.59411  0.94717  1.0000
  C   C1072     1.0  0.65332  0.59202  0.93189  1.0000
  C   C1073     1.0  0.65269  0.57583  0.91717  1.0000
  H   H1066     1.0  0.60351  0.55317  0.93328  1.0000
  H   H1067     1.0  0.59542  0.81489  0.95180  1.0000
  H   H1068     1.0  0.66580  0.57457  0.90517  1.0000
  C   C1074     1.0  0.63505  0.53398  0.79252  1.0000
  C   C1075     1.0  0.62636  0.54974  0.80606  1.0000
  C   C1076     1.0  0.61210  0.56726  0.79893  1.0000
  H   H1069     1.0  0.68012  0.59090  0.97819  1.0000
  C   C1077     1.0  0.61529  0.55361  0.76456  1.0000
  C   C1078     1.0  0.62921  0.53577  0.77182  1.0000
  H   H1070     1.0  0.63058  0.54840  0.82206  1.0000
  H   H1071     1.0  0.60543  0.57937  0.80953  1.0000
  H   H1072     1.0  0.89568  0.51614  0.79877  1.0000
  H   H1073     1.0  0.63582  0.52357  0.76130  1.0000
  C   C1079     1.0  0.75450  0.89069  0.81339  1.0000
  C   C1080     1.0  0.76451  0.88354  0.83171  1.0000
  C   C1081     1.0  0.78601  0.87299  0.83109  1.0000
  C   C1082     1.0  0.79779  0.86922  0.81220  1.0000
  C   C1083     1.0  0.78769  0.87616  0.79386  1.0000
  C   C1084     1.0  0.76627  0.88687  0.79449  1.0000
  H   H1074     1.0  0.75582  0.88638  0.84638  1.0000
  H   H1075     1.0  0.79358  0.86776  0.84540  1.0000
  H   H1076     1.0  0.79644  0.87342  0.77920  1.0000
  H   H1077     1.0  0.75883  0.89238  0.78019  1.0000
  C   C1085     1.0  0.76656  0.82582  0.80467  1.0000
  H   H1078     1.0  0.63368  0.83206  0.89597  1.0000
  C   C1086     1.0  0.61911  0.89132  0.79776  1.0000
  C   C1087     1.0  0.62730  0.87030  0.80475  1.0000
  C   C1088     1.0  0.62398  0.85156  0.79346  1.0000
  C   C1089     1.0  0.61281  0.85376  0.77496  1.0000
  C   C1090     1.0  0.60476  0.87482  0.76793  1.0000
  C   C1091     1.0  0.60776  0.89349  0.77938  1.0000
  H   H1079     1.0  0.63587  0.86841  0.81899  1.0000
  H   H1080     1.0  0.63020  0.83530  0.79901  1.0000
  H   H1081     1.0  0.87030  0.52303  0.81329  1.0000
  H   H1082     1.0  0.60131  0.90970  0.77395  1.0000
  C   C1092     1.0  0.64629  0.87440  0.92152  1.0000
  C   C1093     1.0  0.62532  0.88271  0.91580  1.0000
  C   C1094     1.0  0.60674  0.88054  0.92972  1.0000
  C   C1095     1.0  0.60906  0.87031  0.94949  1.0000
  C   C1096     1.0  0.63015  0.86256  0.95541  1.0000
  C   C1097     1.0  0.64867  0.86444  0.94140  1.0000
  H   H1083     1.0  0.62330  0.89028  0.90048  1.0000
  H   H1084     1.0  0.59046  0.88656  0.92503  1.0000
  H   H1085     1.0  0.63211  0.85464  0.97059  1.0000
  H   H1086     1.0  0.66486  0.85794  0.94588  1.0000
  H   H1087     1.0  0.81217  0.77606  0.82436  1.0000
  H   H1088     1.0  0.60447  0.94798  0.93272  1.0000
  H   H1089     1.0  0.66768  0.81593  0.91194  1.0000
  H   H1090     1.0  0.59388  0.60610  0.87515  1.0000
  C   C1098     1.0  0.67592  0.55933  0.75786  1.0000
  H   H1091     1.0  0.74582  0.82794  0.77859  1.0000
  H   H1092     1.0  0.67171  0.94372  0.90748  1.0000
  C   C1099     1.0  0.62149  0.94139  0.93356  1.0000
  Fe  Fe191     1.0  0.86121  0.84269  0.74018  1.0000
  C   C1100     1.0  0.62882  0.79600  0.97288  1.0000
  H   H1093     1.0  0.83327  0.72049  0.74866  1.0000
  C   C1101     1.0  0.65932  0.93877  0.91938  1.0000
  C   C1102     1.0  0.91193  0.75674  0.76013  1.0000
  H   H1094     1.0  0.69182  0.90668  0.77929  1.0000
  H   H1095     1.0  0.91335  0.77436  0.76244  1.0000
  H   H1096     1.0  0.96219  0.82576  0.82380  1.0000
  H   H1097     1.0  0.59574  0.64094  0.94375  1.0000
  C   C1103     1.0  0.89738  0.72716  0.74187  1.0000
  C   C1104     1.0  0.99100  0.85794  0.82678  1.0000
  C   C1105     1.0  0.66028  0.59011  0.77676  1.0000
  C   C1106     1.0  0.79377  0.54262  0.74339  1.0000
  C   C1107     1.0  0.92051  0.71815  0.76991  1.0000
  C   C1108     1.0  0.92892  0.56714  0.81795  1.0000
  H   H1098     1.0  0.98198  0.56919  0.75641  1.0000
  H   H1099     1.0  0.98736  0.63570  0.79689  1.0000
  H   H1100     1.0  0.66706  0.60313  0.93126  1.0000
  C   C1109     1.0  0.92267  0.74079  0.77295  1.0000
  C   C1110     1.0  0.88633  0.55555  0.83174  1.0000
  C   C1111     1.0  0.65724  0.90746  0.74785  1.0000
  N   N90       1.0  0.66509  0.89404  0.76380  1.0000
  H   H1101     1.0  0.79766  0.60628  0.74497  1.0000
  C   C1112     1.0  0.98433  0.79712  0.82059  1.0000
  N   N91       1.0  0.89638  0.54593  0.81489  1.0000
  H   H1102     1.0  0.76785  0.79820  0.76044  1.0000
  C   C1113     1.0  0.67368  0.90400  0.78173  1.0000
  H   H1103     1.0  0.66481  0.92016  0.78479  1.0000
  H   H1104     1.0  0.65697  0.59814  0.79119  1.0000
  C   C1114     1.0  0.78550  0.81554  0.81321  1.0000
  H   H1105     1.0  0.61219  0.78934  0.97740  1.0000
  C   C1115     1.0  0.65163  0.59948  0.75859  1.0000
  C   C1116     1.0  0.65540  0.58848  0.74027  1.0000
  H   H1106     1.0  0.50099  0.60154  0.76161  1.0000
  C   C1117     1.0  0.65006  0.80548  0.94056  1.0000
  H   H1107     1.0  0.64160  0.61490  0.75878  1.0000
  N   N92       1.0  0.62994  0.80499  0.95142  1.0000
  H   H1108     1.0  0.82877  0.78086  0.80073  1.0000
  H   H1109     1.0  0.69551  0.91311  0.91994  1.0000
  N   N93       1.0  0.66702  0.56845  0.74018  1.0000
  H   H1110     1.0  0.61502  0.92119  0.96158  1.0000
  C   C1118     1.0  0.77258  0.80314  0.77534  1.0000
  H   H1111     1.0  0.61384  0.62773  0.91142  1.0000
  H   H1112     1.0  0.68827  0.89748  0.94316  1.0000
  C   C1119     1.0  0.79616  0.58841  0.74455  1.0000
  C   C1120     1.0  0.64943  0.91800  0.95041  1.0000
  C   C1121     1.0  0.60675  0.56943  0.77814  1.0000
  H   H1113     1.0  0.56083  0.62388  0.95816  1.0000
  C   C1122     1.0  0.76021  0.81972  0.78553  1.0000
  C   C1123     1.0  0.91894  0.57681  0.83529  1.0000
  H   H1114     1.0  0.59607  0.87671  0.75379  1.0000
  C   C1124     1.0  0.56002  0.60102  0.93400  1.0000
  S   S378      1.0  0.58932  0.59214  0.76991  1.0000
  H   H1115     1.0  0.88931  0.57886  0.85540  1.0000
  C   C1125     1.0  0.89917  0.74992  0.74450  1.0000
  S   S379      1.0  0.66896  0.98045  0.87971  1.0000
  N   N94       1.0  0.79777  0.79961  0.80295  1.0000
  H   H1116     1.0  0.60495  0.58129  0.95937  1.0000
  H   H1117     1.0  0.61114  0.55509  0.74854  1.0000
  C   C1126     1.0  0.60042  0.59594  0.88845  1.0000
  C   C1127     1.0  0.58831  0.62798  0.93574  1.0000
  H   H1118     1.0  0.87735  0.53881  0.78978  1.0000
  H   H1119     1.0  0.92493  0.54489  0.79392  1.0000
  N   N95       1.0  0.66490  0.92378  0.93505  1.0000
  C   C1128     1.0  0.59851  0.62038  0.91746  1.0000
  H   H1120     1.0  0.59748  0.57807  0.88647  1.0000
  C   C1129     1.0  0.49965  0.57549  0.74023  1.0000
  H   H1121     1.0  0.86941  0.55162  0.83690  1.0000
  C   C1130     1.0  0.63132  0.53032  0.98147  1.0000
  H   H1122     1.0  0.75724  0.83888  0.81265  1.0000
  C   C1131     1.0  0.67269  0.57001  0.77640  1.0000
  H   H1123     1.0  0.54504  0.59330  0.94055  1.0000
  H   H1124     1.0  0.93244  0.74599  0.78524  1.0000
  C   C1132     1.0  0.66301  0.55263  0.97181  1.0000
  C   C1133     1.0  0.81739  0.78894  0.81238  1.0000
  H   H1125     1.0  0.69802  0.92554  0.94437  1.0000
  C   C1134     1.0  0.65805  0.86159  0.74560  1.0000
  H   H1126     1.0  0.91953  0.68261  0.73962  1.0000
  N   N96       1.0  0.58976  0.60336  0.90782  1.0000
  C   C1135     1.0  0.98175  0.86214  0.77579  1.0000
  C   C1136     1.0  0.53314  0.55398  0.73420  1.0000
  C   C1137     1.0  0.51005  0.58798  0.75419  1.0000
  H   H1127     1.0  0.90834  0.67748  0.76575  1.0000
  S   S380      1.0  0.58511  0.86638  0.96589  1.0000
  C   C1138     1.0  0.66580  0.87138  0.76275  1.0000
  C   C1139     1.0  0.62744  0.92649  0.94978  1.0000
  S   S381      1.0  0.88880  0.62974  0.75349  1.0000
  H   H1128     1.0  0.65389  0.90627  0.96295  1.0000
  H   H1129     1.0  0.80078  0.78015  0.77644  1.0000
  H   H1130     1.0  0.98277  0.87990  0.77710  1.0000
  H   H1131     1.0  0.59732  0.83147  0.91606  1.0000
  Fe  Fe192     1.0  0.85915  0.61002  0.74680  1.0000
  C   C1140     1.0  0.61211  0.82364  0.92262  1.0000
  C   C1141     1.0  0.57066  0.59379  0.91575  1.0000
  H   H1132     1.0  0.56372  0.58031  0.90812  1.0000
  H   H1133     1.0  0.82710  0.80154  0.81955  1.0000
  H   H1134     1.0  0.79073  0.82088  0.82782  1.0000
  H   H1135     1.0  0.67679  0.55662  0.96096  1.0000
  C   C1142     1.0  0.63250  0.82398  0.91135  1.0000
  H   H1136     1.0  0.56135  0.56216  0.75122  1.0000
  C   C1143     1.0  0.80176  0.55167  0.76074  1.0000
  C   C1144     1.0  0.91728  0.55175  0.80780  1.0000
  H   H1137     1.0  0.80910  0.58185  0.77474  1.0000
  C   C1145     1.0  0.65164  0.81492  0.92036  1.0000
  S   S382      1.0  0.63675  0.61522  0.96478  1.0000
  H   H1138     1.0  0.66510  0.79889  0.94761  1.0000
  C   C1146     1.0  0.53230  0.58301  0.75834  1.0000
  H   H1139     1.0  0.53616  0.84919  0.97237  1.0000
  S   S383      1.0  0.70127  0.50064  0.83913  1.0000
  H   H1140     1.0  0.63323  0.95945  0.90570  1.0000
  H   H1141     1.0  0.64119  0.78196  0.97539  1.0000
  C   C1147     1.0  0.97948  0.81976  0.82318  1.0000
  C   C1148     1.0  0.63755  0.94775  0.91835  1.0000
  H   H1142     1.0  0.80725  0.54094  0.77365  1.0000
  H   H1143     1.0  0.65670  0.92542  0.74869  1.0000
  H   H1144     1.0  0.92763  0.58917  0.84296  1.0000
  H   H1145     1.0  0.67096  0.89315  0.79597  1.0000
  C   C1149     1.0  0.80289  0.57469  0.76136  1.0000
  H   H1146     1.0  0.97092  0.78587  0.81926  1.0000
  H   H1147     1.0  0.79324  0.52472  0.74251  1.0000
  H   H1148     1.0  0.62039  0.51715  0.97840  1.0000
  C   C1150     1.0  0.90639  0.68786  0.75118  1.0000
  C   C1151     1.0  0.98625  0.62125  0.78791  1.0000
  H   H1149     1.0  0.65240  0.52621  0.95390  1.0000
  H   H1150     1.0  0.89026  0.76217  0.73477  1.0000
  C   C1152     1.0  0.64933  0.53532  0.96779  1.0000
  S   S384      1.0  0.65097  0.50035  0.86165  1.0000
  H   H1151     1.0  0.65765  0.84360  0.74522  1.0000
  H   H1152     1.0  0.99086  0.86126  0.84340  1.0000
