data_image0
_chemical_formula_structural       SFeSHFeSCHSFeS2FeS2FeSFeS4FeSHFeSFeS2H4CHC6H4C2H3CHCHC6H5C2HFeHCHCHNC6H4CH2CNC6H8NC6H2CHSH3CNC2HCHC2FeH2FeH4C4HSFeSFeS2FeCS3FeS2FeS2FeSFeS3FeCSFeS2H2S2C2H2FeCHC6H4C6H4C3H2SC3H2CNCHC2H5C2NCH4N2H2CHCHC2NSCH4CNC6H8FeC2H5C2FeHC3H2C4HCH2CHCFeS2FeS2FeSFeS3HCHSHC3H2C6H4C6H5CHNC2HC3H2CHSHCHCHSCH3CNC2H5C2H2C2HC2SFeS2FeS2FeHFeS4CHC6H4C6H4CH3CH2SC2NHC2HCSHCH6C2HC2H4CHNHNCHC3HC2SFeS2FeSFe2S2FeS2FeSFeS3FeSH2SFeSFeHSHC3HFeH2NH2C6H4C2HCHCNHSCHSC7H4CNH4CHFeCHC2HCH3CNHC3HCNCSC3H2NHC3H2SC4HSC2H3C2HC2H3CHCH2SCH2C2H3C3HCFeSFeS2NHS2FeS2FeS2FeSFeS3FeS2FeS2HFeS3H4C2FeC7H4CH2FeHC2H3C6H4C3HC4HC2H2C4HCH2CHNC6H9C3NCH2C2H3CH4CH2CH3FeH2S2FeS2FeS2FeSFeS3FeS2FeSCNS2C3HC2HC2HC6H4C2H2C8H4C3HCH2CH2C2H5C2H3C2NC3HCH2NH2SCH2NC2HCFeHC3SH3C3H5CHSH3CHCSFeS2FeS2FeSFeS3FeCSFeCH2CS2C5HC3H3C6H4C6H4C3H3CH4NC2HCHCHNH3C4SC3HCHCHC2HC2NH2CSC2H8CH6CH3CFeCHNFeS2FeS2FeSFeS4H2SHCHC3HNC5H2C6H4C6H2CH2CH3C5HC2HCHC4HCHCH2CH5FeH2NC4HCH3NCNH3CH5CHCH2CHNHCH2FeS2FeS2FeSFeS3HSHC3SCH2C6H4C6H4CHCSHNC5H10C2NH3SC3H3CHFeH3C4HC3HCNH6C3H4CHCFeS2FeS2FeSFeS3FeS2FeSFeSFeS3CHC2HC3H2C6H4C2H3CHC2H2C10H6C2HCNCHC3HCH3CHCHNHCNHC2H2CH2SHCHCH7CH2SFeS2FeS2FeSFeS3FeS2FeS2FeSFeS2C3HCH2C2H3C6H4C2NHC7H4C4HCHNC6H12CH4CHC2NC2HCHCH2C2NCHC2HSH2C3HCHNHC3HCH2SHCHC2
_chemical_formula_sum              "S192 Fe96 H576 C576 N48"
_cell_length_a       54.0617
_cell_length_b       53.9945
_cell_length_c       42.8316
_cell_angle_alpha    88.7104
_cell_angle_beta     89.1172
_cell_angle_gamma    90.1681

_space_group_name_H-M_alt    "P 1"
_space_group_IT_number       1

loop_
  _space_group_symop_operation_xyz
  'x, y, z'

loop_
  _atom_site_type_symbol
  _atom_site_label
  _atom_site_symmetry_multiplicity
  _atom_site_fract_x
  _atom_site_fract_y
  _atom_site_fract_z
  _atom_site_occupancy
  S   S1        1.0  0.46406  0.09804  0.19615  1.0000
  Fe  Fe1       1.0  0.47176  0.12374  0.11006  1.0000
  S   S2        1.0  0.44661  0.09190  0.12312  1.0000
  H   H1        1.0  0.17117  0.22209  0.43683  1.0000
  Fe  Fe2       1.0  0.43483  0.11409  0.16506  1.0000
  S   S3        1.0  0.39303  0.11735  0.17447  1.0000
  C   C1        1.0  0.23153  0.99336  0.35792  1.0000
  H   H2        1.0  0.34193  0.07193  0.40427  1.0000
  S   S4        1.0  0.45845  0.14704  0.15042  1.0000
  Fe  Fe3       1.0  0.24499  0.08289  0.34071  1.0000
  S   S5        1.0  0.28058  0.09547  0.36162  1.0000
  S   S6        1.0  0.23097  0.04424  0.35508  1.0000
  Fe  Fe4       1.0  0.23384  0.13510  0.31443  1.0000
  S   S7        1.0  0.26937  0.15049  0.33249  1.0000
  S   S8        1.0  0.20806  0.16219  0.28889  1.0000
  Fe  Fe5       1.0  0.28775  0.11575  0.31567  1.0000
  S   S9        1.0  0.32908  0.11534  0.30221  1.0000
  Fe  Fe6       1.0  0.25969  0.12904  0.37641  1.0000
  S   S10       1.0  0.26282  0.15010  0.42123  1.0000
  S   S11       1.0  0.25278  0.10141  0.29369  1.0000
  S   S12       1.0  0.22333  0.11538  0.35927  1.0000
  S   S13       1.0  0.06352  0.27436  0.31330  1.0000
  Fe  Fe7       1.0  0.09870  0.30835  0.37762  1.0000
  S   S14       1.0  0.08077  0.27168  0.38585  1.0000
  H   H3        1.0  0.41544  0.13828  0.01667  1.0000
  Fe  Fe8       1.0  0.09783  0.26182  0.33927  1.0000
  S   S15       1.0  0.11754  0.22430  0.34555  1.0000
  Fe  Fe9       1.0  0.04861  0.28731  0.35934  1.0000
  S   S16       1.0  0.00997  0.28646  0.38128  1.0000
  S   S17       1.0  0.11716  0.29861  0.33200  1.0000
  H   H4        1.0  0.99902  0.27165  0.31734  1.0000
  H   H5        1.0  0.43632  0.17574  0.00865  1.0000
  H   H6        1.0  0.22635  0.99550  0.38221  1.0000
  H   H7        1.0  0.10195  0.28936  0.46045  1.0000
  C   C2        1.0  0.03452  0.29029  0.46108  1.0000
  H   H8        1.0  0.44079  0.04246  0.15969  1.0000
  C   C3        1.0  0.18357  0.17992  0.30554  1.0000
  C   C4        1.0  0.17395  0.20024  0.28850  1.0000
  C   C5        1.0  0.15401  0.21427  0.30040  1.0000
  C   C6        1.0  0.14301  0.20776  0.32925  1.0000
  C   C7        1.0  0.15253  0.18732  0.34615  1.0000
  C   C8        1.0  0.17281  0.17366  0.33459  1.0000
  H   H9        1.0  0.18197  0.20518  0.26590  1.0000
  H   H10       1.0  0.14687  0.22982  0.28700  1.0000
  H   H11       1.0  0.14421  0.18208  0.36848  1.0000
  H   H12       1.0  0.17988  0.15809  0.34802  1.0000
  C   C9        1.0  0.26387  0.13316  0.45688  1.0000
  C   C10       1.0  0.26470  0.10727  0.45752  1.0000
  H   H13       1.0  0.31937  0.11938  0.47881  1.0000
  H   H14       1.0  0.26353  0.09726  0.43599  1.0000
  H   H15       1.0  0.40277  0.15567  0.12857  1.0000
  C   C11       1.0  0.47068  0.12756  0.02236  1.0000
  H   H16       1.0  0.22135  0.20441  0.36200  1.0000
  C   C12       1.0  0.45925  0.10454  0.01853  1.0000
  H   H17       1.0  0.42264  0.19992  0.03156  1.0000
  C   C13       1.0  0.37562  0.11643  0.21031  1.0000
  C   C14       1.0  0.34961  0.11799  0.20935  1.0000
  C   C15       1.0  0.33503  0.11754  0.23707  1.0000
  C   C16       1.0  0.34630  0.11562  0.26622  1.0000
  C   C17       1.0  0.37231  0.11406  0.26716  1.0000
  C   C18       1.0  0.38688  0.11442  0.23946  1.0000
  H   H18       1.0  0.34065  0.11957  0.18700  1.0000
  H   H19       1.0  0.31511  0.11879  0.23585  1.0000
  H   H20       1.0  0.38129  0.11259  0.28950  1.0000
  H   H21       1.0  0.40680  0.11325  0.24068  1.0000
  H   H22       1.0  0.34225  0.16654  0.38195  1.0000
  C   C19       1.0  0.24261  0.01144  0.30752  1.0000
  C   C20       1.0  0.23606  0.01454  0.33895  1.0000
  H   H23       1.0  0.26487  0.16596  0.48464  1.0000
  Fe  Fe10      1.0  0.47791  0.07916  0.15330  1.0000
  H   H24       1.0  0.24610  0.02752  0.29258  1.0000
  C   C21       1.0  0.19623  0.23466  0.35318  1.0000
  H   H25       1.0  0.15015  0.26335  0.43246  1.0000
  C   C22       1.0  0.44690  0.02380  0.16499  1.0000
  H   H26       1.0  0.48974  0.00773  0.10073  1.0000
  N   N1        1.0  0.42078  0.16412  0.05301  1.0000
  C   C23       1.0  0.41749  0.16893  0.08402  1.0000
  C   C24       1.0  0.41236  0.14239  0.04110  1.0000
  C   C25       1.0  0.40525  0.15188  0.10392  1.0000
  C   C26       1.0  0.40040  0.12475  0.06048  1.0000
  C   C27       1.0  0.39676  0.12963  0.09206  1.0000
  C   C28       1.0  0.43349  0.18253  0.03275  1.0000
  H   H27       1.0  0.42469  0.18586  0.09363  1.0000
  H   H28       1.0  0.14512  0.27662  0.39457  1.0000
  H   H29       1.0  0.40999  0.00847  0.16639  1.0000
  H   H30       1.0  0.33145  0.07772  0.46057  1.0000
  C   C29       1.0  0.17678  0.24870  0.36543  1.0000
  H   H31       1.0  0.20560  0.19662  0.41613  1.0000
  H   H32       1.0  0.20248  0.23765  0.32919  1.0000
  C   C30       1.0  0.47217  0.01857  0.16688  1.0000
  N   N2        1.0  0.18398  0.10004  0.27258  1.0000
  C   C31       1.0  0.17193  0.10951  0.29799  1.0000
  C   C32       1.0  0.19310  0.07644  0.27369  1.0000
  C   C33       1.0  0.16871  0.09519  0.32539  1.0000
  C   C34       1.0  0.18998  0.06154  0.30059  1.0000
  C   C35       1.0  0.17791  0.07108  0.32667  1.0000
  C   C36       1.0  0.18825  0.11546  0.24438  1.0000
  H   H33       1.0  0.16514  0.12841  0.29740  1.0000
  H   H34       1.0  0.20323  0.06912  0.25391  1.0000
  H   H35       1.0  0.15970  0.10296  0.34574  1.0000
  H   H36       1.0  0.19755  0.04294  0.30166  1.0000
  H   H37       1.0  0.17632  0.05994  0.34806  1.0000
  H   H38       1.0  0.17699  0.13268  0.24467  1.0000
  H   H39       1.0  0.20803  0.12119  0.24295  1.0000
  H   H40       1.0  0.18343  0.10517  0.22315  1.0000
  N   N3        1.0  0.32810  0.13300  0.40188  1.0000
  C   C37       1.0  0.33558  0.11032  0.39175  1.0000
  C   C38       1.0  0.32295  0.13647  0.43285  1.0000
  C   C39       1.0  0.33689  0.09008  0.41265  1.0000
  C   C40       1.0  0.32439  0.11673  0.45445  1.0000
  C   C41       1.0  0.33109  0.09333  0.44416  1.0000
  C   C42       1.0  0.32612  0.15399  0.37975  1.0000
  H   H41       1.0  0.33987  0.10758  0.36722  1.0000
  H   H42       1.0  0.31674  0.15438  0.44084  1.0000
  C   C43       1.0  0.14742  0.25872  0.40760  1.0000
  H   H43       1.0  0.13007  0.24782  0.40554  1.0000
  S   S18       1.0  0.47617  0.14008  0.06003  1.0000
  H   H44       1.0  0.26863  0.07429  0.48634  1.0000
  H   H45       1.0  0.16799  0.26250  0.35055  1.0000
  H   H46       1.0  0.39429  0.10730  0.05116  1.0000
  C   C44       1.0  0.19777  0.21146  0.40188  1.0000
  N   N4        1.0  0.16832  0.24444  0.39536  1.0000
  C   C45       1.0  0.20674  0.21592  0.37155  1.0000
  C   C46       1.0  0.04373  0.31243  0.44808  1.0000
  H   H47       1.0  0.45436  0.09326  0.03890  1.0000
  C   C47       1.0  0.17835  0.22592  0.41343  1.0000
  H   H48       1.0  0.30877  0.16444  0.38428  1.0000
  C   C48       1.0  0.42950  0.00459  0.16883  1.0000
  C   C49       1.0  0.10724  0.30588  0.47255  1.0000
  Fe  Fe11      1.0  0.08183  0.31231  0.30961  1.0000
  H   H49       1.0  0.38769  0.11608  0.10752  1.0000
  H   H50       1.0  0.32540  0.14776  0.35520  1.0000
  Fe  Fe12      1.0  0.48886  0.12923  0.17904  1.0000
  H   H51       1.0  0.04461  0.31509  0.42289  1.0000
  H   H52       1.0  0.44426  0.00355  0.10225  1.0000
  H   H53       1.0  0.45216  0.18647  0.04208  1.0000
  H   H54       1.0  0.02798  0.27586  0.44592  1.0000
  C   C50       1.0  0.26547  0.14593  0.48498  1.0000
  C   C51       1.0  0.47998  0.99452  0.17422  1.0000
  C   C52       1.0  0.26764  0.09430  0.48607  1.0000
  C   C53       1.0  0.03401  0.28685  0.49359  1.0000
  H   H55       1.0  0.01066  0.32411  0.25136  1.0000
  S   S19       1.0  0.06549  0.32524  0.35488  1.0000
  Fe  Fe13      1.0  0.45695  0.10998  0.87147  1.0000
  S   S20       1.0  0.45221  0.09897  0.92377  1.0000
  Fe  Fe14      1.0  0.43230  0.13113  0.81097  1.0000
  S   S21       1.0  0.45900  0.11250  0.77865  1.0000
  S   S22       1.0  0.39875  0.15228  0.79315  1.0000
  Fe  Fe15      1.0  0.45362  0.07982  0.81126  1.0000
  C   C54       1.0  0.23330  0.00179  0.68342  1.0000
  S   S23       1.0  0.11723  0.30489  0.64783  1.0000
  S   S24       1.0  0.42529  0.09773  0.84166  1.0000
  S   S25       1.0  0.46191  0.14548  0.84288  1.0000
  Fe  Fe16      1.0  0.24836  0.14394  0.64300  1.0000
  S   S26       1.0  0.28500  0.14347  0.61625  1.0000
  S   S27       1.0  0.22954  0.18225  0.64162  1.0000
  Fe  Fe17      1.0  0.25248  0.08829  0.65969  1.0000
  S   S28       1.0  0.28856  0.08525  0.63451  1.0000
  S   S29       1.0  0.23593  0.05296  0.68173  1.0000
  Fe  Fe18      1.0  0.29924  0.12075  0.65705  1.0000
  S   S30       1.0  0.33932  0.11820  0.67352  1.0000
  Fe  Fe19      1.0  0.27107  0.10794  0.59650  1.0000
  S   S31       1.0  0.27453  0.09012  0.54912  1.0000
  S   S32       1.0  0.26367  0.12287  0.68503  1.0000
  S   S33       1.0  0.23395  0.10950  0.62062  1.0000
  Fe  Fe20      1.0  0.10355  0.26526  0.64822  1.0000
  C   C55       1.0  0.44337  0.17012  0.73446  1.0000
  S   S34       1.0  0.12375  0.23015  0.66532  1.0000
  Fe  Fe21      1.0  0.05063  0.28131  0.62978  1.0000
  S   S35       1.0  0.01226  0.26624  0.61944  1.0000
  S   S36       1.0  0.06071  0.32149  0.62725  1.0000
  H   H56       1.0  0.32122  0.09289  0.75839  1.0000
  H   H57       1.0  0.48806  0.04069  0.82489  1.0000
  S   S37       1.0  0.08394  0.26854  0.60221  1.0000
  S   S38       1.0  0.06907  0.27495  0.67579  1.0000
  C   C56       1.0  0.26809  0.13294  0.51358  1.0000
  C   C57       1.0  0.36148  0.05303  0.72661  1.0000
  H   H58       1.0  0.30728  0.08004  0.70914  1.0000
  H   H59       1.0  0.28057  0.99415  0.53774  1.0000
  Fe  Fe22      1.0  0.08128  0.31494  0.67196  1.0000
  C   C58       1.0  0.32002  0.06390  0.70857  1.0000
  H   H60       1.0  0.47107  0.19749  0.81234  1.0000
  C   C59       1.0  0.19799  0.19199  0.64205  1.0000
  C   C60       1.0  0.19187  0.21472  0.62735  1.0000
  C   C61       1.0  0.16855  0.22587  0.63233  1.0000
  C   C62       1.0  0.15116  0.21464  0.65268  1.0000
  C   C63       1.0  0.15685  0.19136  0.66624  1.0000
  C   C64       1.0  0.17997  0.17996  0.66071  1.0000
  H   H61       1.0  0.20561  0.22423  0.61286  1.0000
  H   H62       1.0  0.16451  0.24369  0.62161  1.0000
  H   H63       1.0  0.14353  0.18240  0.68190  1.0000
  H   H64       1.0  0.18432  0.16255  0.67232  1.0000
  C   C65       1.0  0.38193  0.14215  0.76041  1.0000
  C   C66       1.0  0.35783  0.15102  0.75535  1.0000
  C   C67       1.0  0.34429  0.14374  0.72911  1.0000
  C   C68       1.0  0.35500  0.12793  0.70729  1.0000
  C   C69       1.0  0.37913  0.11921  0.71232  1.0000
  C   C70       1.0  0.39243  0.12603  0.73883  1.0000
  H   H65       1.0  0.34958  0.16361  0.77180  1.0000
  H   H66       1.0  0.32578  0.15069  0.72548  1.0000
  H   H67       1.0  0.38757  0.10694  0.69562  1.0000
  H   H68       1.0  0.41091  0.11902  0.74231  1.0000
  C   C71       1.0  0.44839  0.99429  0.80753  1.0000
  C   C72       1.0  0.24622  0.02282  0.67180  1.0000
  C   C73       1.0  0.26663  0.01940  0.65194  1.0000
  H   H69       1.0  0.36342  0.04083  0.70696  1.0000
  H   H70       1.0  0.27687  0.03515  0.64283  1.0000
  S   S39       1.0  0.48501  0.08931  0.84265  1.0000
  C   C74       1.0  0.45809  0.01831  0.80881  1.0000
  C   C75       1.0  0.38099  0.05497  0.74759  1.0000
  C   C76       1.0  0.04207  0.30115  0.54658  1.0000
  H   H71       1.0  0.00105  0.31799  0.63204  1.0000
  H   H72       1.0  0.05908  0.30894  0.55694  1.0000
  C   C77       1.0  0.26940  0.10708  0.51415  1.0000
  N   N5        1.0  0.47686  0.18331  0.76647  1.0000
  C   C78       1.0  0.23256  0.04949  0.59168  1.0000
  H   H73       1.0  0.26946  0.14294  0.53511  1.0000
  C   C79       1.0  0.47148  0.13352  0.96513  1.0000
  C   C80       1.0  0.45993  0.11057  0.96130  1.0000
  H   H74       1.0  0.00212  0.25826  0.72647  1.0000
  H   H75       1.0  0.21899  0.04980  0.61145  1.0000
  H   H76       1.0  0.21750  0.00418  0.69886  1.0000
  H   H77       1.0  0.02888  0.30582  0.70675  1.0000
  H   H78       1.0  0.41045  0.03291  0.86197  1.0000
  C   C81       1.0  0.37869  0.07076  0.77277  1.0000
  C   C82       1.0  0.42428  0.02369  0.87610  1.0000
  N   N6        1.0  0.46207  0.02565  0.90477  1.0000
  C   C83       1.0  0.10537  0.30658  0.50564  1.0000
  H   H79       1.0  0.39391  0.07278  0.78877  1.0000
  H   H80       1.0  0.45376  0.15120  0.69252  1.0000
  H   H81       1.0  0.24940  0.05921  0.59949  1.0000
  H   H82       1.0  0.43862  0.18859  0.77791  1.0000
  N   N7        1.0  0.34034  0.06657  0.73057  1.0000
  N   N8        1.0  0.04256  0.30496  0.51256  1.0000
  H   H83       1.0  0.35531  0.09716  0.79588  1.0000
  H   H84       1.0  0.01481  0.26573  0.68810  1.0000
  C   C84       1.0  0.48559  0.16264  0.71842  1.0000
  H   H85       1.0  0.26802  0.03663  0.55198  1.0000
  C   C85       1.0  0.45201  0.18149  0.76124  1.0000
  H   H86       1.0  0.30922  0.04677  0.71410  1.0000
  C   C86       1.0  0.33781  0.08189  0.75546  1.0000
  C   C87       1.0  0.47998  0.02246  0.82481  1.0000
  N   N9        1.0  0.23894  0.02425  0.58276  1.0000
  S   S40       1.0  0.44167  0.04322  0.79249  1.0000
  C   C88       1.0  0.35697  0.08430  0.77684  1.0000
  H   H87       1.0  0.47638  0.04841  0.93996  1.0000
  H   H88       1.0  0.44436  0.05716  0.88442  1.0000
  H   H89       1.0  0.22497  0.06000  0.57140  1.0000
  H   H90       1.0  0.32731  0.06323  0.68417  1.0000
  C   C89       1.0  0.44372  0.03729  0.88849  1.0000
  N   N10       1.0  0.20084  0.23026  0.70452  1.0000
  C   C90       1.0  0.17870  0.24197  0.70909  1.0000
  C   C91       1.0  0.21856  0.24059  0.68509  1.0000
  C   C92       1.0  0.17357  0.26431  0.69334  1.0000
  C   C93       1.0  0.21405  0.26293  0.66897  1.0000
  C   C94       1.0  0.19134  0.27477  0.67307  1.0000
  C   C95       1.0  0.20592  0.20690  0.72132  1.0000
  H   H91       1.0  0.16435  0.23352  0.72380  1.0000
  H   H92       1.0  0.23589  0.23100  0.68090  1.0000
  H   H93       1.0  0.15548  0.27280  0.69580  1.0000
  H   H94       1.0  0.22778  0.27055  0.65268  1.0000
  H   H95       1.0  0.18723  0.29166  0.65996  1.0000
  H   H96       1.0  0.21424  0.21069  0.74424  1.0000
  H   H97       1.0  0.18867  0.19586  0.72497  1.0000
  H   H98       1.0  0.21878  0.19512  0.70760  1.0000
  Fe  Fe23      1.0  0.09545  0.30844  0.60314  1.0000
  C   C96       1.0  0.46118  0.00058  0.91013  1.0000
  C   C97       1.0  0.25798  0.02080  0.56192  1.0000
  H   H99       1.0  0.39793  0.04450  0.74430  1.0000
  H   H100      1.0  0.09853  0.29066  0.51894  1.0000
  H   H101      1.0  0.47635  0.14483  0.94478  1.0000
  H   H102      1.0  0.02564  0.31031  0.55700  1.0000
  H   H103      1.0  0.42364  0.16861  0.73059  1.0000
  C   C98       1.0  0.46029  0.16044  0.71309  1.0000
  C   C99       1.0  0.26512  0.99688  0.55373  1.0000
  Fe  Fe24      1.0  0.48833  0.12376  0.81220  1.0000
  H   H104      1.0  0.04144  0.28114  0.55338  1.0000
  C   C100      1.0  0.48580  0.19591  0.79411  1.0000
  C   C101      1.0  0.42341  0.99807  0.88107  1.0000
  C   C102      1.0  0.00955  0.31087  0.70914  1.0000
  H   H105      1.0  0.48745  0.05589  0.90108  1.0000
  H   H106      1.0  0.28916  0.99316  0.62726  1.0000
  C   C103      1.0  0.22619  0.00440  0.59533  1.0000
  C   C104      1.0  0.48229  0.04035  0.91739  1.0000
  C   C105      1.0  0.27367  0.99543  0.64323  1.0000
  C   C106      1.0  0.99818  0.26723  0.70353  1.0000
  H   H107      1.0  0.44493  0.07842  0.98576  1.0000
  C   C107      1.0  0.45388  0.09619  0.98828  1.0000
  H   H108      1.0  0.21151  0.00709  0.61246  1.0000
  H   H109      1.0  0.02698  0.26950  0.50349  1.0000
  C   C108      1.0  0.47676  0.14191  0.99540  1.0000
  H   H110      1.0  0.48567  0.15971  0.99791  1.0000
  C   C109      1.0  0.49151  0.00295  0.84089  1.0000
  Fe  Fe25      1.0  0.06852  0.51949  0.17577  1.0000
  S   S41       1.0  0.10427  0.50294  0.15804  1.0000
  S   S42       1.0  0.05795  0.55210  0.20710  1.0000
  Fe  Fe26      1.0  0.03898  0.47665  0.14873  1.0000
  S   S43       1.0  0.07211  0.45694  0.12953  1.0000
  S   S44       1.0  0.00125  0.45996  0.14630  1.0000
  Fe  Fe27      1.0  0.08903  0.46594  0.17567  1.0000
  S   S45       1.0  0.11082  0.43966  0.20760  1.0000
  Fe  Fe28      1.0  0.08395  0.49517  0.11298  1.0000
  S   S46       1.0  0.09987  0.50527  0.06399  1.0000
  S   S47       1.0  0.05487  0.48290  0.19554  1.0000
  S   S48       1.0  0.04937  0.51428  0.12978  1.0000
  H   H111      1.0  0.10168  0.40417  0.15214  1.0000
  C   C110      1.0  0.09476  0.49475  0.26934  1.0000
  H   H112      1.0  0.03428  0.53698  0.27051  1.0000
  S   S49       1.0  0.10808  0.63878  0.28527  1.0000
  H   H113      1.0  0.13227  0.39857  0.16614  1.0000
  C   C111      1.0  0.09221  0.49553  0.02551  1.0000
  C   C112      1.0  0.11644  0.32655  0.45538  1.0000
  C   C113      1.0  0.07965  0.47332  0.02021  1.0000
  H   H114      1.0  0.01399  0.51179  0.28175  1.0000
  H   H115      1.0  0.07315  0.46206  0.03987  1.0000
  C   C114      1.0  0.07257  0.57591  0.22868  1.0000
  C   C115      1.0  0.05773  0.59137  0.24724  1.0000
  C   C116      1.0  0.06823  0.61042  0.26493  1.0000
  C   C117      1.0  0.09383  0.61442  0.26423  1.0000
  C   C118      1.0  0.10871  0.59884  0.24583  1.0000
  C   C119      1.0  0.09821  0.57965  0.22830  1.0000
  H   H116      1.0  0.03788  0.58875  0.24775  1.0000
  H   H117      1.0  0.05647  0.62220  0.27883  1.0000
  H   H118      1.0  0.12852  0.60171  0.24501  1.0000
  H   H119      1.0  0.10995  0.56801  0.21420  1.0000
  C   C120      1.0  0.09899  0.41173  0.22526  1.0000
  C   C121      1.0  0.07681  0.40103  0.21578  1.0000
  C   C122      1.0  0.06892  0.37802  0.22881  1.0000
  C   C123      1.0  0.08272  0.36562  0.25198  1.0000
  C   C124      1.0  0.10452  0.37672  0.26214  1.0000
  C   C125      1.0  0.11270  0.39949  0.24863  1.0000
  H   H120      1.0  0.06597  0.41017  0.19791  1.0000
  H   H121      1.0  0.05207  0.36965  0.22066  1.0000
  H   H122      1.0  0.11544  0.36740  0.27978  1.0000
  H   H123      1.0  0.12992  0.40750  0.25615  1.0000
  H   H124      1.0  0.16257  0.47655  0.13521  1.0000
  C   C126      1.0  0.15142  0.46265  0.12408  1.0000
  H   H125      1.0  0.06420  0.43976  0.27532  1.0000
  N   N11       1.0  0.12974  0.42369  0.12676  1.0000
  C   C127      1.0  0.14455  0.44088  0.14034  1.0000
  C   C128      1.0  0.12151  0.42756  0.09699  1.0000
  H   H126      1.0  0.12285  0.38481  0.13041  1.0000
  C   C129      1.0  0.12816  0.44906  0.08001  1.0000
  C   C130      1.0  0.04700  0.47591  0.27241  1.0000
  C   C131      1.0  0.12129  0.40169  0.14464  1.0000
  H   H127      1.0  0.15071  0.43811  0.16415  1.0000
  H   H128      1.0  0.10917  0.41434  0.08654  1.0000
  C   C132      1.0  0.02940  0.51741  0.26567  1.0000
  H   H129      1.0  0.12110  0.45252  0.05672  1.0000
  S   S50       1.0  0.06669  0.65510  0.36179  1.0000
  H   H130      1.0  0.05488  0.63312  0.43592  1.0000
  C   C133      1.0  0.05201  0.33095  0.46760  1.0000
  H   H131      1.0  0.00017  0.33877  0.34870  1.0000
  C   C134      1.0  0.14313  0.46672  0.09373  1.0000
  H   H132      1.0  0.14769  0.48385  0.08110  1.0000
  S   S51       1.0  0.07249  0.33585  0.26593  1.0000
  C   C135      1.0  0.04223  0.64419  0.48151  1.0000
  H   H133      1.0  0.07729  0.53022  0.26457  1.0000
  H   H134      1.0  0.00530  0.50884  0.17213  1.0000
  H   H135      1.0  0.05441  0.63159  0.49396  1.0000
  C   C136      1.0  0.06711  0.45967  0.27397  1.0000
  N   N12       1.0  0.05074  0.50096  0.26947  1.0000
  C   C137      1.0  0.07425  0.51044  0.26779  1.0000
  C   C138      1.0  0.09111  0.46922  0.27252  1.0000
  H   H136      1.0  0.10685  0.45677  0.27295  1.0000
  H   H137      1.0  0.02294  0.51686  0.24114  1.0000
  H   H138      1.0  0.11335  0.50230  0.26736  1.0000
  H   H139      1.0  0.02840  0.46832  0.27247  1.0000
  H   H140      1.0  0.13111  0.36347  0.45845  1.0000
  C   C139      1.0  0.12367  0.34758  0.47134  1.0000
  C   C140      1.0  0.04253  0.64506  0.44893  1.0000
  H   H141      1.0  0.11029  0.52695  0.00301  1.0000
  H   H142      1.0  0.05988  0.34795  0.45767  1.0000
  C   C141      1.0  0.10047  0.50979  0.99936  1.0000
  C   C142      1.0  0.99262  0.33666  0.32557  1.0000
  H   H143      1.0  0.02813  0.33042  0.30361  1.0000
  C   C143      1.0  0.00832  0.33170  0.30036  1.0000
  C   C144      1.0  0.99842  0.32802  0.27097  1.0000
  S   S52       1.0  0.12093  0.32729  0.41434  1.0000
  Fe  Fe29      1.0  0.08936  0.46461  0.80550  1.0000
  S   S53       1.0  0.06289  0.49195  0.78427  1.0000
  S   S54       1.0  0.11120  0.43817  0.77445  1.0000
  Fe  Fe30      1.0  0.07818  0.48138  0.87364  1.0000
  S   S55       1.0  0.05069  0.50954  0.85651  1.0000
  S   S56       1.0  0.08094  0.46725  0.92489  1.0000
  Fe  Fe31      1.0  0.03779  0.48032  0.82410  1.0000
  H   H144      1.0  0.09930  0.38539  0.86144  1.0000
  Fe  Fe32      1.0  0.07803  0.51941  0.81770  1.0000
  S   S57       1.0  0.08166  0.56125  0.80699  1.0000
  S   S58       1.0  0.06313  0.45134  0.84317  1.0000
  S   S59       1.0  0.10694  0.49288  0.83689  1.0000
  S   S60       1.0  0.08250  0.62588  0.67959  1.0000
  C   C145      1.0  0.14433  0.42160  0.83348  1.0000
  H   H145      1.0  0.00088  0.51255  0.85177  1.0000
  C   C146      1.0  0.09901  0.41136  0.75633  1.0000
  C   C147      1.0  0.07562  0.40175  0.76427  1.0000
  C   C148      1.0  0.06731  0.37958  0.75098  1.0000
  C   C149      1.0  0.08193  0.36697  0.72898  1.0000
  C   C150      1.0  0.10513  0.37683  0.72055  1.0000
  C   C151      1.0  0.11369  0.39874  0.73440  1.0000
  H   H146      1.0  0.06399  0.41124  0.78091  1.0000
  H   H147      1.0  0.04938  0.37216  0.75780  1.0000
  H   H148      1.0  0.11665  0.36738  0.70376  1.0000
  H   H149      1.0  0.13179  0.40597  0.72798  1.0000
  C   C152      1.0  0.07996  0.60822  0.71523  1.0000
  C   C153      1.0  0.08226  0.58225  0.71433  1.0000
  C   C154      1.0  0.08204  0.56751  0.74202  1.0000
  C   C155      1.0  0.07988  0.57860  0.77113  1.0000
  C   C156      1.0  0.07722  0.60454  0.77205  1.0000
  C   C157      1.0  0.07712  0.61926  0.74432  1.0000
  H   H150      1.0  0.08447  0.57346  0.69200  1.0000
  H   H151      1.0  0.08419  0.54763  0.74081  1.0000
  H   H152      1.0  0.07554  0.61337  0.79441  1.0000
  H   H153      1.0  0.07534  0.63918  0.74548  1.0000
  C   C158      1.0  0.13499  0.44686  0.88799  1.0000
  H   H154      1.0  0.01802  0.34968  0.71396  1.0000
  H   H155      1.0  0.03012  0.56713  0.83145  1.0000
  H   H156      1.0  0.06681  0.44782  0.98573  1.0000
  C   C159      1.0  0.08425  0.47957  0.96319  1.0000
  H   H157      1.0  0.13878  0.60620  0.69284  1.0000
  H   H158      1.0  0.10290  0.51328  0.94882  1.0000
  S   S61       1.0  0.99880  0.46909  0.81364  1.0000
  C   C160      1.0  0.15566  0.45319  0.86960  1.0000
  C   C161      1.0  0.16036  0.44056  0.84210  1.0000
  N   N13       1.0  0.12404  0.41554  0.85161  1.0000
  H   H159      1.0  0.12955  0.59779  0.74660  1.0000
  C   C162      1.0  0.00349  0.33576  0.71331  1.0000
  C   C163      1.0  0.14168  0.62555  0.69807  1.0000
  H   H160      1.0  0.05818  0.34120  0.51505  1.0000
  C   C164      1.0  0.14386  0.65781  0.73472  1.0000
  S   S62       1.0  0.07071  0.33842  0.71426  1.0000
  H   H161      1.0  0.02865  0.58943  0.79958  1.0000
  C   C165      1.0  0.09626  0.50208  0.96848  1.0000
  H   H162      1.0  0.17596  0.44575  0.82710  1.0000
  H   H163      1.0  0.09093  0.40577  0.82926  1.0000
  H   H164      1.0  0.15763  0.61000  0.76264  1.0000
  H   H165      1.0  0.16769  0.46820  0.87637  1.0000
  H   H166      1.0  0.00497  0.58868  0.82982  1.0000
  H   H167      1.0  0.13087  0.45690  0.90913  1.0000
  C   C166      1.0  0.11911  0.42807  0.87841  1.0000
  C   C167      1.0  0.12137  0.34846  0.50383  1.0000
  H   H168      1.0  0.14770  0.41239  0.81155  1.0000
  C   C168      1.0  0.01639  0.54153  0.78116  1.0000
  C   C169      1.0  0.10661  0.39665  0.84131  1.0000
  H   H169      1.0  0.14444  0.63660  0.64936  1.0000
  H   H170      1.0  0.11067  0.65806  0.50293  1.0000
  H   H171      1.0  0.11544  0.38386  0.82450  1.0000
  H   H172      1.0  0.10257  0.42394  0.89230  1.0000
  C   C170      1.0  0.13898  0.61497  0.75406  1.0000
  H   H173      1.0  0.12687  0.36509  0.51559  1.0000
  N   N14       1.0  0.14111  0.63324  0.72830  1.0000
  H   H174      1.0  0.03641  0.54079  0.78219  1.0000
  N   N15       1.0  0.00363  0.55929  0.79691  1.0000
  C   C171      1.0  0.01739  0.57710  0.81535  1.0000
  H   H175      1.0  0.12770  0.62233  0.77368  1.0000
  C   C172      1.0  0.07605  0.46529  0.98936  1.0000
  C   C173      1.0  0.00382  0.52377  0.76412  1.0000
  C   C174      1.0  0.05106  0.32698  0.50002  1.0000
  H   H176      1.0  0.01392  0.50907  0.75273  1.0000
  C   C175      1.0  0.14492  0.64266  0.67332  1.0000
  C   C176      1.0  0.11225  0.32814  0.52127  1.0000
  S   S63       1.0  0.10928  0.33199  0.56211  1.0000
  Fe  Fe33      1.0  0.43574  0.91929  0.17221  1.0000
  S   S64       1.0  0.41926  0.89020  0.14251  1.0000
  S   S65       1.0  0.41619  0.95581  0.17465  1.0000
  Fe  Fe34      1.0  0.42318  0.86585  0.18554  1.0000
  S   S66       1.0  0.39009  0.84311  0.20351  1.0000
  Fe  Fe35      1.0  0.45854  0.87995  0.13053  1.0000
  Fe  Fe36      1.0  0.28719  0.86658  0.33924  1.0000
  S   S67       1.0  0.25617  0.86558  0.30510  1.0000
  S   S68       1.0  0.32858  0.86539  0.32746  1.0000
  Fe  Fe37      1.0  0.25192  0.88074  0.39359  1.0000
  S   S69       1.0  0.21872  0.88163  0.36242  1.0000
  S   S70       1.0  0.24588  0.89352  0.44338  1.0000
  Fe  Fe38      1.0  0.23363  0.84584  0.34349  1.0000
  S   S71       1.0  0.21364  0.80785  0.34398  1.0000
  Fe  Fe39      1.0  0.24405  0.90131  0.32744  1.0000
  S   S72       1.0  0.23938  0.93637  0.29738  1.0000
  S   S73       1.0  0.26608  0.84447  0.37641  1.0000
  S   S74       1.0  0.27582  0.90277  0.35990  1.0000
  Fe  Fe40      1.0  0.08943  0.68117  0.38977  1.0000
  S   S75       1.0  0.06565  0.71434  0.37998  1.0000
  H   H177      1.0  0.43108  0.85607  0.05428  1.0000
  H   H178      1.0  0.13871  0.75338  0.25634  1.0000
  S   S76       1.0  0.06710  0.69800  0.30636  1.0000
  Fe  Fe41      1.0  0.09135  0.72051  0.33814  1.0000
  S   S77       1.0  0.10715  0.75849  0.32232  1.0000
  Fe  Fe42      1.0  0.04402  0.68885  0.34943  1.0000
  H   H179      1.0  0.39052  0.80358  0.25616  1.0000
  S   S78       1.0  0.11613  0.68850  0.34964  1.0000
  H   H180      1.0  0.40063  0.83916  0.32683  1.0000
  C   C177      1.0  0.08999  0.68261  0.47282  1.0000
  C   C178      1.0  0.07251  0.70166  0.47187  1.0000
  C   C179      1.0  0.15275  0.69539  0.27988  1.0000
  H   H181      1.0  0.06694  0.70949  0.44966  1.0000
  Fe  Fe43      1.0  0.09065  0.66545  0.32042  1.0000
  H   H182      1.0  0.16649  0.80278  0.39943  1.0000
  H   H183      1.0  0.31268  0.91560  0.30551  1.0000
  N   N16       1.0  0.41445  0.82559  0.28352  1.0000
  H   H184      1.0  0.21605  0.79765  0.44890  1.0000
  H   H185      1.0  0.20417  0.78499  0.41338  1.0000
  C   C180      1.0  0.18345  0.79512  0.33876  1.0000
  C   C181      1.0  0.16428  0.80842  0.32466  1.0000
  C   C182      1.0  0.14098  0.79708  0.32036  1.0000
  C   C183      1.0  0.13627  0.77251  0.33067  1.0000
  C   C184      1.0  0.15520  0.75951  0.34572  1.0000
  C   C185      1.0  0.17868  0.77062  0.34930  1.0000
  H   H186      1.0  0.16754  0.82726  0.31643  1.0000
  H   H187      1.0  0.12653  0.80738  0.30870  1.0000
  H   H188      1.0  0.15198  0.74061  0.35377  1.0000
  H   H189      1.0  0.19328  0.76009  0.36030  1.0000
  C   C186      1.0  0.41755  0.96238  0.09469  1.0000
  C   C187      1.0  0.23342  0.96937  0.34577  1.0000
  H   H190      1.0  0.43191  0.81579  0.24051  1.0000
  C   C188      1.0  0.36041  0.92128  0.21243  1.0000
  H   H191      1.0  0.26930  0.84538  0.45570  1.0000
  C   C189      1.0  0.23916  0.96625  0.31416  1.0000
  N   N17       1.0  0.32360  0.92313  0.25848  1.0000
  H   H192      1.0  0.22973  0.95331  0.36071  1.0000
  S   S79       1.0  0.47537  0.87984  0.08051  1.0000
  C   C190      1.0  0.17602  0.69953  0.29269  1.0000
  H   H193      1.0  0.11686  0.71185  0.22735  1.0000
  S   S80       1.0  0.46163  0.85266  0.17182  1.0000
  C   C191      1.0  0.41515  0.84039  0.30903  1.0000
  C   C192      1.0  0.37139  0.85221  0.23575  1.0000
  C   C193      1.0  0.37989  0.86917  0.25737  1.0000
  C   C194      1.0  0.36605  0.87367  0.28476  1.0000
  C   C195      1.0  0.34322  0.86182  0.29054  1.0000
  C   C196      1.0  0.33409  0.84572  0.26828  1.0000
  C   C197      1.0  0.34826  0.84076  0.24117  1.0000
  H   H194      1.0  0.39762  0.87805  0.25380  1.0000
  H   H195      1.0  0.37331  0.88608  0.30190  1.0000
  H   H196      1.0  0.31668  0.83622  0.27262  1.0000
  H   H197      1.0  0.34151  0.82752  0.22468  1.0000
  C   C198      1.0  0.36083  0.93980  0.23461  1.0000
  N   N18       1.0  0.44456  0.96474  0.09373  1.0000
  H   H198      1.0  0.37563  0.95347  0.23390  1.0000
  H   H199      1.0  0.29849  0.94278  0.28790  1.0000
  H   H200      1.0  0.22955  0.80621  0.41119  1.0000
  H   H201      1.0  0.10818  0.69138  0.25940  1.0000
  C   C199      1.0  0.30489  0.92356  0.28363  1.0000
  H   H202      1.0  0.41015  0.96382  0.07070  1.0000
  Fe  Fe44      1.0  0.47558  0.88491  0.19959  1.0000
  C   C200      1.0  0.43745  0.98030  0.17474  1.0000
  H   H203      1.0  0.40019  0.78949  0.29275  1.0000
  C   C201      1.0  0.11546  0.71019  0.25319  1.0000
  C   C202      1.0  0.48454  0.94626  0.08636  1.0000
  H   H204      1.0  0.24823  0.98522  0.27063  1.0000
  C   C203      1.0  0.45200  0.84433  0.26344  1.0000
  H   H205      1.0  0.37494  0.92043  0.19468  1.0000
  H   H206      1.0  0.40899  0.97690  0.10936  1.0000
  H   H207      1.0  0.18012  0.76151  0.27769  1.0000
  C   C204      1.0  0.46260  0.97545  0.17840  1.0000
  N   N19       1.0  0.01342  0.67859  0.44944  1.0000
  H   H208      1.0  0.14509  0.67678  0.28079  1.0000
  C   C205      1.0  0.17247  0.82052  0.40798  1.0000
  C   C206      1.0  0.39467  0.80712  0.28105  1.0000
  C   C207      1.0  0.44265  0.86296  0.03515  1.0000
  H   H209      1.0  0.30887  0.89063  0.23813  1.0000
  C   C208      1.0  0.21196  0.80184  0.42402  1.0000
  N   N20       1.0  0.19512  0.82300  0.42146  1.0000
  C   C209      1.0  0.26554  0.85415  0.47772  1.0000
  S   S81       1.0  0.47488  0.91118  0.15801  1.0000
  C   C210      1.0  0.45263  0.85978  0.28906  1.0000
  C   C211      1.0  0.24382  0.98742  0.29513  1.0000
  C   C212      1.0  0.16437  0.86395  0.41521  1.0000
  H   H210      1.0  0.13930  0.83903  0.39273  1.0000
  H   H211      1.0  0.15268  0.88010  0.41214  1.0000
  N   N21       1.0  0.13969  0.71460  0.26691  1.0000
  H   H212      1.0  0.46874  0.95701  0.18429  1.0000
  C   C213      1.0  0.43410  0.85786  0.31205  1.0000
  C   C214      1.0  0.25483  0.87771  0.47804  1.0000
  C   C215      1.0  0.43262  0.82728  0.26095  1.0000
  H   H213      1.0  0.34275  0.95467  0.27511  1.0000
  H   H214      1.0  0.37715  0.81381  0.29191  1.0000
  S   S82       1.0  0.00316  0.67789  0.35265  1.0000
  C   C216      1.0  0.34144  0.90369  0.21349  1.0000
  C   C217      1.0  0.14938  0.73804  0.26583  1.0000
  C   C218      1.0  0.18718  0.86614  0.42970  1.0000
  C   C219      1.0  0.15689  0.84098  0.40433  1.0000
  H   H215      1.0  0.19342  0.88397  0.43791  1.0000
  S   S83       1.0  0.43729  0.89583  0.21542  1.0000
  C   C220      1.0  0.46468  0.87545  0.04151  1.0000
  C   C221      1.0  0.20246  0.84537  0.43246  1.0000
  H   H216      1.0  0.46630  0.84585  0.24541  1.0000
  H   H217      1.0  0.22044  0.84733  0.44299  1.0000
  H   H218      1.0  0.28813  0.91269  0.27788  1.0000
  C   C222      1.0  0.17278  0.74276  0.27789  1.0000
  C   C223      1.0  0.18606  0.72339  0.29164  1.0000
  H   H219      1.0  0.20391  0.72700  0.30189  1.0000
  C   C224      1.0  0.34220  0.94039  0.25771  1.0000
  C   C225      1.0  0.45873  0.94442  0.08759  1.0000
  H   H220      1.0  0.46741  0.87334  0.29090  1.0000
  H   H221      1.0  0.99288  0.73139  0.35150  1.0000
  H   H222      1.0  0.45011  0.92654  0.08396  1.0000
  C   C226      1.0  0.47948  0.88397  0.01602  1.0000
  H   H223      1.0  0.10185  0.72393  0.26190  1.0000
  C   C227      1.0  0.32315  0.90480  0.23693  1.0000
  H   H224      1.0  0.34131  0.88887  0.19677  1.0000
  H   H225      1.0  0.41188  0.94431  0.10560  1.0000
  S   S84       1.0  0.10209  0.66948  0.43827  1.0000
  C   C228      1.0  0.02774  0.66233  0.43321  1.0000
  H   H226      1.0  0.43432  0.86992  0.33195  1.0000
  H   H227      1.0  0.00985  0.70581  0.41313  1.0000
  C   C229      1.0  0.48120  0.98987  0.09658  1.0000
  C   C230      1.0  0.99854  0.69678  0.43214  1.0000
  H   H228      1.0  0.02813  0.66300  0.40793  1.0000
  H   H229      1.0  0.18603  0.68433  0.30358  1.0000
  H   H230      1.0  0.41917  0.84829  0.99947  1.0000
  C   C231      1.0  0.01267  0.67760  0.48141  1.0000
  C   C232      1.0  0.43594  0.85853  0.00391  1.0000
  C   C233      1.0  0.45544  0.98737  0.09759  1.0000
  H   H231      1.0  0.00158  0.69063  0.49441  1.0000
  C   C234      1.0  0.02705  0.66038  0.49793  1.0000
  Fe  Fe45      1.0  0.45405  0.87493  0.89102  1.0000
  S   S85       1.0  0.44219  0.85919  0.93950  1.0000
  Fe  Fe46      1.0  0.43265  0.89168  0.82685  1.0000
  S   S86       1.0  0.47014  0.90458  0.80921  1.0000
  S   S87       1.0  0.40092  0.90157  0.79362  1.0000
  N   N22       1.0  0.18612  0.81985  0.59636  1.0000
  H   H232      1.0  0.47594  0.99117  0.92246  1.0000
  S   S88       1.0  0.44723  0.85522  0.84541  1.0000
  S   S89       1.0  0.43679  0.91036  0.87324  1.0000
  Fe  Fe47      1.0  0.26922  0.85644  0.61640  1.0000
  S   S90       1.0  0.23610  0.88029  0.62453  1.0000
  S   S91       1.0  0.27484  0.83755  0.57001  1.0000
  Fe  Fe48      1.0  0.28650  0.86063  0.68464  1.0000
  S   S92       1.0  0.25359  0.88426  0.69729  1.0000
  S   S93       1.0  0.31500  0.84614  0.71995  1.0000
  Fe  Fe49      1.0  0.23091  0.85747  0.66890  1.0000
  S   S94       1.0  0.19186  0.84244  0.68059  1.0000
  Fe  Fe50      1.0  0.26170  0.90455  0.65156  1.0000
  S   S95       1.0  0.26851  0.94531  0.63871  1.0000
  S   S96       1.0  0.26308  0.83261  0.65964  1.0000
  S   S97       1.0  0.29555  0.88182  0.64024  1.0000
  Fe  Fe51      1.0  0.10486  0.71815  0.66012  1.0000
  S   S98       1.0  0.10120  0.68487  0.62919  1.0000
  S   S99       1.0  0.14448  0.73416  0.66371  1.0000
  Fe  Fe52      1.0  0.04928  0.71518  0.67746  1.0000
  S   S100      1.0  0.04221  0.68226  0.64806  1.0000
  S   S101      1.0  0.01970  0.73528  0.70520  1.0000
  H   H233      1.0  0.44385  0.84307  0.73841  1.0000
  Fe  Fe53      1.0  0.06614  0.70225  0.61204  1.0000
  S   S102      1.0  0.05184  0.70878  0.56278  1.0000
  S   S103      1.0  0.08361  0.69936  0.70006  1.0000
  S   S104      1.0  0.07103  0.73646  0.64040  1.0000
  H   H234      1.0  0.22183  0.83566  0.58699  1.0000
  H   H235      1.0  0.15260  0.79939  0.60381  1.0000
  H   H236      1.0  0.22345  0.96447  0.59865  1.0000
  H   H237      1.0  0.24188  0.79550  0.57767  1.0000
  C   C235      1.0  0.06838  0.69988  0.52886  1.0000
  C   C236      1.0  0.08640  0.68136  0.52990  1.0000
  Fe  Fe54      1.0  0.47529  0.91958  0.85682  1.0000
  C   C237      1.0  0.99631  0.75024  0.62225  1.0000
  C   C238      1.0  0.17910  0.81216  0.67575  1.0000
  C   C239      1.0  0.19392  0.79138  0.67056  1.0000
  C   C240      1.0  0.18298  0.76773  0.66751  1.0000
  C   C241      1.0  0.15708  0.76449  0.66884  1.0000
  C   C242      1.0  0.14228  0.78531  0.67382  1.0000
  C   C243      1.0  0.15324  0.80887  0.67755  1.0000
  H   H238      1.0  0.21382  0.79346  0.66909  1.0000
  H   H239      1.0  0.19470  0.75184  0.66369  1.0000
  H   H240      1.0  0.12237  0.78323  0.67514  1.0000
  H   H241      1.0  0.14152  0.82470  0.68181  1.0000
  C   C244      1.0  0.26052  0.97445  0.65429  1.0000
  H   H242      1.0  0.14905  0.69498  0.71546  1.0000
  H   H243      1.0  0.43569  0.86111  0.77208  1.0000
  Fe  Fe55      1.0  0.07776  0.66741  0.66812  1.0000
  H   H244      1.0  0.47667  0.80925  0.89685  1.0000
  C   C245      1.0  0.14795  0.66769  0.67968  1.0000
  C   C246      1.0  0.17213  0.79867  0.59766  1.0000
  H   H245      1.0  0.17190  0.75881  0.59436  1.0000
  H   H246      1.0  0.01578  0.75338  0.62675  1.0000
  H   H247      1.0  0.43074  0.91013  0.73804  1.0000
  C   C247      1.0  0.37719  0.88557  0.77351  1.0000
  C   C248      1.0  0.37348  0.85996  0.77671  1.0000
  C   C249      1.0  0.35453  0.84826  0.75998  1.0000
  C   C250      1.0  0.33908  0.86189  0.73975  1.0000
  C   C251      1.0  0.34281  0.88748  0.73654  1.0000
  C   C252      1.0  0.36172  0.89918  0.75330  1.0000
  H   H248      1.0  0.38510  0.84917  0.79217  1.0000
  H   H249      1.0  0.35184  0.82846  0.76274  1.0000
  H   H250      1.0  0.33115  0.89829  0.72113  1.0000
  H   H251      1.0  0.36436  0.91899  0.75056  1.0000
  C   C253      1.0  0.25658  0.87695  0.53506  1.0000
  C   C254      1.0  0.26726  0.85340  0.53482  1.0000
  C   C255      1.0  0.17439  0.84385  0.60176  1.0000
  H   H252      1.0  0.25332  0.88601  0.55697  1.0000
  C   C256      1.0  0.25252  0.97649  0.56686  1.0000
  C   C257      1.0  0.48121  0.87403  0.73436  1.0000
  C   C258      1.0  0.45075  0.86699  0.97842  1.0000
  C   C259      1.0  0.27162  0.84201  0.50606  1.0000
  H   H253      1.0  0.22995  0.96174  0.68322  1.0000
  C   C260      1.0  0.44993  0.90485  0.73452  1.0000
  C   C261      1.0  0.18295  0.77563  0.59222  1.0000
  H   H254      1.0  0.45183  0.95637  0.82362  1.0000
  H   H255      1.0  0.21693  0.75663  0.58135  1.0000
  C   C262      1.0  0.45994  0.97469  0.82360  1.0000
  C   C263      1.0  0.44184  0.98642  0.89842  1.0000
  C   C264      1.0  0.21077  0.81886  0.58872  1.0000
  C   C265      1.0  0.23275  0.98024  0.58751  1.0000
  H   H256      1.0  0.48413  0.88672  0.96561  1.0000
  C   C266      1.0  0.48123  0.97917  0.84081  1.0000
  H   H257      1.0  0.40890  0.98716  0.87076  1.0000
  H   H258      1.0  0.15853  0.84191  0.61850  1.0000
  C   C267      1.0  0.46759  0.92333  0.72790  1.0000
  H   H259      1.0  0.16793  0.85207  0.57936  1.0000
  N   N23       1.0  0.26123  0.84878  0.77054  1.0000
  C   C268      1.0  0.23792  0.85815  0.76707  1.0000
  C   C269      1.0  0.26666  0.82538  0.76088  1.0000
  C   C270      1.0  0.21931  0.84397  0.75369  1.0000
  C   C271      1.0  0.24853  0.81075  0.74728  1.0000
  C   C272      1.0  0.22471  0.82014  0.74377  1.0000
  C   C273      1.0  0.28072  0.86461  0.78288  1.0000
  H   H260      1.0  0.23380  0.87695  0.77380  1.0000
  H   H261      1.0  0.28529  0.81813  0.76286  1.0000
  H   H262      1.0  0.20101  0.85165  0.75004  1.0000
  H   H263      1.0  0.25310  0.79250  0.73891  1.0000
  H   H264      1.0  0.21054  0.80921  0.73275  1.0000
  H   H265      1.0  0.29737  0.85374  0.78950  1.0000
  H   H266      1.0  0.28668  0.87846  0.76464  1.0000
  H   H267      1.0  0.27405  0.87440  0.80391  1.0000
  H   H268      1.0  0.18753  0.85686  0.61258  1.0000
  C   C274      1.0  0.22221  0.79614  0.58324  1.0000
  C   C275      1.0  0.24039  0.97769  0.67473  1.0000
  C   C276      1.0  0.47248  0.88005  0.98477  1.0000
  N   N24       1.0  0.45686  0.88056  0.73752  1.0000
  C   C277      1.0  0.14725  0.67541  0.71051  1.0000
  H   H269      1.0  0.25839  0.95779  0.56169  1.0000
  H   H270      1.0  0.24207  0.90720  0.50723  1.0000
  C   C278      1.0  0.20820  0.77440  0.58517  1.0000
  C   C279      1.0  0.43828  0.86173  0.74629  1.0000
  H   H271      1.0  0.28001  0.82385  0.50568  1.0000
  H   H272      1.0  0.09158  0.67316  0.55213  1.0000
  H   H273      1.0  0.46209  0.94262  0.72627  1.0000
  C   C280      1.0  0.25030  0.88897  0.50681  1.0000
  H   H274      1.0  0.00270  0.71634  0.59794  1.0000
  H   H275      1.0  0.44187  0.96641  0.90150  1.0000
  H   H276      1.0  0.15044  0.68117  0.66071  1.0000
  H   H277      1.0  0.14331  0.66396  0.75864  1.0000
  C   C281      1.0  0.09713  0.67277  0.50198  1.0000
  H   H278      1.0  0.42013  0.86613  0.73562  1.0000
  H   H279      1.0  0.48236  0.82548  0.95003  1.0000
  C   C282      1.0  0.06177  0.71023  0.49977  1.0000
  H   H280      1.0  0.48691  0.85492  0.73787  1.0000
  H   H281      1.0  0.43148  0.99098  0.79507  1.0000
  H   H282      1.0  0.02737  0.66043  0.52327  1.0000
  Fe  Fe56      1.0  0.48502  0.86945  0.82980  1.0000
  H   H283      1.0  0.04792  0.72463  0.49876  1.0000
  H   H284      1.0  0.75195  0.20309  0.26591  1.0000
  S   S105      1.0  0.51112  0.14746  0.21765  1.0000
  S   S106      1.0  0.49434  0.04124  0.15764  1.0000
  Fe  Fe57      1.0  0.66794  0.09082  0.35356  1.0000
  S   S107      1.0  0.63029  0.10826  0.35507  1.0000
  S   S108      1.0  0.67069  0.05191  0.37521  1.0000
  Fe  Fe58      1.0  0.69344  0.14167  0.33635  1.0000
  S   S109      1.0  0.65704  0.16185  0.33662  1.0000
  S   S110      1.0  0.73221  0.15829  0.32742  1.0000
  Fe  Fe59      1.0  0.64886  0.13904  0.38064  1.0000
  S   S111      1.0  0.63171  0.15327  0.42573  1.0000
  Fe  Fe60      1.0  0.64191  0.12894  0.31102  1.0000
  S   S112      1.0  0.62167  0.12788  0.26428  1.0000
  S   S113      1.0  0.68584  0.12064  0.38130  1.0000
  S   S114      1.0  0.67909  0.10980  0.30822  1.0000
  Fe  Fe61      1.0  0.81593  0.28564  0.33853  1.0000
  S   S115      1.0  0.50417  0.10927  0.13763  1.0000
  S   S116      1.0  0.77762  0.26813  0.33023  1.0000
  Fe  Fe62      1.0  0.87268  0.29064  0.33062  1.0000
  S   S117      1.0  0.90851  0.27723  0.30818  1.0000
  C   C283      1.0  0.61234  0.09040  0.48543  1.0000
  N   N25       1.0  0.71850  0.18346  0.25625  1.0000
  S   S118      1.0  0.84805  0.26742  0.36246  1.0000
  S   S119      1.0  0.84058  0.30628  0.30318  1.0000
  C   C284      1.0  0.68124  0.06254  0.45307  1.0000
  C   C285      1.0  0.65164  0.07099  0.49562  1.0000
  C   C286      1.0  0.52701  0.10054  0.29475  1.0000
  H   H285      1.0  0.71948  0.14506  0.24562  1.0000
  C   C287      1.0  0.93659  0.27888  0.32898  1.0000
  C   C288      1.0  0.95913  0.27361  0.31370  1.0000
  H   H286      1.0  0.82681  0.21572  0.44958  1.0000
  C   C289      1.0  0.95952  0.28783  0.37588  1.0000
  C   C290      1.0  0.93692  0.28600  0.36016  1.0000
  H   H287      1.0  0.95907  0.26800  0.28962  1.0000
  C   C291      1.0  0.74443  0.18878  0.33196  1.0000
  C   C292      1.0  0.72924  0.20964  0.33420  1.0000
  C   C293      1.0  0.73976  0.23366  0.33395  1.0000
  C   C294      1.0  0.76559  0.23724  0.33216  1.0000
  C   C295      1.0  0.78081  0.21634  0.33088  1.0000
  C   C296      1.0  0.77027  0.19235  0.33048  1.0000
  H   H288      1.0  0.70936  0.20731  0.33531  1.0000
  H   H289      1.0  0.72776  0.24963  0.33497  1.0000
  H   H290      1.0  0.80067  0.21868  0.32919  1.0000
  H   H291      1.0  0.78225  0.17642  0.32849  1.0000
  C   C297      1.0  0.64543  0.14549  0.46194  1.0000
  C   C298      1.0  0.66841  0.13380  0.46300  1.0000
  H   H292      1.0  0.49978  0.09786  0.25893  1.0000
  H   H293      1.0  0.67874  0.13082  0.44185  1.0000
  C   C299      1.0  0.70397  0.20344  0.26289  1.0000
  C   C300      1.0  0.52433  0.07368  0.21525  1.0000
  C   C301      1.0  0.54228  0.14274  0.22955  1.0000
  C   C302      1.0  0.54967  0.15139  0.25879  1.0000
  C   C303      1.0  0.57382  0.14710  0.26987  1.0000
  C   C304      1.0  0.59107  0.13447  0.25153  1.0000
  C   C305      1.0  0.58389  0.12643  0.22194  1.0000
  C   C306      1.0  0.55963  0.13033  0.21110  1.0000
  H   H294      1.0  0.53650  0.16123  0.27314  1.0000
  H   H295      1.0  0.57905  0.15365  0.29253  1.0000
  H   H296      1.0  0.59713  0.11690  0.20735  1.0000
  H   H297      1.0  0.55446  0.12396  0.18834  1.0000
  C   C307      1.0  0.67213  0.02018  0.32478  1.0000
  C   C308      1.0  0.66971  0.02266  0.35713  1.0000
  C   C309      1.0  0.98207  0.28280  0.36058  1.0000
  H   H298      1.0  0.67431  0.03651  0.30989  1.0000
  C   C310      1.0  0.80407  0.25801  0.46301  1.0000
  H   H299      1.0  0.67875  0.04378  0.44340  1.0000
  H   H300      1.0  0.75146  0.18747  0.22904  1.0000
  C   C311      1.0  0.67247  0.99640  0.31175  1.0000
  H   H301      1.0  0.84460  0.23846  0.42709  1.0000
  H   H302      1.0  0.95950  0.29325  0.40004  1.0000
  C   C312      1.0  0.64083  0.08127  0.44339  1.0000
  C   C313      1.0  0.78692  0.27699  0.46765  1.0000
  H   H303      1.0  0.76487  0.28110  0.39380  1.0000
  H   H304      1.0  0.53728  0.06150  0.20238  1.0000
  H   H305      1.0  0.71232  0.22120  0.26783  1.0000
  H   H306      1.0  0.90078  0.31451  0.48489  1.0000
  H   H307      1.0  0.75473  0.17020  0.26554  1.0000
  C   C314      1.0  0.66713  0.00120  0.37615  1.0000
  C   C315      1.0  0.51843  0.09296  0.26582  1.0000
  H   H308      1.0  0.78532  0.28569  0.49021  1.0000
  H   H309      1.0  0.60568  0.09934  0.43692  1.0000
  H   H310      1.0  0.69516  0.06168  0.47187  1.0000
  C   C316      1.0  0.74547  0.18624  0.25392  1.0000
  C   C317      1.0  0.82885  0.32491  0.47566  1.0000
  N   N26       1.0  0.53367  0.08056  0.24579  1.0000
  C   C318      1.0  0.55768  0.07575  0.25353  1.0000
  C   C319      1.0  0.98180  0.27566  0.32937  1.0000
  C   C320      1.0  0.56691  0.08313  0.28223  1.0000
  H   H311      1.0  0.79560  0.24788  0.38688  1.0000
  C   C321      1.0  0.55142  0.09556  0.30295  1.0000
  H   H312      1.0  0.50648  0.06352  0.21800  1.0000
  H   H313      1.0  0.57011  0.06695  0.23709  1.0000
  N   N27       1.0  0.65740  0.07193  0.46438  1.0000
  H   H314      1.0  0.58625  0.08025  0.28774  1.0000
  H   H315      1.0  0.55863  0.10216  0.32476  1.0000
  S   S120      1.0  0.81478  0.31784  0.37149  1.0000
  C   C322      1.0  0.63273  0.14999  0.49018  1.0000
  H   H316      1.0  0.59521  0.09854  0.49372  1.0000
  H   H317      1.0  0.82313  0.21836  0.40806  1.0000
  N   N28       1.0  0.80698  0.24770  0.43431  1.0000
  C   C323      1.0  0.79302  0.25574  0.40975  1.0000
  C   C324      1.0  0.84288  0.30322  0.47717  1.0000
  H   H318      1.0  0.64541  0.08209  0.41865  1.0000
  C   C325      1.0  0.82628  0.22908  0.42952  1.0000
  Fe  Fe63      1.0  0.84821  0.30057  0.39336  1.0000
  H   H319      1.0  0.91973  0.28986  0.37232  1.0000
  C   C326      1.0  0.61816  0.09080  0.45358  1.0000
  C   C327      1.0  0.77559  0.27457  0.41357  1.0000
  C   C328      1.0  0.67816  0.20117  0.26390  1.0000
  S   S121      1.0  0.85630  0.28997  0.44379  1.0000
  H   H320      1.0  0.66668  0.21692  0.26965  1.0000
  H   H321      1.0  0.67383  0.14034  0.24617  1.0000
  H   H322      1.0  0.64726  0.17628  0.25834  1.0000
  C   C329      1.0  0.68221  0.15817  0.25077  1.0000
  C   C330      1.0  0.70796  0.16100  0.25035  1.0000
  C   C331      1.0  0.66726  0.17840  0.25760  1.0000
  H   H323      1.0  0.81575  0.25225  0.48218  1.0000
  H   H324      1.0  0.66528  0.00291  0.40118  1.0000
  H   H325      1.0  0.52131  0.09063  0.20067  1.0000
  H   H326      1.0  0.51507  0.11105  0.31009  1.0000
  H   H327      1.0  0.75970  0.30043  0.44572  1.0000
  C   C332      1.0  0.77268  0.28536  0.44268  1.0000
  H   H328      1.0  0.68891  0.07488  0.43411  1.0000
  S   S122      1.0  0.87480  0.32248  0.36289  1.0000
  H   H329      1.0  0.92434  0.32137  0.27090  1.0000
  H   H330      1.0  0.67489  0.99464  0.28678  1.0000
  H   H331      1.0  0.69547  0.11570  0.49172  1.0000
  C   C333      1.0  0.67799  0.12542  0.49150  1.0000
  H   H332      1.0  0.61500  0.15922  0.48966  1.0000
  C   C334      1.0  0.96705  0.29961  0.71131  1.0000
  S   S123      1.0  0.52643  0.13931  0.79805  1.0000
  Fe  Fe64      1.0  0.66633  0.12307  0.60419  1.0000
  S   S124      1.0  0.69936  0.12254  0.63552  1.0000
  S   S125      1.0  0.67740  0.11591  0.55390  1.0000
  Fe  Fe65      1.0  0.62980  0.12912  0.65976  1.0000
  S   S126      1.0  0.66061  0.12953  0.69439  1.0000
  S   S127      1.0  0.58818  0.12657  0.67070  1.0000
  Fe  Fe66      1.0  0.68132  0.15461  0.65941  1.0000
  S   S128      1.0  0.69887  0.19318  0.66635  1.0000
  Fe  Fe67      1.0  0.67599  0.09755  0.66687  1.0000
  S   S129      1.0  0.68810  0.06137  0.69034  1.0000
  S   S130      1.0  0.64905  0.15621  0.62628  1.0000
  S   S131      1.0  0.64438  0.09609  0.63407  1.0000
  Fe  Fe68      1.0  0.82259  0.28067  0.66194  1.0000
  C   C335      1.0  0.98428  0.28214  0.62716  1.0000
  S   S132      1.0  0.80747  0.24136  0.67229  1.0000
  Fe  Fe69      1.0  0.87074  0.31181  0.65393  1.0000
  C   C336      1.0  0.90870  0.30529  0.53302  1.0000
  H   H333      1.0  0.49259  0.21474  0.78742  1.0000
  H   H334      1.0  0.84087  0.29272  0.55597  1.0000
  C   C337      1.0  0.67110  0.00784  0.62807  1.0000
  S   S133      1.0  0.84712  0.30069  0.69590  1.0000
  S   S134      1.0  0.84865  0.28885  0.62102  1.0000
  C   C338      1.0  0.93909  0.30601  0.64159  1.0000
  C   C339      1.0  0.93932  0.28068  0.63549  1.0000
  C   C340      1.0  0.96182  0.26887  0.62806  1.0000
  C   C341      1.0  0.74027  0.27164  0.72226  1.0000
  C   C342      1.0  0.96031  0.32434  0.71549  1.0000
  H   H335      1.0  0.92229  0.27012  0.63698  1.0000
  C   C343      1.0  0.64250  0.14182  0.51900  1.0000
  C   C344      1.0  0.68800  0.01021  0.68907  1.0000
  C   C345      1.0  0.62909  0.08029  0.50663  1.0000
  H   H336      1.0  0.75189  0.14549  0.54769  1.0000
  H   H337      1.0  0.98325  0.25688  0.69186  1.0000
  H   H338      1.0  0.80074  0.30561  0.74204  1.0000
  C   C346      1.0  0.72967  0.20552  0.66493  1.0000
  C   C347      1.0  0.73314  0.23098  0.65812  1.0000
  C   C348      1.0  0.75690  0.24203  0.65876  1.0000
  C   C349      1.0  0.77754  0.22789  0.66710  1.0000
  C   C350      1.0  0.77412  0.20236  0.67345  1.0000
  C   C351      1.0  0.75046  0.19119  0.67205  1.0000
  H   H339      1.0  0.71728  0.24233  0.65256  1.0000
  H   H340      1.0  0.75911  0.26164  0.65371  1.0000
  H   H341      1.0  0.78987  0.19116  0.67995  1.0000
  H   H342      1.0  0.74821  0.17166  0.67762  1.0000
  C   C352      1.0  0.54399  0.13354  0.76341  1.0000
  C   C353      1.0  0.56857  0.14216  0.76098  1.0000
  C   C354      1.0  0.58262  0.13954  0.73317  1.0000
  C   C355      1.0  0.57203  0.12873  0.70714  1.0000
  C   C356      1.0  0.54751  0.11994  0.70965  1.0000
  C   C357      1.0  0.53366  0.12205  0.73768  1.0000
  H   H343      1.0  0.57674  0.15116  0.78066  1.0000
  H   H344      1.0  0.60137  0.14655  0.73162  1.0000
  H   H345      1.0  0.53915  0.11146  0.68972  1.0000
  H   H346      1.0  0.51484  0.11520  0.73918  1.0000
  C   C358      1.0  0.60323  0.06111  0.68396  1.0000
  C   C359      1.0  0.68352  0.03240  0.67220  1.0000
  C   C360      1.0  0.67491  0.03104  0.64166  1.0000
  H   H347      1.0  0.69481  0.01100  0.71264  1.0000
  H   H348      1.0  0.67155  0.04787  0.62828  1.0000
  H   H349      1.0  0.49899  0.15513  0.70206  1.0000
  C   C361      1.0  0.66497  0.12900  0.51953  1.0000
  H   H350      1.0  0.71638  0.15719  0.51418  1.0000
  H   H351      1.0  0.62513  0.08058  0.53154  1.0000
  H   H352      1.0  0.63235  0.14477  0.54057  1.0000
  H   H353      1.0  0.64815  0.05848  0.77199  1.0000
  N   N29       1.0  0.71974  0.16506  0.56247  1.0000
  C   C362      1.0  0.71092  0.17835  0.58703  1.0000
  C   C363      1.0  0.70994  0.16830  0.53342  1.0000
  H   H354      1.0  0.76010  0.23836  0.73361  1.0000
  C   C364      1.0  0.74153  0.29740  0.71935  1.0000
  H   H355      1.0  0.66055  0.08049  0.74351  1.0000
  C   C365      1.0  0.73857  0.14598  0.56767  1.0000
  H   H356      1.0  0.71842  0.17550  0.61014  1.0000
  N   N30       1.0  0.63052  0.05923  0.72770  1.0000
  H   H357      1.0  0.91877  0.28854  0.52757  1.0000
  H   H358      1.0  0.68470  0.20569  0.60259  1.0000
  H   H359      1.0  0.80346  0.23703  0.74154  1.0000
  C   C366      1.0  0.90535  0.31215  0.56401  1.0000
  C   C367      1.0  0.78382  0.29587  0.73647  1.0000
  C   C368      1.0  0.69180  0.19546  0.58285  1.0000
  C   C369      1.0  0.69066  0.18511  0.52841  1.0000
  S   S135      1.0  0.91192  0.32166  0.65363  1.0000
  C   C370      1.0  0.80410  0.25650  0.74949  1.0000
  C   C371      1.0  0.62475  0.02321  0.69660  1.0000
  C   C372      1.0  0.96144  0.31941  0.63965  1.0000
  H   H360      1.0  0.66624  0.21142  0.55001  1.0000
  C   C373      1.0  0.76337  0.30964  0.72666  1.0000
  H   H361      1.0  0.95260  0.28572  0.70987  1.0000
  C   C374      1.0  0.64325  0.07176  0.75291  1.0000
  H   H362      1.0  0.91294  0.30094  0.58286  1.0000
  C   C375      1.0  0.60844  0.03641  0.67763  1.0000
  C   C376      1.0  0.82396  0.32379  0.53254  1.0000
  H   H363      1.0  0.96191  0.24921  0.62361  1.0000
  C   C377      1.0  0.61466  0.07234  0.70910  1.0000
  C   C378      1.0  0.98395  0.30752  0.63281  1.0000
  N   N31       1.0  0.78260  0.27056  0.73864  1.0000
  H   H364      1.0  0.66483  0.00708  0.60426  1.0000
  H   H365      1.0  0.80482  0.25657  0.77536  1.0000
  C   C379      1.0  0.68151  0.19869  0.55338  1.0000
  S   S136      1.0  0.79847  0.31382  0.65352  1.0000
  C   C380      1.0  0.76109  0.25843  0.73209  1.0000
  C   C381      1.0  0.83745  0.30179  0.53379  1.0000
  H   H366      1.0  0.50121  0.18528  0.80490  1.0000
  H   H367      1.0  0.61100  0.09170  0.71341  1.0000
  H   H368      1.0  0.59084  0.07176  0.66918  1.0000
  H   H369      1.0  0.72566  0.30787  0.71133  1.0000
  H   H370      1.0  0.74931  0.14945  0.58909  1.0000
  H   H371      1.0  0.63138  0.08634  0.76322  1.0000
  H   H372      1.0  0.72942  0.12756  0.57042  1.0000
  H   H373      1.0  0.62953  0.00420  0.69137  1.0000
  C   C382      1.0  0.63574  0.03501  0.72165  1.0000
  H   H374      1.0  0.72348  0.26183  0.71636  1.0000
  H   H375      1.0  0.82147  0.26457  0.73943  1.0000
  H   H376      1.0  0.64918  0.02493  0.73549  1.0000
  H   H377      1.0  0.60018  0.02761  0.65779  1.0000
  H   H378      1.0  0.50814  0.00636  0.85388  1.0000
  H   H379      1.0  0.66486  0.06396  0.51242  1.0000
  C   C383      1.0  0.84685  0.29157  0.50625  1.0000
  H   H380      1.0  0.51331  0.17598  0.74931  1.0000
  H   H381      1.0  0.49919  0.02901  0.92083  1.0000
  H   H382      1.0  0.68236  0.18695  0.50554  1.0000
  C   C384      1.0  0.49359  0.17438  0.74527  1.0000
  Fe  Fe70      1.0  0.82548  0.32292  0.61432  1.0000
  C   C385      1.0  0.89880  0.31996  0.50908  1.0000
  H   H383      1.0  0.85761  0.27471  0.50756  1.0000
  N   N32       1.0  0.99140  0.29323  0.70771  1.0000
  Fe  Fe71      1.0  0.83040  0.53627  0.19291  1.0000
  S   S137      1.0  0.85377  0.50984  0.22063  1.0000
  S   S138      1.0  0.80802  0.56704  0.21551  1.0000
  Fe  Fe72      1.0  0.84781  0.51561  0.12821  1.0000
  S   S139      1.0  0.87287  0.48816  0.15210  1.0000
  S   S140      1.0  0.85227  0.52631  0.07592  1.0000
  Fe  Fe73      1.0  0.84152  0.48121  0.18672  1.0000
  S   S141      1.0  0.82954  0.44163  0.19983  1.0000
  Fe  Fe74      1.0  0.88280  0.51889  0.18419  1.0000
  S   S142      1.0  0.92038  0.53267  0.19746  1.0000
  S   S143      1.0  0.81544  0.50710  0.16092  1.0000
  S   S144      1.0  0.86019  0.54685  0.15839  1.0000
  S   S145      1.0  0.84262  0.63426  0.32818  1.0000
  H   H384      1.0  0.94973  0.45289  0.16028  1.0000
  H   H385      1.0  0.80238  0.64386  0.47187  1.0000
  S   S146      1.0  0.84194  0.37908  0.32722  1.0000
  H   H386      1.0  0.86255  0.62672  0.23831  1.0000
  C   C386      1.0  0.77406  0.43490  0.24178  1.0000
  H   H387      1.0  0.92191  0.46400  0.08112  1.0000
  C   C387      1.0  0.84447  0.51498  0.03827  1.0000
  C   C388      1.0  0.83287  0.49208  0.03419  1.0000
  C   C389      1.0  0.89167  0.63758  0.26864  1.0000
  H   H388      1.0  0.82798  0.48062  0.05441  1.0000
  N   N33       1.0  0.93086  0.52393  0.09964  1.0000
  C   C390      1.0  0.94334  0.51149  0.18687  1.0000
  C   C391      1.0  0.93688  0.48745  0.17868  1.0000
  C   C392      1.0  0.95493  0.47128  0.16735  1.0000
  C   C393      1.0  0.91687  0.54635  0.10679  1.0000
  C   C394      1.0  0.96813  0.51899  0.18522  1.0000
  H   H389      1.0  0.91799  0.48120  0.18115  1.0000
  H   H390      1.0  0.97326  0.53754  0.19174  1.0000
  C   C395      1.0  0.83586  0.42399  0.23444  1.0000
  C   C396      1.0  0.84507  0.43487  0.26125  1.0000
  C   C397      1.0  0.84713  0.42075  0.28925  1.0000
  C   C398      1.0  0.84058  0.39546  0.29069  1.0000
  C   C399      1.0  0.83205  0.38443  0.26362  1.0000
  C   C400      1.0  0.82955  0.39866  0.23578  1.0000
  H   H391      1.0  0.85006  0.45429  0.26063  1.0000
  H   H392      1.0  0.85380  0.42947  0.31001  1.0000
  H   H393      1.0  0.82686  0.36505  0.26431  1.0000
  H   H394      1.0  0.82238  0.39002  0.21522  1.0000
  C   C401      1.0  0.81813  0.58571  0.24662  1.0000
  C   C402      1.0  0.83604  0.57747  0.26766  1.0000
  C   C403      1.0  0.84297  0.59245  0.29266  1.0000
  C   C404      1.0  0.83245  0.61601  0.29671  1.0000
  C   C405      1.0  0.81468  0.62434  0.27555  1.0000
  C   C406      1.0  0.80742  0.60915  0.25086  1.0000
  H   H395      1.0  0.84428  0.55940  0.26497  1.0000
  H   H396      1.0  0.85673  0.58579  0.30887  1.0000
  C   C407      1.0  0.95744  0.48088  0.08889  1.0000
  H   H397      1.0  0.79342  0.61565  0.23486  1.0000
  H   H398      1.0  0.75383  0.43315  0.24600  1.0000
  C   C408      1.0  0.93173  0.48089  0.08652  1.0000
  H   H399      1.0  0.79094  0.65015  0.41543  1.0000
  H   H400      1.0  0.94650  0.60751  0.27587  1.0000
  H   H401      1.0  0.96512  0.32614  0.24438  1.0000
  C   C409      1.0  0.82072  0.63946  0.46294  1.0000
  C   C410      1.0  0.97275  0.32919  0.26725  1.0000
  C   C411      1.0  0.79587  0.50869  0.26048  1.0000
  C   C412      1.0  0.85056  0.52951  0.01146  1.0000
  C   C413      1.0  0.86799  0.63043  0.44010  1.0000
  H   H402      1.0  0.92375  0.64382  0.29671  1.0000
  C   C414      1.0  0.78384  0.50336  0.23285  1.0000
  C   C415      1.0  0.93065  0.33549  0.28759  1.0000
  H   H403      1.0  0.89421  0.58496  0.19132  1.0000
  C   C416      1.0  0.95603  0.52395  0.10251  1.0000
  H   H404      1.0  0.91391  0.54739  0.13243  1.0000
  C   C417      1.0  0.98628  0.50274  0.17412  1.0000
  C   C418      1.0  0.91677  0.59696  0.24563  1.0000
  C   C419      1.0  0.80107  0.48955  0.28180  1.0000
  C   C420      1.0  0.91535  0.63223  0.27934  1.0000
  H   H405      1.0  0.89852  0.54644  0.09539  1.0000
  C   C421      1.0  0.91865  0.50275  0.09188  1.0000
  H   H406      1.0  0.86367  0.59300  0.20510  1.0000
  C   C422      1.0  0.80291  0.63375  0.41141  1.0000
  H   H407      1.0  0.88643  0.62723  0.43071  1.0000
  H   H408      1.0  0.78371  0.42101  0.25678  1.0000
  C   C423      1.0  0.84081  0.64074  0.48303  1.0000
  H   H409      1.0  0.81073  0.49343  0.30315  1.0000
  H   H410      1.0  0.87968  0.56734  0.22284  1.0000
  H   H411      1.0  0.79805  0.45050  0.29192  1.0000
  H   H412      1.0  0.76842  0.47476  0.20496  1.0000
  H   H413      1.0  0.77993  0.51817  0.21606  1.0000
  Fe  Fe75      1.0  0.84143  0.33716  0.33755  1.0000
  H   H414      1.0  0.77851  0.43010  0.21719  1.0000
  H   H415      1.0  0.89864  0.50259  0.09013  1.0000
  N   N34       1.0  0.78227  0.46021  0.24796  1.0000
  C   C424      1.0  0.88217  0.58627  0.21248  1.0000
  C   C425      1.0  0.84744  0.62915  0.42071  1.0000
  C   C426      1.0  0.77728  0.47885  0.22682  1.0000
  C   C427      1.0  0.92807  0.61184  0.26771  1.0000
  H   H416      1.0  0.80135  0.52762  0.26510  1.0000
  C   C428      1.0  0.79388  0.46530  0.27527  1.0000
  H   H417      1.0  0.82559  0.33394  0.45329  1.0000
  H   H418      1.0  0.79195  0.61660  0.41590  1.0000
  H   H419      1.0  0.80635  0.64237  0.27833  1.0000
  N   N35       1.0  0.82426  0.63425  0.43208  1.0000
  C   C429      1.0  0.97956  0.47906  0.16453  1.0000
  N   N36       1.0  0.89358  0.60245  0.23521  1.0000
  H   H420      1.0  0.92656  0.58090  0.23688  1.0000
  H   H421      1.0  0.80868  0.63452  0.38633  1.0000
  H   H422      1.0  0.95492  0.34097  0.34091  1.0000
  C   C430      1.0  0.88108  0.62253  0.24624  1.0000
  H   H423      1.0  0.88038  0.63820  0.48659  1.0000
  H   H424      1.0  0.92693  0.56320  0.09826  1.0000
  H   H425      1.0  0.85025  0.62483  0.39625  1.0000
  H   H426      1.0  0.92015  0.33161  0.30973  1.0000
  H   H427      1.0  0.96565  0.54041  0.10995  1.0000
  C   C431      1.0  0.86461  0.63647  0.47141  1.0000
  H   H428      1.0  0.98966  0.50248  0.09950  1.0000
  C   C432      1.0  0.96705  0.33772  0.32103  1.0000
  H   H429      1.0  0.96787  0.46392  0.08580  1.0000
  H   H430      1.0  0.88135  0.65305  0.27802  1.0000
  C   C433      1.0  0.96973  0.50259  0.09661  1.0000
  H   H431      1.0  0.92568  0.35425  0.27864  1.0000
  N   N37       1.0  0.95743  0.33378  0.29219  1.0000
  H   H432      1.0  0.85940  0.54732  0.01418  1.0000
  C   C434      1.0  0.82740  0.48399  0.00383  1.0000
  H   H433      1.0  0.81833  0.46630  0.00110  1.0000
  H   H434      1.0  0.87718  0.35212  0.49789  1.0000
  Fe  Fe76      1.0  0.83660  0.50208  0.88983  1.0000
  S   S147      1.0  0.84632  0.54153  0.87684  1.0000
  S   S148      1.0  0.82644  0.48712  0.93921  1.0000
  Fe  Fe77      1.0  0.84972  0.48293  0.82332  1.0000
  S   S149      1.0  0.86150  0.52107  0.80643  1.0000
  S   S150      1.0  0.85922  0.45254  0.78830  1.0000
  Fe  Fe78      1.0  0.87914  0.52495  0.85289  1.0000
  S   S151      1.0  0.91634  0.54207  0.85957  1.0000
  Fe  Fe79      1.0  0.82770  0.53503  0.83102  1.0000
  S   S152      1.0  0.80440  0.56431  0.80599  1.0000
  S   S153      1.0  0.87087  0.48589  0.86798  1.0000
  S   S154      1.0  0.81435  0.49655  0.84572  1.0000
  H   H435      1.0  0.84957  0.53309  0.96093  1.0000
  S   S155      1.0  0.80889  0.35927  0.72314  1.0000
  H   H436      1.0  0.94515  0.54343  0.77833  1.0000
  C   C435      1.0  0.93908  0.52172  0.84700  1.0000
  C   C436      1.0  0.93280  0.50122  0.82934  1.0000
  C   C437      1.0  0.95126  0.48488  0.81952  1.0000
  S   S156      1.0  0.84900  0.34666  0.64445  1.0000
  C   C438      1.0  0.96364  0.52571  0.85522  1.0000
  H   H437      1.0  0.91380  0.49809  0.82292  1.0000
  H   H438      1.0  0.96843  0.54143  0.86920  1.0000
  C   C439      1.0  0.81834  0.58710  0.78070  1.0000
  C   C440      1.0  0.80363  0.60559  0.76663  1.0000
  C   C441      1.0  0.81394  0.62284  0.74473  1.0000
  C   C442      1.0  0.83904  0.62153  0.73644  1.0000
  C   C443      1.0  0.85370  0.60314  0.75064  1.0000
  C   C444      1.0  0.84351  0.58622  0.77283  1.0000
  H   H439      1.0  0.78411  0.60642  0.77246  1.0000
  H   H440      1.0  0.78743  0.47690  0.74964  1.0000
  H   H441      1.0  0.87312  0.60192  0.74444  1.0000
  H   H442      1.0  0.85511  0.57223  0.78345  1.0000
  C   C445      1.0  0.82307  0.38538  0.74072  1.0000
  C   C446      1.0  0.80981  0.39855  0.76356  1.0000
  C   C447      1.0  0.82041  0.41913  0.77835  1.0000
  C   C448      1.0  0.84452  0.42682  0.77052  1.0000
  C   C449      1.0  0.85771  0.41371  0.74760  1.0000
  C   C450      1.0  0.84711  0.39319  0.73278  1.0000
  H   H443      1.0  0.79124  0.39269  0.77003  1.0000
  H   H444      1.0  0.81002  0.42877  0.79608  1.0000
  H   H445      1.0  0.87638  0.41939  0.74133  1.0000
  H   H446      1.0  0.85761  0.38332  0.71535  1.0000
  C   C451      1.0  0.89992  0.45120  0.92148  1.0000
  H   H447      1.0  0.94685  0.48722  0.89518  1.0000
  C   C452      1.0  0.83340  0.49859  0.97704  1.0000
  S   S157      1.0  0.85337  0.64203  0.70856  1.0000
  H   H448      1.0  0.80238  0.63682  0.73393  1.0000
  N   N38       1.0  0.81283  0.50690  0.74715  1.0000
  C   C453      1.0  0.80297  0.52987  0.74165  1.0000
  C   C454      1.0  0.83534  0.50083  0.73449  1.0000
  C   C455      1.0  0.81601  0.54766  0.72371  1.0000
  C   C456      1.0  0.84909  0.51834  0.71694  1.0000
  C   C457      1.0  0.83936  0.54196  0.71169  1.0000
  H   H449      1.0  0.78522  0.53484  0.75189  1.0000
  H   H450      1.0  0.95023  0.44666  0.87486  1.0000
  H   H451      1.0  0.80836  0.56605  0.72006  1.0000
  H   H452      1.0  0.86722  0.51362  0.70773  1.0000
  H   H453      1.0  0.84990  0.55595  0.69859  1.0000
  H   H454      1.0  0.92756  0.51640  0.93177  1.0000
  H   H455      1.0  0.78632  0.49715  0.78286  1.0000
  H   H456      1.0  0.81123  0.47579  0.77868  1.0000
  H   H457      1.0  0.89126  0.43342  0.91751  1.0000
  H   H458      1.0  0.85286  0.37325  0.53757  1.0000
  C   C458      1.0  0.93068  0.48138  0.90868  1.0000
  C   C459      1.0  0.86803  0.37006  0.55445  1.0000
  N   N39       1.0  0.92050  0.45848  0.90459  1.0000
  H   H459      1.0  0.84295  0.48245  0.73831  1.0000
  H   H460      1.0  0.88956  0.33880  0.59482  1.0000
  H   H461      1.0  0.85888  0.36834  0.57785  1.0000
  S   S158      1.0  0.81349  0.33800  0.56700  1.0000
  C   C460      1.0  0.92002  0.49786  0.92968  1.0000
  C   C461      1.0  0.88907  0.46703  0.94316  1.0000
  C   C462      1.0  0.97869  0.34251  0.71637  1.0000
  H   H462      1.0  0.96143  0.33904  0.64423  1.0000
  H   H463      1.0  0.96812  0.57426  0.80821  1.0000
  H   H464      1.0  0.91980  0.44565  0.85829  1.0000
  C   C463      1.0  0.97592  0.48902  0.82742  1.0000
  H   H465      1.0  0.80886  0.35216  0.50219  1.0000
  Fe  Fe80      1.0  0.82453  0.33460  0.68461  1.0000
  H   H466      1.0  0.97373  0.36180  0.71917  1.0000
  H   H467      1.0  0.89040  0.50328  0.96305  1.0000
  H   H468      1.0  0.94647  0.46920  0.80548  1.0000
  C   C464      1.0  0.89911  0.49056  0.94705  1.0000
  C   C465      1.0  0.97807  0.52453  0.76287  1.0000
  C   C466      1.0  0.84501  0.52148  0.98113  1.0000
  C   C467      1.0  0.79868  0.48828  0.76540  1.0000
  H   H469      1.0  0.92900  0.42268  0.88727  1.0000
  C   C468      1.0  0.97838  0.56045  0.79538  1.0000
  C   C469      1.0  0.98204  0.50933  0.84544  1.0000
  C   C470      1.0  0.93037  0.44254  0.88011  1.0000
  H   H470      1.0  0.84373  0.65542  0.79066  1.0000
  C   C471      1.0  0.96523  0.54310  0.77835  1.0000
  N   N40       1.0  0.88180  0.34753  0.54710  1.0000
  H   H471      1.0  0.87235  0.46152  0.95595  1.0000
  H   H472      1.0  0.88067  0.38628  0.55404  1.0000
  H   H473      1.0  0.88285  0.64937  0.76392  1.0000
  H   H474      1.0  0.96809  0.51029  0.75073  1.0000
  H   H475      1.0  0.76461  0.32969  0.72447  1.0000
  H   H476      1.0  0.94091  0.32943  0.71701  1.0000
  C   C472      1.0  0.89194  0.33356  0.57066  1.0000
  C   C473      1.0  0.81942  0.33517  0.50335  1.0000
  C   C474      1.0  0.88536  0.34118  0.51660  1.0000
  H   H477      1.0  0.83801  0.64607  0.50714  1.0000
  H   H478      1.0  0.58077  0.96395  0.30388  1.0000
  H   H479      1.0  0.53724  0.85171  0.21795  1.0000
  H   H480      1.0  0.63630  0.77810  0.41456  1.0000
  C   C475      1.0  0.66522  0.78908  0.34459  1.0000
  H   H481      1.0  0.78723  0.82317  0.34483  1.0000
  C   C476      1.0  0.63869  0.78218  0.38977  1.0000
  Fe  Fe81      1.0  0.66242  0.90966  0.34063  1.0000
  S   S159      1.0  0.62259  0.90268  0.35329  1.0000
  S   S160      1.0  0.67135  0.94537  0.31358  1.0000
  Fe  Fe82      1.0  0.67877  0.85735  0.36307  1.0000
  S   S161      1.0  0.63957  0.84722  0.37713  1.0000
  S   S162      1.0  0.70869  0.82928  0.37755  1.0000
  Fe  Fe83      1.0  0.62804  0.86561  0.33180  1.0000
  S   S163      1.0  0.60386  0.84758  0.29516  1.0000
  Fe  Fe84      1.0  0.63769  0.88515  0.39740  1.0000
  S   S164      1.0  0.62054  0.89536  0.44406  1.0000
  S   S165      1.0  0.66744  0.87323  0.31642  1.0000
  S   S166      1.0  0.67731  0.89470  0.38606  1.0000
  Fe  Fe85      1.0  0.82228  0.70205  0.40176  1.0000
  S   S167      1.0  0.83166  0.73926  0.38047  1.0000
  S   S168      1.0  0.80509  0.69722  0.44993  1.0000
  Fe  Fe86      1.0  0.83417  0.67427  0.34159  1.0000
  S   S169      1.0  0.84385  0.70983  0.31544  1.0000
  Fe  Fe87      1.0  0.86439  0.71990  0.35864  1.0000
  S   S170      1.0  0.90217  0.73863  0.35648  1.0000
  Fe  Fe88      1.0  0.81017  0.72638  0.33950  1.0000
  S   S171      1.0  0.78344  0.75255  0.31405  1.0000
  S   S172      1.0  0.85664  0.68386  0.38369  1.0000
  S   S173      1.0  0.79892  0.68981  0.36190  1.0000
  C   C477      1.0  0.62175  0.79336  0.33956  1.0000
  H   H482      1.0  0.54554  0.95457  0.26899  1.0000
  C   C478      1.0  0.56624  0.92802  0.24257  1.0000
  C   C479      1.0  0.69066  0.90477  0.47486  1.0000
  H   H483      1.0  0.85820  0.70266  0.45798  1.0000
  C   C480      1.0  0.93017  0.72160  0.35510  1.0000
  C   C481      1.0  0.95292  0.73435  0.35372  1.0000
  C   C482      1.0  0.93021  0.69570  0.35545  1.0000
  H   H484      1.0  0.95307  0.75439  0.35340  1.0000
  H   H485      1.0  0.91286  0.68567  0.35652  1.0000
  C   C483      1.0  0.72931  0.80822  0.35903  1.0000
  C   C484      1.0  0.74288  0.79157  0.37782  1.0000
  C   C485      1.0  0.75928  0.77430  0.36448  1.0000
  C   C486      1.0  0.76236  0.77343  0.33204  1.0000
  C   C487      1.0  0.74882  0.79009  0.31319  1.0000
  C   C488      1.0  0.73244  0.80742  0.32655  1.0000
  H   H486      1.0  0.74063  0.79194  0.40296  1.0000
  H   H487      1.0  0.76949  0.76163  0.37934  1.0000
  H   H488      1.0  0.75108  0.78964  0.28806  1.0000
  H   H489      1.0  0.72231  0.82017  0.31172  1.0000
  C   C489      1.0  0.62899  0.88068  0.47968  1.0000
  C   C490      1.0  0.64532  0.86064  0.48050  1.0000
  H   H490      1.0  0.63162  0.79879  0.28010  1.0000
  H   H491      1.0  0.65253  0.85331  0.45891  1.0000
  H   H492      1.0  0.79628  0.81071  0.38200  1.0000
  C   C491      1.0  0.67009  0.97494  0.33084  1.0000
  H   H493      1.0  0.60581  0.79816  0.32557  1.0000
  C   C492      1.0  0.64874  0.80141  0.29372  1.0000
  C   C493      1.0  0.63154  0.90775  0.25502  1.0000
  H   H494      1.0  0.66528  0.96113  0.37804  1.0000
  H   H495      1.0  0.55081  0.92334  0.22781  1.0000
  C   C494      1.0  0.61819  0.78725  0.37126  1.0000
  C   C495      1.0  0.66712  0.97747  0.36310  1.0000
  C   C496      1.0  0.56324  0.94545  0.26585  1.0000
  C   C497      1.0  0.97551  0.69546  0.35294  1.0000
  C   C498      1.0  0.53009  0.87665  0.25548  1.0000
  C   C499      1.0  0.53911  0.88563  0.28377  1.0000
  C   C500      1.0  0.56179  0.87725  0.29595  1.0000
  C   C501      1.0  0.57551  0.85931  0.28031  1.0000
  C   C502      1.0  0.56635  0.85007  0.25223  1.0000
  C   C503      1.0  0.54388  0.85880  0.23972  1.0000
  H   H496      1.0  0.52862  0.89941  0.29621  1.0000
  H   H497      1.0  0.56844  0.88444  0.31766  1.0000
  H   H498      1.0  0.57674  0.83611  0.23996  1.0000
  H   H499      1.0  0.80902  0.83997  0.36760  1.0000
  H   H500      1.0  0.88131  0.78750  0.36405  1.0000
  H   H501      1.0  0.83953  0.77787  0.28064  1.0000
  C   C504      1.0  0.97552  0.72137  0.35263  1.0000
  C   C505      1.0  0.84147  0.78566  0.30361  1.0000
  H   H502      1.0  0.59073  0.90146  0.22215  1.0000
  C   C506      1.0  0.80311  0.82114  0.36090  1.0000
  N   N41       1.0  0.64506  0.79396  0.32659  1.0000
  C   C507      1.0  0.95277  0.68274  0.35444  1.0000
  H   H503      1.0  0.87804  0.77087  0.31076  1.0000
  C   C508      1.0  0.86297  0.78163  0.32055  1.0000
  C   C509      1.0  0.60541  0.93827  0.28136  1.0000
  C   C510      1.0  0.86479  0.79099  0.35052  1.0000
  H   H504      1.0  0.59974  0.78720  0.38158  1.0000
  C   C511      1.0  0.82209  0.79914  0.31690  1.0000
  H   H505      1.0  0.63637  0.90526  0.23000  1.0000
  H   H506      1.0  0.84617  0.81058  0.38698  1.0000
  H   H507      1.0  0.64718  0.91790  0.26555  1.0000
  C   C512      1.0  0.84930  0.70187  0.48077  1.0000
  H   H508      1.0  0.95261  0.66270  0.35483  1.0000
  C   C513      1.0  0.84487  0.80399  0.36333  1.0000
  H   H509      1.0  0.62984  0.88929  0.26677  1.0000
  N   N42       1.0  0.60820  0.92123  0.25839  1.0000
  H   H510      1.0  0.80531  0.80178  0.30368  1.0000
  C   C514      1.0  0.58888  0.91574  0.23944  1.0000
  N   N43       1.0  0.82385  0.80787  0.34654  1.0000
  H   H511      1.0  0.67858  0.78004  0.39066  1.0000
  C   C515      1.0  0.82354  0.70003  0.48327  1.0000
  C   C516      1.0  0.66186  0.93388  0.49688  1.0000
  H   H512      1.0  0.68371  0.79023  0.33456  1.0000
  H   H513      1.0  0.69919  0.89623  0.45470  1.0000
  C   C517      1.0  0.66238  0.78314  0.37640  1.0000
  H   H514      1.0  0.65382  0.82136  0.29209  1.0000
  H   H515      1.0  0.66365  0.79034  0.28266  1.0000
  S   S174      1.0  0.50208  0.88924  0.24068  1.0000
  H   H516      1.0  0.66849  0.92993  0.44737  1.0000
  C   C518      1.0  0.58291  0.95063  0.28544  1.0000
  H   H517      1.0  0.62056  0.94232  0.29681  1.0000
  C   C519      1.0  0.67352  0.92378  0.47073  1.0000
  H   H518      1.0  0.49565  0.92992  0.08205  1.0000
  H   H519      1.0  0.64797  0.94808  0.49340  1.0000
  H   H520      1.0  0.99150  0.71170  0.44730  1.0000
  H   H521      1.0  0.51582  0.97073  0.09079  1.0000
  H   H522      1.0  0.98261  0.68741  0.42125  1.0000
  H   H523      1.0  0.49951  0.99052  0.17609  1.0000
  H   H524      1.0  0.49660  0.89358  0.02047  1.0000
  C   C520      1.0  0.49581  0.96911  0.09116  1.0000
  H   H525      1.0  0.55089  0.82793  0.84287  1.0000
  H   H526      1.0  0.55191  0.85715  0.92020  1.0000
  S   S175      1.0  0.51131  0.84623  0.80007  1.0000
  Fe  Fe89      1.0  0.66789  0.91763  0.64632  1.0000
  S   S176      1.0  0.63147  0.89901  0.63747  1.0000
  S   S177      1.0  0.67109  0.95707  0.62587  1.0000
  Fe  Fe90      1.0  0.69094  0.86801  0.67126  1.0000
  S   S178      1.0  0.65526  0.84712  0.66560  1.0000
  S   S179      1.0  0.72911  0.85151  0.68293  1.0000
  Fe  Fe91      1.0  0.65372  0.86735  0.61886  1.0000
  S   S180      1.0  0.65349  0.84637  0.57337  1.0000
  Fe  Fe92      1.0  0.63596  0.88095  0.68521  1.0000
  S   S181      1.0  0.60525  0.88852  0.72191  1.0000
  S   S182      1.0  0.68970  0.88716  0.62418  1.0000
  S   S183      1.0  0.67219  0.90066  0.69433  1.0000
  Fe  Fe93      1.0  0.81586  0.72663  0.66513  1.0000
  S   S184      1.0  0.81975  0.68879  0.64304  1.0000
  S   S185      1.0  0.77658  0.74338  0.66668  1.0000
  Fe  Fe94      1.0  0.87152  0.72864  0.67853  1.0000
  S   S186      1.0  0.87854  0.69205  0.65777  1.0000
  S   S187      1.0  0.90309  0.75104  0.69783  1.0000
  Fe  Fe95      1.0  0.85373  0.70503  0.61934  1.0000
  S   S188      1.0  0.87093  0.70081  0.57107  1.0000
  Fe  Fe96      1.0  0.84426  0.67890  0.68373  1.0000
  S   S189      1.0  0.84859  0.74303  0.63866  1.0000
  S   S190      1.0  0.83851  0.71544  0.70723  1.0000
  C   C521      1.0  0.93514  0.74422  0.69927  1.0000
  C   C522      1.0  0.94609  0.72310  0.68627  1.0000
  C   C523      1.0  0.61971  0.88995  0.50793  1.0000
  H   H527      1.0  0.50638  0.93091  0.71945  1.0000
  C   C524      1.0  0.95017  0.76133  0.71404  1.0000
  H   H528      1.0  0.93463  0.70958  0.67506  1.0000
  H   H529      1.0  0.94200  0.77758  0.72432  1.0000
  C   C525      1.0  0.82649  0.69958  0.54011  1.0000
  C   C526      1.0  0.85227  0.70113  0.53765  1.0000
  H   H530      1.0  0.83190  0.67461  0.75938  1.0000
  H   H531      1.0  0.81760  0.69865  0.56293  1.0000
  H   H532      1.0  0.91364  0.74467  0.58645  1.0000
  C   C527      1.0  0.74176  0.82101  0.68022  1.0000
  C   C528      1.0  0.72698  0.79997  0.67658  1.0000
  C   C529      1.0  0.73797  0.77636  0.67367  1.0000
  C   C530      1.0  0.76389  0.77340  0.67359  1.0000
  C   C531      1.0  0.77866  0.79441  0.67750  1.0000
  C   C532      1.0  0.76764  0.81794  0.68111  1.0000
  H   H533      1.0  0.70707  0.80185  0.67616  1.0000
  H   H534      1.0  0.72628  0.76029  0.67091  1.0000
  H   H535      1.0  0.79857  0.79256  0.67771  1.0000
  H   H536      1.0  0.77931  0.83398  0.68426  1.0000
  C   C533      1.0  0.51190  0.82336  0.87944  1.0000
  C   C534      1.0  0.96364  0.72496  0.60195  1.0000
  N   N44       1.0  0.66705  0.92519  0.52631  1.0000
  H   H537      1.0  0.68739  0.97004  0.68880  1.0000
  C   C535      1.0  0.90974  0.67842  0.75741  1.0000
  C   C536      1.0  0.53745  0.85818  0.77855  1.0000
  C   C537      1.0  0.55043  0.84268  0.75801  1.0000
  C   C538      1.0  0.57113  0.85153  0.74041  1.0000
  C   C539      1.0  0.57923  0.87603  0.74326  1.0000
  C   C540      1.0  0.56619  0.89148  0.76384  1.0000
  C   C541      1.0  0.54547  0.88268  0.78134  1.0000
  H   H538      1.0  0.54447  0.82368  0.75561  1.0000
  H   H539      1.0  0.58090  0.83937  0.72475  1.0000
  H   H540      1.0  0.57225  0.91045  0.76631  1.0000
  H   H541      1.0  0.53576  0.89493  0.79695  1.0000
  C   C542      1.0  0.97853  0.76683  0.63300  1.0000
  C   C543      1.0  0.64353  0.85973  0.53764  1.0000
  C   C544      1.0  0.62713  0.87970  0.53682  1.0000
  C   C545      1.0  0.69615  0.89631  0.50498  1.0000
  H   H542      1.0  0.61991  0.88701  0.55843  1.0000
  C   C546      1.0  0.91410  0.70385  0.75850  1.0000
  H   H543      1.0  0.93969  0.77461  0.63732  1.0000
  N   N45       1.0  0.73795  0.82037  0.60284  1.0000
  C   C547      1.0  0.75078  0.79858  0.60186  1.0000
  C   C548      1.0  0.71274  0.82042  0.60038  1.0000
  C   C549      1.0  0.73830  0.77601  0.59917  1.0000
  C   C550      1.0  0.69965  0.79823  0.59763  1.0000
  C   C551      1.0  0.71255  0.77588  0.59720  1.0000
  C   C552      1.0  0.75140  0.84384  0.60526  1.0000
  H   H544      1.0  0.77072  0.79842  0.60438  1.0000
  H   H545      1.0  0.70251  0.83762  0.60105  1.0000
  H   H546      1.0  0.74851  0.75870  0.59994  1.0000
  H   H547      1.0  0.67960  0.79851  0.59620  1.0000
  H   H548      1.0  0.70260  0.75848  0.59582  1.0000
  H   H549      1.0  0.73969  0.85812  0.61653  1.0000
  H   H550      1.0  0.76781  0.84155  0.62039  1.0000
  H   H551      1.0  0.75741  0.85069  0.58175  1.0000
  H   H552      1.0  0.91602  0.71584  0.60820  1.0000
  H   H553      1.0  0.51997  0.84980  0.96163  1.0000
  H   H554      1.0  0.66489  0.83449  0.50984  1.0000
  H   H555      1.0  0.89795  0.73956  0.76677  1.0000
  C   C553      1.0  0.49241  0.91678  0.72419  1.0000
  H   H556      1.0  0.98411  0.78283  0.64610  1.0000
  H   H557      1.0  0.63449  0.93879  0.54866  1.0000
  H   H558      1.0  0.68812  0.89983  0.55393  1.0000
  H   H559      1.0  0.83291  0.68598  0.79874  1.0000
  C   C554      1.0  0.53577  0.84603  0.91519  1.0000
  H   H560      1.0  0.65549  0.92365  0.57441  1.0000
  C   C555      1.0  0.86362  0.70223  0.50791  1.0000
  C   C556      1.0  0.95345  0.76201  0.62805  1.0000
  N   N46       1.0  0.53281  0.83648  0.88614  1.0000
  C   C557      1.0  0.67546  0.98565  0.64491  1.0000
  C   C558      1.0  0.97214  0.71977  0.68746  1.0000
  H   H561      1.0  0.51856  0.88671  0.72463  1.0000
  C   C559      1.0  0.68420  0.90689  0.53062  1.0000
  H   H562      1.0  0.93216  0.71139  0.75209  1.0000
  C   C560      1.0  0.84283  0.67474  0.78115  1.0000
  H   H563      1.0  0.60688  0.90529  0.50747  1.0000
  H   H564      1.0  0.85664  0.72225  0.78043  1.0000
  C   C561      1.0  0.49927  0.89197  0.72720  1.0000
  C   C562      1.0  0.91990  0.73606  0.60875  1.0000
  N   N47       1.0  0.94629  0.74102  0.61325  1.0000
  C   C563      1.0  0.98705  0.73734  0.70215  1.0000
  H   H565      1.0  0.90850  0.74343  0.62829  1.0000
  C   C564      1.0  0.65445  0.93598  0.55330  1.0000
  C   C565      1.0  0.55132  0.84194  0.86152  1.0000
  H   H566      1.0  0.95797  0.70848  0.58990  1.0000
  S   S191      1.0  0.49300  0.88543  0.87676  1.0000
  H   H567      1.0  0.50913  0.81647  0.85614  1.0000
  H   H568      1.0  0.54749  0.86035  0.85049  1.0000
  C   C566      1.0  0.97574  0.75782  0.71571  1.0000
  C   C567      1.0  0.51782  0.84200  0.93868  1.0000
  C   C568      1.0  0.89494  0.71966  0.76708  1.0000
  H   H569      1.0  0.57034  0.84199  0.87099  1.0000
  C   C569      1.0  0.65234  0.85006  0.50939  1.0000
  H   H570      1.0  0.70901  0.88117  0.50843  1.0000
  N   N48       1.0  0.86763  0.68471  0.77423  1.0000
  H   H571      1.0  0.98065  0.70370  0.67723  1.0000
  C   C570      1.0  0.87163  0.70974  0.77473  1.0000
  C   C571      1.0  0.81220  0.69887  0.51298  1.0000
  C   C572      1.0  0.88624  0.66911  0.76539  1.0000
  H   H572      1.0  0.66314  0.95399  0.55891  1.0000
  C   C573      1.0  0.68374  0.98695  0.67564  1.0000
  H   H573      1.0  0.79228  0.69735  0.51505  1.0000
  H   H574      1.0  0.92431  0.66605  0.74990  1.0000
  S   S192      1.0  0.49374  0.95592  0.86477  1.0000
  H   H575      1.0  0.98695  0.77135  0.72735  1.0000
  C   C574      1.0  0.98890  0.72928  0.60636  1.0000
  H   H576      1.0  0.88355  0.70344  0.50588  1.0000
  C   C575      1.0  0.49352  0.81914  0.90233  1.0000
  C   C576      1.0  0.49664  0.82837  0.93217  1.0000
