data_image0
_chemical_formula_structural       CHCFeS2CNFeCSC4H3FeC2SCH2NCH2CSHCHCNSNC4HC3HSHC2HCH2C2SCHFe2H2SFeHC3H7C2SH5FeHC2NH2NH3C2SH6CHCSHC2FeSCFeS2FeSFeS2FeSCFeS2FeCFeS3HC3H2C3HC3H2CHC2H2C2H2CHC7H6C2HSH5CHCH5NHC7HCHCHSCHCH2SH2CSHC2HCH2SCSFeS2H3CHC5H3C2NHFeH2SH2CSCS2NHC2Fe2HCH2FeS2HCFeC2SHCFeCFe2HSC5SCSHCSH2C2SFeH2SNSHSH2SHFeC2SFeCS3HC2HC3HCHC2HCSHFeCHC5H2C4H3C3H6NC2H2CHCH4CHCH2CHC2H2C5HC2FeHCSCSHC3HFeCHC2HCHNCNCS2C3HCHC2H4CH3C2NHCH3C3HNSCH2C4H3FeNC2H3C2H2CH4S2H4FeSC2S2HFeS2FeS2FeSFeCS2HFeS2FeSHFeSFeSHCH2SC2HNC2HCH3C2HC2HC6H5SCSH2C4HCH5NC3HCH5NCH2SCH2FeCH2SC3SCS2H4CNC4NCH2CHSH3NC2HFeCH2CHCH3CH2CH2C3HNC6H9CHCHCHSH3C2HCHC2H3C5HNCHC2H2CHC2SHC3FeSHFeSFeHCSFeSHCSFeSFeS2HFeS2FeSFeCFeSHSFeS2FeNC2FeC2SH3C3HCHCH3CHCH3C6HNH3CSHSCH2CHCHC4H4C4HC2SH3CH3CHNC2H2SCSHCH4CH2CH2CHSHC2SCSNSCFe2H3C3SH2C2H2C2HC2HC2SHSHC3H2CSCSHNSH3C4HC2HSCH3C6H2CH4CSCHNHFeSHFeSFeSFeS2HFeS2FeSCFeHFeS3FeSHFeSCFeSFeSCSFeS2FeHCHFeS3HCH3C3H2CH6NSCHCHCH3C6H5CHC10H2CH4SCHNCNC3H3C2HNHCSC5H3CHCNH2C2H4CH4C2SH3C2H4SH2CHCH2C2S2NHCHCHC2SH3FeC3HC4HC2HCHCHC3H2C3HC2HCHC2H2CH3C3FeSNHNSFeSHSHFeS2FeSCFeSFeSHSFeS2FeCSFeSFeHS2CFeNCFeS2FeS2HS2CNH2C3FeHC2HC5HCH2C2H3C3H4SH2CH2C6H6SH2CHCHSNCHC8H4CHCHCNC6H12SH6C4NC3H3NC6H3CH2CHC4HC2HC3FeCH2C2HC6SC2FeS2FeSHFeCFeS2FeS2CHFeHFeS3FeS2FeH2CFeH2SFeS2FeSCFeSFeS3HSCH5C8H4C3HC3H5CHC6H5CH2CH4SNC2HCH5CH3CNC3HC2HCSNHC2HC3H4C2H2CHCHC2H3CSC4HC2H3NH2SC3H2C2H2SCHSCSHCHC2HCHCHFeS2FeSHFeSFeS3HFeSC2HC2HCFeS2FeHFeSFeCS2CH2CHCHFeHSFeCHC2HSH5CSC2NC5HC3HCH2NC6H5C2HC2HC2NCSHSHNC3HCHC2NC2HCSHC3SHC2HCHC3H5C2H4CH2CSH2CH4NH2C3H2CH2CH2SC3HCH2C2H2CH3CFeS2FeCSFeHFeHS2H2CSCSC2FeS2FeSHFeHFeCS2HCH2CNCH4C2H2SNHSH2SC4NHCFeHC4NCFeH4CH3C7HCH3CNHCHC2SHCH2C2H2C5SH2CSCSHCH2CHCH4CH2CH5CHC2HC2HCSCHFeSHFeS2FeSFeSCSC2HFeHCFeHSFeSHFeS2FeCFeSNSHCSFeHSFeS2C2H2SHC2HFeHC3HCH4SC3HSC2H3CHCH4CHCH2CHC2HCH2C6H4C3NH4C3H2C3HC2HNC5H4C3HCNCHCSC2H2CHC3HNCFeHCSCHCH5C2HCHCSC5HSH2CS2CH2CNH2NCHSC3SFeCFe2NHFeHSFeS2HSFeSH2S3FeCSHSHFeS2CSH3CFeCSHC2SCFeC2H4C4FeCH2C2HCH2CH2C2NCHCH2NH2C3SCH3CHC2SHCSC3HCHC3HC2H3CSCH2C2HSHC3H2NHFeC2H3C3HC2H2C3HNHC2HCHCSC2HC7HC2H3SH2SHFeH2SHC2H5C2H3FeHCSCSC2HCH2CH3C2H2FeH2C4H3CHC2HCHC2HCS2CHFeSHC2FeS2FeSNFeCFeS4HCFeS2FeHFeSFeHS5CH2CH2CHC2HSHCH2CH3C3HCSC2HC4H2C2HCHC6H5CH2C3HC3H8C3H3NH4CHCH2C2HSH3C3HC2HSHNHCHC2HC2H2C3NCSC3HC4HCHCH5CHC2HSC3NHSC2H6NHC2H2CHFeCH2C3HC2H2FeSHFeSFe3S2FeSNFeS2FeS2FeSFeCS2HFeS2CSC2SHSC2H2CHC5SH2S2HC9H4CNSCH5CHCHSHFeH3C3H2C6H5C3SNH2CSHSH3CH3NHCH3C3NH3CHSC5H2NC2HCFeS2C2HC2H2SH2NHC3NFeCH3SHN2CH2C3FeHC3H2C5H2CHC2H2C2SCH2C3H2C2HCH5CH2CNC2HCH3C2HC2HCH3CHC2Fe2S2FeSCFeHFeS2HFeS2FeSNFeSFeS3C2HC2H2C6H4C2H6C3SNHCH2NC2H2C2HCHCH2CSCH7C4H3SC2HCHCNH5CHC2HC3HSC2H5FeS2FeSHSFeSH2CHSC3SC2HNH2FeCHCH3C2H3CH3CHCHFeC3NC6H8C3SC2SC2HCSCH2CH3CNCHCNHCSH3CS2HFeSCH
_chemical_formula_sum              "C1152 H1152 Fe192 S384 N96"
_cell_length_a       78.9604
_cell_length_b       78.2096
_cell_length_c       37.6668
_cell_angle_alpha    88.6331
_cell_angle_beta     88.573
_cell_angle_gamma    111.154

_space_group_name_H-M_alt    "P 1"
_space_group_IT_number       1

loop_
  _space_group_symop_operation_xyz
  'x, y, z'

loop_
  _atom_site_type_symbol
  _atom_site_label
  _atom_site_symmetry_multiplicity
  _atom_site_fract_x
  _atom_site_fract_y
  _atom_site_fract_z
  _atom_site_occupancy
  C   C1        1.0  0.31578  0.14800  0.06329  1.0000
  H   H1        1.0  0.33862  0.04821  0.99997  1.0000
  C   C2        1.0  0.35454  0.14976  0.46383  1.0000
  Fe  Fe1       1.0  0.45787  0.17537  0.42667  1.0000
  S   S1        1.0  0.46204  0.20037  0.39183  1.0000
  S   S2        1.0  0.42981  0.15262  0.42969  1.0000
  C   C3        1.0  0.32735  0.23657  0.24627  1.0000
  N   N1        1.0  0.35044  0.15492  0.03437  1.0000
  Fe  Fe2       1.0  0.46284  0.18087  0.03665  1.0000
  C   C4        1.0  0.39692  0.13346  0.46350  1.0000
  S   S3        1.0  0.45490  0.19107  0.08725  1.0000
  C   C5        1.0  0.47221  0.14122  0.47967  1.0000
  C   C6        1.0  0.42440  0.10791  0.47626  1.0000
  C   C7        1.0  0.47173  0.22926  0.23045  1.0000
  C   C8        1.0  0.28020  0.02987  0.46513  1.0000
  H   H2        1.0  0.42198  0.14401  0.04790  1.0000
  H   H3        1.0  0.29475  0.18975  0.02782  1.0000
  H   H4        1.0  0.46452  0.22101  0.14335  1.0000
  Fe  Fe3       1.0  0.32487  0.23734  0.45277  1.0000
  C   C9        1.0  0.44601  0.19400  0.23576  1.0000
  C   C10       1.0  0.46563  0.22097  0.26405  1.0000
  S   S4        1.0  0.32743  0.23444  0.31924  1.0000
  C   C11       1.0  0.41414  0.14204  0.02417  1.0000
  H   H5        1.0  0.33937  0.12842  0.01253  1.0000
  H   H6        1.0  0.32629  0.23784  0.18887  1.0000
  N   N2        1.0  0.27893  0.04735  0.47551  1.0000
  C   C12       1.0  0.39637  0.12878  0.02430  1.0000
  H   H7        1.0  0.32817  0.06473  0.00685  1.0000
  H   H8        1.0  0.29395  0.02976  0.47052  1.0000
  C   C13       1.0  0.47233  0.22890  0.16554  1.0000
  S   S5        1.0  0.33290  0.21528  0.03148  1.0000
  H   H9        1.0  0.43656  0.17990  0.23744  1.0000
  C   C14       1.0  0.41469  0.14606  0.46743  1.0000
  H   H10       1.0  0.30975  0.15519  0.44077  1.0000
  C   C15       1.0  0.48000  0.17943  0.20680  1.0000
  N   N3        1.0  0.30962  0.03727  0.99967  1.0000
  S   S6        1.0  0.47133  0.16961  0.16598  1.0000
  N   N4        1.0  0.46510  0.22012  0.20030  1.0000
  C   C16       1.0  0.45251  0.20264  0.20259  1.0000
  C   C17       1.0  0.29590  0.16654  0.99873  1.0000
  C   C18       1.0  0.31401  0.18128  0.46444  1.0000
  C   C19       1.0  0.27784  0.02697  0.01645  1.0000
  H   H11       1.0  0.31439  0.18843  0.43931  1.0000
  C   C20       1.0  0.32987  0.16446  0.06966  1.0000
  C   C21       1.0  0.29132  0.00514  0.99888  1.0000
  C   C22       1.0  0.45266  0.20324  0.26664  1.0000
  H   H12       1.0  0.27032  0.01801  0.48059  1.0000
  S   S7        1.0  0.34871  0.24236  0.41491  1.0000
  H   H13       1.0  0.42185  0.11225  0.44918  1.0000
  C   C23       1.0  0.33683  0.13853  0.02885  1.0000
  C   C24       1.0  0.32210  0.19416  0.00964  1.0000
  H   H14       1.0  0.26296  0.99788  0.01346  1.0000
  C   C25       1.0  0.47271  0.16967  0.23892  1.0000
  H   H15       1.0  0.27758  0.02780  0.43645  1.0000
  H   H16       1.0  0.30360  0.06326  0.44747  1.0000
  C   C26       1.0  0.45589  0.12905  0.46712  1.0000
  C   C27       1.0  0.27609  0.08068  0.49236  1.0000
  S   S8        1.0  0.47287  0.19124  0.47230  1.0000
  C   C28       1.0  0.36863  0.15857  0.01867  1.0000
  H   H17       1.0  0.46244  0.15606  0.23824  1.0000
  Fe  Fe4       1.0  0.32488  0.23898  0.05274  1.0000
  Fe  Fe5       1.0  0.47767  0.18434  0.11156  1.0000
  H   H18       1.0  0.47236  0.17005  0.29647  1.0000
  H   H19       1.0  0.32717  0.17502  0.08443  1.0000
  S   S9        1.0  0.48239  0.17117  0.40201  1.0000
  Fe  Fe6       1.0  0.47884  0.21611  0.43574  1.0000
  H   H20       1.0  0.30830  0.12228  0.03695  1.0000
  C   C29       1.0  0.34727  0.16766  0.05512  1.0000
  C   C30       1.0  0.31141  0.16238  0.46538  1.0000
  C   C31       1.0  0.31929  0.13486  0.04306  1.0000
  H   H21       1.0  0.30117  0.09311  0.46192  1.0000
  H   H22       1.0  0.30205  0.14567  0.07301  1.0000
  H   H23       1.0  0.29579  0.05516  0.01399  1.0000
  H   H24       1.0  0.45507  0.12608  0.43908  1.0000
  H   H25       1.0  0.34531  0.15182  0.44371  1.0000
  H   H26       1.0  0.32230  0.22173  0.24804  1.0000
  H   H27       1.0  0.47152  0.22787  0.28793  1.0000
  C   C32       1.0  0.29201  0.06344  0.46331  1.0000
  C   C33       1.0  0.35621  0.17956  0.48605  1.0000
  S   S10       1.0  0.30642  0.24064  0.41020  1.0000
  H   H28       1.0  0.28835  0.23625  0.25356  1.0000
  H   H29       1.0  0.39240  0.12898  0.43726  1.0000
  H   H30       1.0  0.35351  0.18354  0.45963  1.0000
  H   H31       1.0  0.28796  0.23327  0.31910  1.0000
  H   H32       1.0  0.26596  0.03008  0.02413  1.0000
  Fe  Fe7       1.0  0.47673  0.21812  0.07219  1.0000
  H   H33       1.0  0.39063  0.12071  0.04835  1.0000
  C   C34       1.0  0.29075  0.08032  0.47138  1.0000
  C   C35       1.0  0.29475  0.04109  0.01068  1.0000
  N   N5        1.0  0.35681  0.16251  0.49278  1.0000
  H   H34       1.0  0.28147  0.15885  0.00227  1.0000
  H   H35       1.0  0.44842  0.19641  0.29254  1.0000
  N   N6        1.0  0.44110  0.12126  0.48971  1.0000
  H   H36       1.0  0.42556  0.09421  0.47522  1.0000
  H   H37       1.0  0.35802  0.18068  0.05947  1.0000
  H   H38       1.0  0.44794  0.19498  0.17878  1.0000
  C   C36       1.0  0.47831  0.17756  0.27197  1.0000
  C   C37       1.0  0.38519  0.12607  0.49336  1.0000
  S   S11       1.0  0.47309  0.24202  0.44508  1.0000
  H   H39       1.0  0.37634  0.15262  0.03623  1.0000
  H   H40       1.0  0.37313  0.24120  0.03774  1.0000
  H   H41       1.0  0.42703  0.23531  0.46307  1.0000
  H   H42       1.0  0.37634  0.17351  0.01444  1.0000
  H   H43       1.0  0.36797  0.15173  0.45102  1.0000
  H   H44       1.0  0.41234  0.10685  0.49333  1.0000
  C   C38       1.0  0.27615  0.00889  0.01050  1.0000
  H   H45       1.0  0.37177  0.11596  0.49001  1.0000
  C   C39       1.0  0.30340  0.18415  0.01318  1.0000
  S   S12       1.0  0.48311  0.20865  0.02020  1.0000
  H   H46       1.0  0.34809  0.13531  0.47399  1.0000
  C   C40       1.0  0.31581  0.19079  0.49602  1.0000
  C   C41       1.0  0.26451  0.04756  0.49621  1.0000
  Fe  Fe8       1.0  0.31355  0.11105  0.54133  1.0000
  S   S13       1.0  0.33134  0.12296  0.58671  1.0000
  C   C42       1.0  0.44210  0.12522  0.52498  1.0000
  Fe  Fe9       1.0  0.31208  0.07107  0.55939  1.0000
  S   S14       1.0  0.33108  0.08129  0.60468  1.0000
  S   S15       1.0  0.30316  0.04042  0.54398  1.0000
  Fe  Fe10      1.0  0.31391  0.09781  0.61876  1.0000
  S   S16       1.0  0.30145  0.09693  0.67440  1.0000
  Fe  Fe11      1.0  0.34707  0.10564  0.56858  1.0000
  S   S17       1.0  0.37788  0.12043  0.56612  1.0000
  S   S18       1.0  0.29432  0.08695  0.57455  1.0000
  Fe  Fe12      1.0  0.34293  0.10602  0.95235  1.0000
  S   S19       1.0  0.31393  0.09437  0.97338  1.0000
  C   C43       1.0  0.31297  0.16231  0.52928  1.0000
  Fe  Fe13      1.0  0.33078  0.10912  0.87627  1.0000
  S   S20       1.0  0.30114  0.09863  0.89294  1.0000
  S   S21       1.0  0.34302  0.11469  0.81974  1.0000
  Fe  Fe14      1.0  0.31063  0.11728  0.93988  1.0000
  C   C44       1.0  0.48161  0.22179  0.93154  1.0000
  Fe  Fe15      1.0  0.30715  0.07674  0.92510  1.0000
  S   S22       1.0  0.29539  0.04500  0.91998  1.0000
  S   S23       1.0  0.33978  0.12922  0.92055  1.0000
  S   S24       1.0  0.33667  0.08698  0.90686  1.0000
  H   H47       1.0  0.31254  0.15519  0.55445  1.0000
  C   C45       1.0  0.27706  0.02302  0.92364  1.0000
  C   C46       1.0  0.28047  0.00706  0.91494  1.0000
  C   C47       1.0  0.26293  0.06422  0.50509  1.0000
  H   H48       1.0  0.29389  0.00837  0.90518  1.0000
  H   H49       1.0  0.31830  0.06405  0.68982  1.0000
  C   C48       1.0  0.25952  0.02090  0.93612  1.0000
  C   C49       1.0  0.33302  0.18645  0.99053  1.0000
  C   C50       1.0  0.36215  0.16937  0.55425  1.0000
  H   H50       1.0  0.25425  0.03483  0.50627  1.0000
  C   C51       1.0  0.40879  0.14404  0.53139  1.0000
  C   C52       1.0  0.30689  0.15863  0.98042  1.0000
  C   C53       1.0  0.39366  0.13640  0.96269  1.0000
  H   H51       1.0  0.41741  0.15720  0.93811  1.0000
  H   H52       1.0  0.38591  0.13433  0.93884  1.0000
  C   C54       1.0  0.42041  0.15168  0.50149  1.0000
  H   H53       1.0  0.28290  0.05438  0.78224  1.0000
  C   C55       1.0  0.47325  0.14569  0.51535  1.0000
  C   C56       1.0  0.32844  0.06822  0.77718  1.0000
  H   H54       1.0  0.27516  0.09375  0.49925  1.0000
  H   H55       1.0  0.31637  0.18819  0.55306  1.0000
  C   C57       1.0  0.28546  0.01801  0.54977  1.0000
  C   C58       1.0  0.26770  0.01540  0.56173  1.0000
  H   H56       1.0  0.47111  0.22746  0.92744  1.0000
  H   H57       1.0  0.34748  0.19399  0.98742  1.0000
  C   C59       1.0  0.41154  0.14940  0.96237  1.0000
  H   H58       1.0  0.26452  0.02710  0.56989  1.0000
  C   C60       1.0  0.33124  0.06829  0.74033  1.0000
  C   C61       1.0  0.31340  0.10386  0.71404  1.0000
  C   C62       1.0  0.30346  0.10193  0.74637  1.0000
  C   C63       1.0  0.31231  0.10565  0.77891  1.0000
  C   C64       1.0  0.33126  0.11144  0.77941  1.0000
  C   C65       1.0  0.34123  0.11389  0.74699  1.0000
  C   C66       1.0  0.33237  0.11008  0.71445  1.0000
  H   H59       1.0  0.28879  0.09726  0.74628  1.0000
  H   H60       1.0  0.30446  0.10392  0.80357  1.0000
  H   H61       1.0  0.35590  0.11846  0.74709  1.0000
  H   H62       1.0  0.34020  0.11166  0.68980  1.0000
  H   H63       1.0  0.34492  0.07321  0.72865  1.0000
  H   H64       1.0  0.36777  0.15234  0.99219  1.0000
  C   C67       1.0  0.36013  0.15750  0.52615  1.0000
  C   C68       1.0  0.39123  0.13102  0.52754  1.0000
  H   H65       1.0  0.31959  0.01666  0.98305  1.0000
  S   S25       1.0  0.32985  0.09432  0.52217  1.0000
  H   H66       1.0  0.29444  0.05653  0.83984  1.0000
  H   H67       1.0  0.43404  0.16135  0.50489  1.0000
  H   H68       1.0  0.25650  0.03289  0.94283  1.0000
  H   H69       1.0  0.23238  0.00186  0.95006  1.0000
  H   H70       1.0  0.45874  0.14112  0.56602  1.0000
  C   C69       1.0  0.31631  0.06312  0.71854  1.0000
  H   H71       1.0  0.46322  0.19379  0.93036  1.0000
  C   C70       1.0  0.45811  0.13767  0.53824  1.0000
  H   H72       1.0  0.36201  0.19571  0.56958  1.0000
  H   H73       1.0  0.31713  0.05718  0.84481  1.0000
  H   H74       1.0  0.34012  0.07323  0.79386  1.0000
  H   H75       1.0  0.28724  0.05480  0.71682  1.0000
  H   H76       1.0  0.24017  0.99608  0.57089  1.0000
  N   N7        1.0  0.31122  0.06284  0.79191  1.0000
  H   H77       1.0  0.33417  0.16318  0.96173  1.0000
  C   C71       1.0  0.29882  0.05790  0.73375  1.0000
  C   C72       1.0  0.31511  0.18109  0.52840  1.0000
  C   C73       1.0  0.29649  0.05785  0.77073  1.0000
  C   C74       1.0  0.32551  0.16889  0.97596  1.0000
  C   C75       1.0  0.42191  0.15229  0.99304  1.0000
  C   C76       1.0  0.28907  0.00238  0.53944  1.0000
  C   C77       1.0  0.24582  0.00319  0.94028  1.0000
  H   H78       1.0  0.41355  0.14802  0.55774  1.0000
  C   C78       1.0  0.30880  0.06371  0.83043  1.0000
  H   H79       1.0  0.31311  0.07828  0.83786  1.0000
  C   C79       1.0  0.32709  0.05225  0.99211  1.0000
  H   H80       1.0  0.36429  0.16506  0.58084  1.0000
  S   S26       1.0  0.29692  0.13560  0.96569  1.0000
  C   C80       1.0  0.25385  0.99769  0.56233  1.0000
  H   H81       1.0  0.32859  0.05590  0.96321  1.0000
  C   C81       1.0  0.47727  0.20276  0.93298  1.0000
  H   H82       1.0  0.36091  0.14412  0.53136  1.0000
  H   H83       1.0  0.44680  0.23509  0.51037  1.0000
  S   S27       1.0  0.44464  0.16832  0.99056  1.0000
  H   H84       1.0  0.43035  0.11908  0.54290  1.0000
  H   H85       1.0  0.30263  0.00403  0.52998  1.0000
  C   C82       1.0  0.36101  0.18656  0.54787  1.0000
  S   S28       1.0  0.36359  0.10926  0.99529  1.0000
  H   H86       1.0  0.47247  0.16805  0.93076  1.0000
  C   C83       1.0  0.35821  0.19181  0.51350  1.0000
  C   C84       1.0  0.30802  0.01960  0.99330  1.0000
  H   H87       1.0  0.35681  0.20496  0.50834  1.0000
  C   C85       1.0  0.38604  0.12587  0.99359  1.0000
  H   H88       1.0  0.25167  0.06439  0.52202  1.0000
  H   H89       1.0  0.36434  0.24138  0.96076  1.0000
  S   S29       1.0  0.31935  0.21474  0.49680  1.0000
  C   C86       1.0  0.31098  0.15276  0.49775  1.0000
  S   S30       1.0  0.30788  0.12892  0.49726  1.0000
  Fe  Fe16      1.0  0.19413  0.35788  0.05777  1.0000
  S   S31       1.0  0.16301  0.34834  0.05287  1.0000
  S   S32       1.0  0.11281  0.45771  0.42165  1.0000
  H   H90       1.0  0.11825  0.33259  0.44510  1.0000
  H   H91       1.0  0.12610  0.34692  0.05506  1.0000
  H   H92       1.0  0.08861  0.42015  0.43062  1.0000
  C   C87       1.0  0.14544  0.34616  0.46356  1.0000
  H   H93       1.0  0.15200  0.34296  0.44044  1.0000
  C   C88       1.0  0.12625  0.34027  0.46630  1.0000
  C   C89       1.0  0.10246  0.44415  0.46030  1.0000
  C   C90       1.0  0.09125  0.42568  0.45682  1.0000
  C   C91       1.0  0.11546  0.46665  0.30185  1.0000
  C   C92       1.0  0.11764  0.46644  0.26498  1.0000
  H   H94       1.0  0.10214  0.46404  0.31417  1.0000
  H   H95       1.0  0.10605  0.46382  0.24823  1.0000
  H   H96       1.0  0.12634  0.41101  0.43025  1.0000
  C   C93       1.0  0.13499  0.47012  0.24972  1.0000
  C   C94       1.0  0.13056  0.47046  0.32293  1.0000
  N   N8        1.0  0.14977  0.47409  0.27062  1.0000
  H   H97       1.0  0.19662  0.34002  0.25003  1.0000
  Fe  Fe17      1.0  0.20294  0.36406  0.44906  1.0000
  H   H98       1.0  0.13989  0.39410  0.07255  1.0000
  H   H99       1.0  0.38758  0.32827  0.45298  1.0000
  S   S33       1.0  0.20847  0.34201  0.41873  1.0000
  H   H100      1.0  0.13663  0.47037  0.22097  1.0000
  H   H101      1.0  0.20386  0.35523  0.18991  1.0000
  C   C95       1.0  0.20583  0.35413  0.24712  1.0000
  S   S34       1.0  0.20927  0.35160  0.31923  1.0000
  C   C96       1.0  0.20990  0.36272  0.21300  1.0000
  S   S35       1.0  0.20580  0.38742  0.07257  1.0000
  S   S36       1.0  0.20861  0.34869  0.10186  1.0000
  N   N9        1.0  0.36284  0.32302  0.42613  1.0000
  H   H102      1.0  0.23427  0.30338  0.04028  1.0000
  C   C97       1.0  0.21379  0.36356  0.27740  1.0000
  C   C98       1.0  0.25024  0.35873  0.21886  1.0000
  Fe  Fe18      1.0  0.23729  0.35317  0.43697  1.0000
  Fe  Fe19      1.0  0.23957  0.39311  0.42352  1.0000
  H   H103      1.0  0.26776  0.46315  0.43366  1.0000
  C   C99       1.0  0.33614  0.26483  0.21015  1.0000
  H   H104      1.0  0.26576  0.39088  0.15401  1.0000
  H   H105      1.0  0.23570  0.32822  0.13775  1.0000
  Fe  Fe20      1.0  0.22830  0.38984  0.03304  1.0000
  S   S37       1.0  0.25396  0.42431  0.42452  1.0000
  S   S38       1.0  0.21123  0.38428  0.40268  1.0000
  H   H106      1.0  0.22427  0.31517  0.19851  1.0000
  C   C100      1.0  0.33794  0.26569  0.27498  1.0000
  Fe  Fe21      1.0  0.31660  0.27093  0.42164  1.0000
  C   C101      1.0  0.23344  0.32932  0.19488  1.0000
  C   C102      1.0  0.23973  0.33664  0.16083  1.0000
  S   S39       1.0  0.33846  0.27710  0.16898  1.0000
  H   H107      1.0  0.28229  0.38650  0.18181  1.0000
  C   C103      1.0  0.22186  0.38092  0.20890  1.0000
  Fe  Fe22      1.0  0.21875  0.36307  0.37347  1.0000
  C   C104      1.0  0.39941  0.29867  0.46951  1.0000
  Fe  Fe23      1.0  0.33134  0.26687  0.11300  1.0000
  Fe  Fe24      1.0  0.22166  0.37858  0.11297  1.0000
  H   H108      1.0  0.25391  0.36736  0.24169  1.0000
  S   S40       1.0  0.32757  0.28860  0.07680  1.0000
  C   C105      1.0  0.22558  0.38184  0.27333  1.0000
  C   C106      1.0  0.28124  0.31292  0.39942  1.0000
  C   C107      1.0  0.27018  0.28942  0.05517  1.0000
  C   C108      1.0  0.25109  0.35506  0.15653  1.0000
  C   C109      1.0  0.26425  0.32165  0.44631  1.0000
  S   S41       1.0  0.22845  0.39201  0.16645  1.0000
  C   C110      1.0  0.26788  0.38520  0.18020  1.0000
  S   S42       1.0  0.33319  0.26733  0.46776  1.0000
  H   H109      1.0  0.23371  0.33499  0.25076  1.0000
  C   C111      1.0  0.25291  0.28880  0.04498  1.0000
  S   S43       1.0  0.24781  0.37332  0.39044  1.0000
  H   H110      1.0  0.38288  0.32052  0.38986  1.0000
  H   H111      1.0  0.23868  0.40462  0.23637  1.0000
  C   C112      1.0  0.34032  0.27477  0.24143  1.0000
  C   C113      1.0  0.27667  0.32099  0.07256  1.0000
  S   S44       1.0  0.35002  0.26064  0.07349  1.0000
  Fe  Fe25      1.0  0.35626  0.27208  0.42793  1.0000
  H   H112      1.0  0.28569  0.31397  0.37181  1.0000
  H   H113      1.0  0.25583  0.36067  0.12996  1.0000
  S   S45       1.0  0.25016  0.33367  0.46240  1.0000
  N   N10       1.0  0.25593  0.36593  0.18529  1.0000
  S   S46       1.0  0.34054  0.27767  0.38277  1.0000
  H   H114      1.0  0.42042  0.31719  0.05774  1.0000
  S   S47       1.0  0.30078  0.28995  0.40737  1.0000
  H   H115      1.0  0.42409  0.31142  0.43772  1.0000
  H   H116      1.0  0.33642  0.31781  0.40617  1.0000
  S   S48       1.0  0.27662  0.27001  0.04775  1.0000
  H   H117      1.0  0.34112  0.27350  0.29880  1.0000
  Fe  Fe26      1.0  0.34409  0.28023  0.03613  1.0000
  C   C114      1.0  0.37186  0.32624  0.39078  1.0000
  C   C115      1.0  0.24755  0.30414  0.04845  1.0000
  S   S49       1.0  0.23109  0.37384  0.47121  1.0000
  Fe  Fe27      1.0  0.23187  0.35368  0.06161  1.0000
  C   C116      1.0  0.26593  0.43767  0.45971  1.0000
  S   S50       1.0  0.25388  0.34059  0.06594  1.0000
  S   S51       1.0  0.31962  0.25875  0.01416  1.0000
  S   S52       1.0  0.24529  0.38358  0.07447  1.0000
  H   H118      1.0  0.38691  0.30267  0.05356  1.0000
  C   C117      1.0  0.25944  0.32042  0.06211  1.0000
  C   C118      1.0  0.39532  0.30826  0.02986  1.0000
  H   H119      1.0  0.26629  0.33114  0.39176  1.0000
  C   C119      1.0  0.27019  0.32273  0.41068  1.0000
  C   C120      1.0  0.41804  0.30913  0.46434  1.0000
  C   C121      1.0  0.22951  0.39049  0.23925  1.0000
  H   H120      1.0  0.26465  0.39378  0.20048  1.0000
  C   C122      1.0  0.23883  0.34037  0.22417  1.0000
  H   H121      1.0  0.34538  0.28960  0.23971  1.0000
  C   C123      1.0  0.28656  0.30183  0.42344  1.0000
  C   C124      1.0  0.28199  0.30563  0.06927  1.0000
  H   H122      1.0  0.23173  0.38927  0.29641  1.0000
  C   C125      1.0  0.27103  0.45688  0.45712  1.0000
  S   S53       1.0  0.38623  0.29040  0.43171  1.0000
  H   H123      1.0  0.29530  0.30640  0.07726  1.0000
  Fe  Fe28      1.0  0.30345  0.26572  0.05813  1.0000
  C   C126      1.0  0.41432  0.31650  0.03215  1.0000
  H   H124      1.0  0.28601  0.33345  0.08324  1.0000
  C   C127      1.0  0.28061  0.30073  0.45906  1.0000
  C   C128      1.0  0.26957  0.31055  0.47032  1.0000
  C   C129      1.0  0.12852  0.41515  0.45754  1.0000
  C   C130      1.0  0.14385  0.39377  0.04488  1.0000
  C   C131      1.0  0.16089  0.39313  0.03571  1.0000
  H   H125      1.0  0.36224  0.31928  0.37003  1.0000
  H   H126      1.0  0.37775  0.34118  0.38417  1.0000
  C   C132      1.0  0.16785  0.47770  0.25438  1.0000
  C   C133      1.0  0.13000  0.34692  0.02732  1.0000
  C   C134      1.0  0.37300  0.32487  0.45567  1.0000
  C   C135      1.0  0.34450  0.31897  0.42951  1.0000
  H   H127      1.0  0.16995  0.39271  0.05665  1.0000
  H   H128      1.0  0.10249  0.45879  0.03568  1.0000
  H   H129      1.0  0.30029  0.29122  0.32532  1.0000
  C   C136      1.0  0.43134  0.25050  0.46349  1.0000
  C   C137      1.0  0.29790  0.28048  0.27235  1.0000
  C   C138      1.0  0.29443  0.26686  0.21379  1.0000
  H   H130      1.0  0.34158  0.32241  0.02645  1.0000
  H   H131      1.0  0.28440  0.29224  0.47798  1.0000
  H   H132      1.0  0.28410  0.48277  0.48226  1.0000
  H   H133      1.0  0.43018  0.27358  0.03882  1.0000
  H   H134      1.0  0.24361  0.27638  0.03406  1.0000
  H   H135      1.0  0.32372  0.48509  0.48800  1.0000
  N   N11       1.0  0.29460  0.26520  0.25264  1.0000
  C   C139      1.0  0.28028  0.46804  0.48466  1.0000
  C   C140      1.0  0.27033  0.42973  0.49007  1.0000
  H   H136      1.0  0.21587  0.43726  0.43867  1.0000
  H   H137      1.0  0.30095  0.29382  0.25934  1.0000
  C   C141      1.0  0.14771  0.47411  0.30680  1.0000
  H   H138      1.0  0.26668  0.42575  0.03307  1.0000
  C   C142      1.0  0.22146  0.43983  0.46488  1.0000
  H   H139      1.0  0.18607  0.28915  0.43244  1.0000
  H   H140      1.0  0.29719  0.25544  0.20089  1.0000
  H   H141      1.0  0.29363  0.26086  0.35518  1.0000
  H   H142      1.0  0.21550  0.41104  0.47693  1.0000
  C   C143      1.0  0.15603  0.35596  0.49085  1.0000
  H   H143      1.0  0.30531  0.27971  0.20354  1.0000
  C   C144      1.0  0.34595  0.31719  0.49334  1.0000
  H   H144      1.0  0.29337  0.45497  0.02990  1.0000
  H   H145      1.0  0.28104  0.26684  0.20541  1.0000
  C   C145      1.0  0.11729  0.34616  0.00102  1.0000
  H   H146      1.0  0.17076  0.46484  0.25406  1.0000
  C   C146      1.0  0.28236  0.45307  0.01204  1.0000
  C   C147      1.0  0.03508  0.36459  0.03626  1.0000
  H   H147      1.0  0.12900  0.47083  0.35158  1.0000
  H   H148      1.0  0.07334  0.43411  0.02192  1.0000
  C   C148      1.0  0.42890  0.31691  0.49321  1.0000
  C   C149      1.0  0.29757  0.27914  0.30953  1.0000
  C   C150      1.0  0.36472  0.32181  0.48968  1.0000
  C   C151      1.0  0.33577  0.31591  0.46311  1.0000
  C   C152      1.0  0.14766  0.34758  0.01817  1.0000
  H   H149      1.0  0.17848  0.48811  0.26942  1.0000
  C   C153      1.0  0.26725  0.43650  0.01391  1.0000
  C   C154      1.0  0.11729  0.34418  0.49613  1.0000
  Fe  Fe29      1.0  0.13457  0.48627  0.42391  1.0000
  H   H150      1.0  0.16890  0.48341  0.22674  1.0000
  C   C155      1.0  0.11913  0.44655  0.00784  1.0000
  S   S54       1.0  0.21633  0.36044  0.01656  1.0000
  C   C156      1.0  0.22369  0.49115  0.04548  1.0000
  S   S55       1.0  0.14043  0.46356  0.01750  1.0000
  H   H151      1.0  0.04161  0.34645  0.07275  1.0000
  C   C157      1.0  0.20421  0.30376  0.47250  1.0000
  C   C158      1.0  0.41724  0.26949  0.02587  1.0000
  C   C159      1.0  0.03213  0.34771  0.05343  1.0000
  H   H152      1.0  0.15947  0.47748  0.32330  1.0000
  Fe  Fe30      1.0  0.33102  0.24763  0.37324  1.0000
  C   C160      1.0  0.10257  0.44738  0.02008  1.0000
  H   H153      1.0  0.04687  0.37654  0.04206  1.0000
  C   C161      1.0  0.13186  0.39358  0.01817  1.0000
  C   C162      1.0  0.08605  0.43334  0.01226  1.0000
  H   H154      1.0  0.40254  0.25018  0.06777  1.0000
  C   C163      1.0  0.29033  0.24654  0.30616  1.0000
  H   H155      1.0  0.21519  0.29930  0.46416  1.0000
  N   N12       1.0  0.22925  0.45739  0.47611  1.0000
  C   C164      1.0  0.33147  0.24652  0.27756  1.0000
  N   N13       1.0  0.21498  0.49014  0.01420  1.0000
  C   C165      1.0  0.17436  0.30481  0.46461  1.0000
  S   S56       1.0  0.16175  0.48842  0.40087  1.0000
  S   S57       1.0  0.18030  0.36290  0.49019  1.0000
  C   C166      1.0  0.38724  0.30781  0.99711  1.0000
  C   C167      1.0  0.29069  0.24835  0.26907  1.0000
  C   C168      1.0  0.19551  0.48707  0.01482  1.0000
  H   H156      1.0  0.24021  0.48579  0.45968  1.0000
  C   C169      1.0  0.18793  0.29818  0.45463  1.0000
  H   H157      1.0  0.14583  0.44295  0.44239  1.0000
  C   C170      1.0  0.22912  0.47279  0.45328  1.0000
  C   C171      1.0  0.29378  0.26204  0.32642  1.0000
  H   H158      1.0  0.31013  0.33955  0.00446  1.0000
  H   H159      1.0  0.09700  0.38494  0.45938  1.0000
  H   H160      1.0  0.26659  0.41499  0.49234  1.0000
  H   H161      1.0  0.23121  0.47028  0.42487  1.0000
  C   C172      1.0  0.17727  0.31693  0.49253  1.0000
  H   H162      1.0  0.16185  0.30099  0.45028  1.0000
  H   H163      1.0  0.18481  0.37898  0.00296  1.0000
  H   H164      1.0  0.07498  0.40006  0.48405  1.0000
  C   C173      1.0  0.08355  0.41425  0.48704  1.0000
  C   C174      1.0  0.13967  0.43319  0.46423  1.0000
  N   N14       1.0  0.16592  0.39253  0.00088  1.0000
  H   H165      1.0  0.10378  0.34554  0.00869  1.0000
  C   C175      1.0  0.10558  0.45120  0.49430  1.0000
  H   H166      1.0  0.32115  0.31233  0.46557  1.0000
  H   H167      1.0  0.41947  0.25422  0.45652  1.0000
  H   H168      1.0  0.11854  0.39394  0.02488  1.0000
  C   C176      1.0  0.33887  0.32881  0.00163  1.0000
  C   C177      1.0  0.01718  0.33240  0.04495  1.0000
  C   C178      1.0  0.22117  0.42491  0.48647  1.0000
  H   H169      1.0  0.18730  0.47216  0.01672  1.0000
  N   N15       1.0  0.00830  0.35086  0.00274  1.0000
  S   S58       1.0  0.30644  0.24390  0.09573  1.0000
  C   C179      1.0  0.32959  0.24566  0.21271  1.0000
  H   H170      1.0  0.21647  0.49054  0.07065  1.0000
  H   H171      1.0  0.19468  0.40367  0.00403  1.0000
  C   C180      1.0  0.00530  0.33424  0.01948  1.0000
  C   C181      1.0  0.10794  0.38447  0.47690  1.0000
  C   C182      1.0  0.40173  0.25640  0.04212  1.0000
  C   C183      1.0  0.42545  0.32387  0.00165  1.0000
  H   H172      1.0  0.99397  0.32216  0.01236  1.0000
  H   H173      1.0  0.11583  0.37708  0.46350  1.0000
  H   H174      1.0  0.01497  0.31908  0.05739  1.0000
  Fe  Fe31      1.0  0.14590  0.49082  0.04471  1.0000
  N   N16       1.0  0.11992  0.40309  0.48494  1.0000
  C   C184      1.0  0.38516  0.25146  0.02511  1.0000
  C   C185      1.0  0.02308  0.36588  0.01050  1.0000
  H   H175      1.0  0.34115  0.34341  0.00640  1.0000
  H   H176      1.0  0.43214  0.28173  0.49142  1.0000
  H   H177      1.0  0.21592  0.47476  0.45690  1.0000
  C   C186      1.0  0.48314  0.26115  0.04247  1.0000
  C   C187      1.0  0.48253  0.27518  0.47547  1.0000
  H   H178      1.0  0.44316  0.32509  0.48869  1.0000
  H   H179      1.0  0.47553  0.27879  0.45388  1.0000
  C   C188      1.0  0.47748  0.27587  0.03482  1.0000
  H   H180      1.0  0.47515  0.35920  0.05220  1.0000
  H   H181      1.0  0.46584  0.27684  0.04913  1.0000
  H   H182      1.0  0.44234  0.25641  0.44276  1.0000
  H   H183      1.0  0.48232  0.30060  0.00284  1.0000
  S   S59       1.0  0.44919  0.33473  0.00618  1.0000
  S   S60       1.0  0.47124  0.24441  0.07541  1.0000
  H   H184      1.0  0.47163  0.24283  0.16334  1.0000
  H   H185      1.0  0.48221  0.24283  0.22863  1.0000
  H   H186      1.0  0.02588  0.37894  0.99640  1.0000
  H   H187      1.0  0.47247  0.37516  0.99652  1.0000
  Fe  Fe32      1.0  0.46508  0.33568  0.56589  1.0000
  S   S61       1.0  0.43409  0.32485  0.56463  1.0000
  C   C189      1.0  0.29856  0.29094  0.96904  1.0000
  C   C190      1.0  0.13694  0.39257  0.98278  1.0000
  S   S62       1.0  0.05488  0.35720  0.51783  1.0000
  S   S63       1.0  0.06472  0.40089  0.98312  1.0000
  H   H188      1.0  0.00235  0.29620  0.64989  1.0000
  Fe  Fe33      1.0  0.07925  0.34893  0.92854  1.0000
  S   S64       1.0  0.08339  0.37731  0.90711  1.0000
  S   S65       1.0  0.10614  0.34368  0.93059  1.0000
  Fe  Fe34      1.0  0.03675  0.33765  0.93035  1.0000
  S   S66       1.0  0.03911  0.36577  0.91038  1.0000
  S   S67       1.0  0.00896  0.31453  0.94545  1.0000
  Fe  Fe35      1.0  0.06031  0.36357  0.87136  1.0000
  S   S68       1.0  0.06175  0.37447  0.81421  1.0000
  Fe  Fe36      1.0  0.06218  0.37687  0.94779  1.0000
  C   C191      1.0  0.42117  0.31453  0.52764  1.0000
  S   S69       1.0  0.05733  0.33505  0.88960  1.0000
  S   S70       1.0  0.05861  0.34892  0.97108  1.0000
  H   H189      1.0  0.27113  0.29031  0.96593  1.0000
  Fe  Fe37      1.0  0.03326  0.33906  0.55783  1.0000
  S   S71       1.0  0.04363  0.35953  0.60109  1.0000
  S   S72       1.0  0.00142  0.32829  0.55845  1.0000
  Fe  Fe38      1.0  0.07351  0.34293  0.53756  1.0000
  S   S73       1.0  0.08521  0.36235  0.58092  1.0000
  H   H190      1.0  0.12133  0.35734  0.54634  1.0000
  Fe  Fe39      1.0  0.06162  0.34415  0.61546  1.0000
  S   S74       1.0  0.06297  0.33301  0.67148  1.0000
  Fe  Fe40      1.0  0.06622  0.37605  0.56244  1.0000
  S   S75       1.0  0.05101  0.32318  0.57348  1.0000
  H   H191      1.0  0.21740  0.49081  0.95761  1.0000
  C   C192      1.0  0.44582  0.24783  0.51920  1.0000
  H   H192      1.0  0.02149  0.33471  0.75521  1.0000
  H   H193      1.0  0.33686  0.48860  0.54731  1.0000
  S   S76       1.0  0.29734  0.47353  0.54942  1.0000
  C   C193      1.0  0.01802  0.32203  0.70417  1.0000
  C   C194      1.0  0.31231  0.46946  0.91250  1.0000
  H   H194      1.0  0.35517  0.25125  0.99554  1.0000
  N   N17       1.0  0.32034  0.31862  0.99066  1.0000
  C   C195      1.0  0.45355  0.25489  0.55124  1.0000
  C   C196      1.0  0.34257  0.49136  0.92438  1.0000
  H   H195      1.0  0.45825  0.36263  0.73912  1.0000
  C   C197      1.0  0.39924  0.27213  0.97668  1.0000
  H   H196      1.0  0.24312  0.44583  0.94770  1.0000
  H   H197      1.0  0.36588  0.26512  0.95731  1.0000
  H   H198      1.0  0.15779  0.39086  0.94706  1.0000
  C   C198      1.0  0.40255  0.30399  0.53287  1.0000
  C   C199      1.0  0.44749  0.34752  0.65685  1.0000
  H   H199      1.0  0.37745  0.28793  0.50845  1.0000
  C   C200      1.0  0.26905  0.46453  0.96425  1.0000
  C   C201      1.0  0.27987  0.44091  0.51731  1.0000
  H   H200      1.0  0.26973  0.47518  0.94484  1.0000
  C   C202      1.0  0.06052  0.36208  0.77506  1.0000
  C   C203      1.0  0.06047  0.34418  0.77589  1.0000
  C   C204      1.0  0.06109  0.33543  0.74388  1.0000
  C   C205      1.0  0.06165  0.34442  0.71084  1.0000
  C   C206      1.0  0.06115  0.36210  0.71002  1.0000
  C   C207      1.0  0.06060  0.37088  0.74202  1.0000
  H   H201      1.0  0.06036  0.33725  0.80116  1.0000
  H   H202      1.0  0.06131  0.32167  0.74473  1.0000
  H   H203      1.0  0.06144  0.36912  0.68475  1.0000
  H   H204      1.0  0.06060  0.38473  0.74115  1.0000
  H   H205      1.0  0.15503  0.36742  0.54203  1.0000
  S   S77       1.0  0.09294  0.33638  0.49809  1.0000
  C   C208      1.0  0.99633  0.35232  0.97464  1.0000
  S   S78       1.0  0.30308  0.48728  0.98464  1.0000
  H   H206      1.0  0.14326  0.34562  0.92823  1.0000
  H   H207      1.0  0.24331  0.44864  0.55637  1.0000
  C   C209      1.0  0.29622  0.47259  0.86062  1.0000
  C   C210      1.0  0.00719  0.35028  0.68107  1.0000
  C   C211      1.0  0.39836  0.31518  0.96659  1.0000
  C   C212      1.0  0.41741  0.32294  0.96873  1.0000
  H   H208      1.0  0.47980  0.32713  0.69978  1.0000
  C   C213      1.0  0.01216  0.34958  0.71622  1.0000
  H   H209      1.0  0.39223  0.31491  0.94114  1.0000
  H   H210      1.0  0.42582  0.32864  0.94508  1.0000
  H   H211      1.0  0.00317  0.36140  0.67146  1.0000
  H   H212      1.0  0.20229  0.33053  0.56192  1.0000
  H   H213      1.0  0.43999  0.33028  0.75493  1.0000
  N   N18       1.0  0.19319  0.32213  0.51021  1.0000
  C   C214      1.0  0.12190  0.34563  0.96504  1.0000
  C   C215      1.0  0.15412  0.39205  0.97455  1.0000
  C   C216      1.0  0.19637  0.33517  0.53886  1.0000
  H   H214      1.0  0.43153  0.31974  0.64379  1.0000
  C   C217      1.0  0.98485  0.30664  0.93791  1.0000
  H   H215      1.0  0.00385  0.33733  0.63080  1.0000
  H   H216      1.0  0.16684  0.32239  0.49950  1.0000
  H   H217      1.0  0.37281  0.32277  0.51294  1.0000
  H   H218      1.0  0.46032  0.24766  0.56704  1.0000
  H   H219      1.0  0.01460  0.31362  0.61696  1.0000
  N   N19       1.0  0.32669  0.48493  0.90202  1.0000
  C   C218      1.0  0.22899  0.42806  0.51963  1.0000
  H   H220      1.0  0.42800  0.28768  0.98018  1.0000
  H   H221      1.0  0.01217  0.36023  0.73422  1.0000
  S   S79       1.0  0.48270  0.36454  0.57916  1.0000
  C   C219      1.0  0.28506  0.29849  0.97175  1.0000
  H   H222      1.0  0.18691  0.39276  0.96313  1.0000
  H   H223      1.0  0.11494  0.39912  0.54107  1.0000
  Fe  Fe41      1.0  0.47054  0.33906  0.96182  1.0000
  C   C220      1.0  0.23660  0.46057  0.50894  1.0000
  H   H224      1.0  0.99075  0.29075  0.53055  1.0000
  H   H225      1.0  0.12747  0.39181  0.96194  1.0000
  S   S80       1.0  0.47924  0.36090  0.91798  1.0000
  C   C221      1.0  0.13954  0.34623  0.95587  1.0000
  C   C222      1.0  0.25306  0.43377  0.99064  1.0000
  C   C223      1.0  0.01435  0.30901  0.64517  1.0000
  S   S81       1.0  0.47549  0.32277  0.61024  1.0000
  C   C224      1.0  0.29681  0.46314  0.89217  1.0000
  S   S82       1.0  0.07825  0.40729  0.56005  1.0000
  S   S83       1.0  0.47186  0.33049  0.82889  1.0000
  H   H226      1.0  0.34909  0.48096  0.92606  1.0000
  H   H227      1.0  0.02703  0.30613  0.64873  1.0000
  H   H228      1.0  0.02276  0.31131  0.71317  1.0000
  H   H229      1.0  0.28422  0.46796  0.84474  1.0000
  C   C225      1.0  0.12790  0.35422  0.52317  1.0000
  N   N20       1.0  0.45504  0.35933  0.68327  1.0000
  C   C226      1.0  0.28334  0.46713  0.98725  1.0000
  C   C227      1.0  0.09769  0.43983  0.52447  1.0000
  C   C228      1.0  0.46567  0.37865  0.67428  1.0000
  C   C229      1.0  0.43717  0.32908  0.66498  1.0000
  N   N21       1.0  0.01350  0.32303  0.66956  1.0000
  C   C230      1.0  0.31625  0.30130  0.97854  1.0000
  H   H230      1.0  0.21842  0.49121  0.52661  1.0000
  H   H231      1.0  0.16574  0.34755  0.97453  1.0000
  C   C231      1.0  0.13332  0.42638  0.52701  1.0000
  H   H232      1.0  0.18357  0.33678  0.54826  1.0000
  S   S84       1.0  0.36337  0.29839  0.99311  1.0000
  H   H233      1.0  0.00207  0.35039  0.94847  1.0000
  H   H234      1.0  0.28525  0.45117  0.90128  1.0000
  H   H235      1.0  0.44955  0.35224  0.62919  1.0000
  N   N22       1.0  0.43811  0.25737  0.49826  1.0000
  C   C232      1.0  0.12222  0.40847  0.51936  1.0000
  C   C233      1.0  0.25403  0.44787  0.96585  1.0000
  H   H236      1.0  0.28345  0.43463  0.54042  1.0000
  Fe  Fe42      1.0  0.48301  0.33905  0.88385  1.0000
  C   C234      1.0  0.01736  0.33524  0.72804  1.0000
  H   H237      1.0  0.39643  0.30203  0.55940  1.0000
  H   H238      1.0  0.10018  0.44542  0.55066  1.0000
  C   C235      1.0  0.39175  0.29597  0.50403  1.0000
  H   H239      1.0  0.47319  0.38010  0.64834  1.0000
  C   C236      1.0  0.45349  0.27187  0.56165  1.0000
  H   H240      1.0  0.29517  0.27691  0.96093  1.0000
  H   H241      1.0  0.32664  0.29529  0.97672  1.0000
  H   H242      1.0  0.42664  0.30848  0.70711  1.0000
  C   C237      1.0  0.28483  0.46009  0.51485  1.0000
  H   H243      1.0  0.31253  0.46226  0.93741  1.0000
  H   H244      1.0  0.13455  0.43074  0.55424  1.0000
  C   C238      1.0  0.45207  0.35337  0.71814  1.0000
  H   H245      1.0  0.15026  0.45292  0.50462  1.0000
  H   H246      1.0  0.26510  0.30952  0.49793  1.0000
  C   C239      1.0  0.15237  0.34737  0.98213  1.0000
  C   C240      1.0  0.08586  0.41840  0.99194  1.0000
  C   C241      1.0  0.44556  0.28147  0.54018  1.0000
  H   H247      1.0  0.33927  0.31452  0.51950  1.0000
  N   N23       1.0  0.10438  0.36403  0.77525  1.0000
  C   C242      1.0  0.10460  0.36943  0.80957  1.0000
  C   C243      1.0  0.10364  0.34668  0.76818  1.0000
  C   C244      1.0  0.10402  0.35731  0.83787  1.0000
  C   C245      1.0  0.10271  0.33411  0.79596  1.0000
  C   C246      1.0  0.10294  0.33953  0.83105  1.0000
  C   C247      1.0  0.10589  0.37722  0.74592  1.0000
  H   H248      1.0  0.10491  0.38307  0.81530  1.0000
  H   H249      1.0  0.10333  0.34236  0.74095  1.0000
  H   H250      1.0  0.10433  0.36163  0.86500  1.0000
  H   H251      1.0  0.10175  0.32026  0.79036  1.0000
  H   H252      1.0  0.10226  0.33002  0.85307  1.0000
  H   H253      1.0  0.12040  0.38534  0.73934  1.0000
  H   H254      1.0  0.09936  0.37016  0.72180  1.0000
  H   H255      1.0  0.09882  0.38673  0.75316  1.0000
  H   H256      1.0  0.99486  0.36592  0.97431  1.0000
  C   C248      1.0  0.44172  0.33505  0.72726  1.0000
  H   H257      1.0  0.39839  0.27849  0.95121  1.0000
  C   C249      1.0  0.30713  0.32608  0.99373  1.0000
  H   H258      1.0  0.21955  0.32055  0.51337  1.0000
  C   C250      1.0  0.48224  0.33959  0.78677  1.0000
  H   H259      1.0  0.10248  0.40628  0.96384  1.0000
  S   S85       1.0  0.47209  0.31682  0.92697  1.0000
  H   H260      1.0  0.27878  0.32191  0.98744  1.0000
  H   H261      1.0  0.46865  0.31429  0.76066  1.0000
  H   H262      1.0  0.13165  0.43086  0.97790  1.0000
  C   C251      1.0  0.43436  0.32281  0.70044  1.0000
  C   C252      1.0  0.14707  0.35993  0.52062  1.0000
  H   H263      1.0  0.45662  0.38667  0.67308  1.0000
  C   C253      1.0  0.08684  0.42126  0.52106  1.0000
  H   H264      1.0  0.46012  0.27785  0.58569  1.0000
  C   C254      1.0  0.00771  0.33667  0.65809  1.0000
  C   C255      1.0  0.31107  0.48817  0.84980  1.0000
  H   H265      1.0  0.44571  0.29481  0.54775  1.0000
  H   H266      1.0  0.22941  0.41663  0.53602  1.0000
  H   H267      1.0  0.20584  0.34888  0.52901  1.0000
  C   C256      1.0  0.11893  0.43158  0.98763  1.0000
  C   C257      1.0  0.28936  0.31621  0.98394  1.0000
  C   C258      1.0  0.20664  0.31587  0.50031  1.0000
  C   C259      1.0  0.18391  0.39197  0.99220  1.0000
  C   C260      1.0  0.10242  0.41762  0.97961  1.0000
  H   H268      1.0  0.98543  0.32821  0.90075  1.0000
  N   N24       1.0  0.38402  0.25957  0.99312  1.0000
  C   C261      1.0  0.36656  0.25405  0.97566  1.0000
  H   H269      1.0  0.24286  0.47448  0.51785  1.0000
  C   C262      1.0  0.22420  0.49134  0.98242  1.0000
  C   C263      1.0  0.23676  0.44599  0.53102  1.0000
  H   H270      1.0  0.11403  0.46541  0.49739  1.0000
  H   H271      1.0  0.10124  0.37629  0.50127  1.0000
  C   C264      1.0  0.47748  0.32852  0.75699  1.0000
  H   H272      1.0  0.34895  0.32844  0.98076  1.0000
  C   C265      1.0  0.43793  0.27400  0.50833  1.0000
  C   C266      1.0  0.41604  0.27735  0.99286  1.0000
  S   S86       1.0  0.23422  0.41282  0.99070  1.0000
  H   H273      1.0  0.47625  0.38455  0.69414  1.0000
  C   C267      1.0  0.14207  0.43880  0.49921  1.0000
  C   C268      1.0  0.13112  0.70066  0.48719  1.0000
  C   C269      1.0  0.13588  0.55334  0.14206  1.0000
  Fe  Fe43      1.0  0.14801  0.53109  0.04035  1.0000
  S   S87       1.0  0.16561  0.53910  0.08774  1.0000
  H   H274      1.0  0.44369  0.62203  0.35447  1.0000
  Fe  Fe44      1.0  0.18048  0.52227  0.06330  1.0000
  S   S88       1.0  0.21100  0.53058  0.06405  1.0000
  Fe  Fe45      1.0  0.14717  0.51227  0.11327  1.0000
  H   H275      1.0  0.41233  0.61511  0.28287  1.0000
  C   C270      1.0  0.99942  0.72780  0.33756  1.0000
  S   S89       1.0  0.12817  0.50522  0.06730  1.0000
  Fe  Fe46      1.0  0.43783  0.65225  0.03970  1.0000
  S   S90       1.0  0.42201  0.66357  0.07623  1.0000
  H   H276      1.0  0.36125  0.60064  0.04531  1.0000
  C   C271      1.0  0.11667  0.54865  0.09168  1.0000
  S   S91       1.0  0.46088  0.69405  0.09876  1.0000
  Fe  Fe47      1.0  0.44324  0.66543  0.11663  1.0000
  S   S92       1.0  0.43196  0.65627  0.17346  1.0000
  Fe  Fe48      1.0  0.44101  0.69114  0.05580  1.0000
  S   S93       1.0  0.42969  0.71330  0.04436  1.0000
  S   S94       1.0  0.45803  0.65200  0.08122  1.0000
  H   H277      1.0  0.33570  0.51045  0.44234  1.0000
  Fe  Fe49      1.0  0.42708  0.64578  0.43457  1.0000
  S   S95       1.0  0.42538  0.66763  0.39602  1.0000
  S   S96       1.0  0.40256  0.61869  0.43341  1.0000
  Fe  Fe50      1.0  0.46524  0.67089  0.45771  1.0000
  S   S97       1.0  0.46604  0.69401  0.42062  1.0000
  Fe  Fe51      1.0  0.43710  0.68745  0.43923  1.0000
  C   C272      1.0  0.13759  0.64840  0.44999  1.0000
  Fe  Fe52      1.0  0.45435  0.67224  0.38032  1.0000
  S   S98       1.0  0.46716  0.67646  0.32412  1.0000
  H   H278      1.0  0.00459  0.72809  0.30979  1.0000
  S   S99       1.0  0.45568  0.64929  0.41638  1.0000
  Fe  Fe53      1.0  0.16272  0.51469  0.37371  1.0000
  S   S100      1.0  0.13459  0.51148  0.39338  1.0000
  S   S101      1.0  0.17470  0.52040  0.31681  1.0000
  Fe  Fe54      1.0  0.17344  0.50537  0.44752  1.0000
  N   N25       1.0  0.27654  0.72434  0.00473  1.0000
  C   C273      1.0  0.23407  0.72830  0.02917  1.0000
  C   C274      1.0  0.13601  0.51206  0.24215  1.0000
  Fe  Fe55      1.0  0.14866  0.52731  0.44062  1.0000
  C   C275      1.0  0.21429  0.51097  0.49044  1.0000
  C   C276      1.0  0.39044  0.60337  0.46890  1.0000
  S   S102      1.0  0.17694  0.53214  0.41913  1.0000
  H   H279      1.0  0.35092  0.56618  0.48374  1.0000
  H   H280      1.0  0.33997  0.61394  0.43692  1.0000
  H   H281      1.0  0.46809  0.63820  0.30824  1.0000
  C   C277      1.0  0.05508  0.69279  0.03600  1.0000
  C   C278      1.0  0.99652  0.71897  0.03746  1.0000
  C   C279      1.0  0.43694  0.72721  0.00538  1.0000
  H   H282      1.0  0.19458  0.60182  0.48470  1.0000
  C   C280      1.0  0.11996  0.70437  0.02975  1.0000
  H   H283      1.0  0.13656  0.51247  0.29964  1.0000
  C   C281      1.0  0.14897  0.59753  0.08900  1.0000
  H   H284      1.0  0.12163  0.57214  0.05690  1.0000
  H   H285      1.0  0.14014  0.54801  0.16573  1.0000
  H   H286      1.0  0.14480  0.60068  0.06236  1.0000
  C   C282      1.0  0.38918  0.61336  0.02636  1.0000
  H   H287      1.0  0.00163  0.71110  0.09005  1.0000
  C   C283      1.0  0.37396  0.58912  0.46198  1.0000
  H   H288      1.0  0.06527  0.66057  0.02800  1.0000
  H   H289      1.0  0.36909  0.58762  0.43521  1.0000
  H   H290      1.0  0.19171  0.49374  0.03783  1.0000
  C   C284      1.0  0.44179  0.66529  0.21415  1.0000
  C   C285      1.0  0.46059  0.67368  0.21721  1.0000
  C   C286      1.0  0.46806  0.67778  0.25102  1.0000
  C   C287      1.0  0.45685  0.67375  0.28210  1.0000
  C   C288      1.0  0.43799  0.66625  0.27888  1.0000
  C   C289      1.0  0.43055  0.66194  0.24512  1.0000
  H   H291      1.0  0.46943  0.67629  0.19370  1.0000
  N   N26       1.0  0.43974  0.62567  0.29946  1.0000
  H   H292      1.0  0.42917  0.66327  0.30243  1.0000
  H   H293      1.0  0.41598  0.65551  0.24302  1.0000
  H   H294      1.0  0.08103  0.68002  0.04988  1.0000
  C   C290      1.0  0.34158  0.51186  0.46835  1.0000
  S   S103      1.0  0.05881  0.73616  0.09499  1.0000
  H   H295      1.0  0.00975  0.71200  0.44204  1.0000
  S   S104      1.0  0.09841  0.72058  0.06233  1.0000
  C   C291      1.0  0.35577  0.52792  0.47655  1.0000
  H   H296      1.0  0.11510  0.52747  0.13068  1.0000
  H   H297      1.0  0.26293  0.71440  0.05449  1.0000
  C   C292      1.0  0.10887  0.71476  0.02468  1.0000
  H   H298      1.0  0.39342  0.62157  0.04950  1.0000
  C   C293      1.0  0.14613  0.51411  0.21000  1.0000
  H   H299      1.0  0.36110  0.53914  0.45698  1.0000
  C   C294      1.0  0.14456  0.51452  0.27510  1.0000
  C   C295      1.0  0.16339  0.51921  0.27619  1.0000
  C   C296      1.0  0.17358  0.52198  0.24394  1.0000
  C   C297      1.0  0.16501  0.51936  0.21103  1.0000
  H   H300      1.0  0.13465  0.68891  0.00500  1.0000
  H   H301      1.0  0.16389  0.60079  0.08697  1.0000
  H   H302      1.0  0.18817  0.52576  0.24445  1.0000
  H   H303      1.0  0.17301  0.52111  0.18652  1.0000
  C   C298      1.0  0.18566  0.67529  0.41942  1.0000
  C   C299      1.0  0.99851  0.73215  0.42612  1.0000
  C   C300      1.0  0.26521  0.70911  0.02833  1.0000
  C   C301      1.0  0.45772  0.63246  0.28896  1.0000
  H   H304      1.0  0.38047  0.63448  0.49021  1.0000
  C   C302      1.0  0.22404  0.53444  0.02394  1.0000
  C   C303      1.0  0.24273  0.53810  0.02544  1.0000
  S   S105      1.0  0.43665  0.66540  0.47881  1.0000
  H   H305      1.0  0.24899  0.53932  0.05095  1.0000
  H   H306      1.0  0.15718  0.62742  0.45978  1.0000
  H   H307      1.0  0.12957  0.63418  0.44244  1.0000
  C   C304      1.0  0.40180  0.61478  0.99865  1.0000
  H   H308      1.0  0.29655  0.73489  0.04357  1.0000
  H   H309      1.0  0.12141  0.50814  0.24166  1.0000
  H   H310      1.0  0.36538  0.65687  0.04985  1.0000
  C   C305      1.0  0.16503  0.64078  0.44782  1.0000
  H   H311      1.0  0.42096  0.61638  0.21891  1.0000
  N   N27       1.0  0.06446  0.68643  0.01191  1.0000
  C   C306      1.0  0.44068  0.72949  0.47080  1.0000
  C   C307      1.0  0.12181  0.54180  0.12241  1.0000
  H   H312      1.0  0.15584  0.58044  0.14555  1.0000
  H   H313      1.0  0.26604  0.49689  0.01271  1.0000
  S   S106      1.0  0.13448  0.50906  0.16958  1.0000
  C   C308      1.0  0.12560  0.56707  0.08115  1.0000
  S   S107      1.0  0.45570  0.68002  0.01640  1.0000
  H   H314      1.0  0.34832  0.62979  0.01456  1.0000
  C   C309      1.0  0.14472  0.57163  0.13045  1.0000
  H   H315      1.0  0.11183  0.72398  0.43334  1.0000
  H   H316      1.0  0.42045  0.61692  0.34360  1.0000
  H   H317      1.0  0.19364  0.68903  0.40934  1.0000
  H   H318      1.0  0.14597  0.60665  0.10834  1.0000
  C   C310      1.0  0.99739  0.71453  0.43721  1.0000
  H   H319      1.0  0.10616  0.53964  0.07553  1.0000
  H   H320      1.0  0.98365  0.69234  0.35696  1.0000
  C   C311      1.0  0.36825  0.63308  0.47470  1.0000
  H   H321      1.0  0.23088  0.72001  0.05357  1.0000
  H   H322      1.0  0.48266  0.68365  0.25316  1.0000
  C   C312      1.0  0.25167  0.49486  0.01315  1.0000
  H   H323      1.0  0.16066  0.68028  0.42143  1.0000
  S   S108      1.0  0.13743  0.55015  0.00850  1.0000
  H   H324      1.0  0.12319  0.70145  0.05643  1.0000
  C   C313      1.0  0.43463  0.62623  0.33700  1.0000
  C   C314      1.0  0.15143  0.57072  0.48041  1.0000
  S   S109      1.0  0.42516  0.70808  0.45857  1.0000
  C   C315      1.0  0.22208  0.52850  0.47441  1.0000
  S   S110      1.0  0.14798  0.69070  0.48467  1.0000
  N   N28       1.0  0.15692  0.65318  0.44053  1.0000
  S   S111      1.0  0.13872  0.54816  0.46720  1.0000
  C   C316      1.0  0.22412  0.72162  0.99870  1.0000
  Fe  Fe56      1.0  0.08443  0.74142  0.06129  1.0000
  Fe  Fe57      1.0  0.47448  0.68082  0.06049  1.0000
  H   H325      1.0  0.17749  0.57105  0.46160  1.0000
  H   H326      1.0  0.37211  0.63182  0.44653  1.0000
  H   H327      1.0  0.13624  0.71094  0.43281  1.0000
  C   C317      1.0  0.18365  0.64529  0.44079  1.0000
  C   C318      1.0  0.23998  0.53968  0.48200  1.0000
  C   C319      1.0  0.46295  0.63316  0.25301  1.0000
  S   S112      1.0  0.08520  0.72378  0.48879  1.0000
  H   H328      1.0  0.21438  0.53341  0.45607  1.0000
  H   H329      1.0  0.05596  0.69040  0.06428  1.0000
  C   C320      1.0  0.16697  0.67025  0.42645  1.0000
  C   C321      1.0  0.17031  0.57856  0.47523  1.0000
  H   H330      1.0  0.21337  0.70824  0.99965  1.0000
  H   H331      1.0  0.24907  0.49457  0.07025  1.0000
  C   C322      1.0  0.17522  0.60195  0.01102  1.0000
  C   C323      1.0  0.99147  0.70938  0.07033  1.0000
  H   H332      1.0  0.25157  0.70197  0.01745  1.0000
  C   C324      1.0  0.24214  0.49352  0.04543  1.0000
  C   C325      1.0  0.45854  0.73618  0.45692  1.0000
  H   H333      1.0  0.41102  0.73748  0.42156  1.0000
  C   C326      1.0  0.11419  0.71716  0.45701  1.0000
  C   C327      1.0  0.19402  0.66270  0.42673  1.0000
  S   S113      1.0  0.14615  0.50161  0.47238  1.0000
  H   H334      1.0  0.45342  0.62846  0.19960  1.0000
  S   S114      1.0  0.42469  0.63044  0.99916  1.0000
  H   H335      1.0  0.46294  0.72829  0.43816  1.0000
  C   C328      1.0  0.16641  0.58283  0.01595  1.0000
  C   C329      1.0  0.14931  0.57406  0.00202  1.0000
  C   C330      1.0  0.44964  0.62705  0.22775  1.0000
  H   H336      1.0  0.19006  0.63551  0.44738  1.0000
  H   H337      1.0  0.00723  0.72210  0.35546  1.0000
  C   C331      1.0  0.37093  0.60144  0.02392  1.0000
  S   S115      1.0  0.16425  0.51614  0.01421  1.0000
  C   C332      1.0  0.43135  0.62023  0.23865  1.0000
  S   S116      1.0  0.06231  0.73512  0.40069  1.0000
  H   H338      1.0  0.20857  0.66654  0.42226  1.0000
  N   N29       1.0  0.13956  0.57825  0.10028  1.0000
  S   S117      1.0  0.16344  0.49607  0.09252  1.0000
  H   H339      1.0  0.13188  0.65781  0.43651  1.0000
  H   H340      1.0  0.08576  0.67584  0.00510  1.0000
  H   H341      1.0  0.24599  0.55323  0.46953  1.0000
  C   C333      1.0  0.42659  0.61969  0.27483  1.0000
  C   C334      1.0  0.17995  0.59602  0.48837  1.0000
  C   C335      1.0  0.12800  0.70974  0.45678  1.0000
  C   C336      1.0  0.07454  0.67507  0.02431  1.0000
  H   H342      1.0  0.39623  0.67727  0.02933  1.0000
  C   C337      1.0  0.36364  0.57691  0.48943  1.0000
  C   C338      1.0  0.36173  0.63907  0.00552  1.0000
  H   H343      1.0  0.13588  0.64958  0.47912  1.0000
  S   S118      1.0  0.01937  0.73453  0.02619  1.0000
  C   C339      1.0  0.10312  0.71522  0.48751  1.0000
  H   H344      1.0  0.43589  0.64044  0.34331  1.0000
  H   H345      1.0  0.47069  0.73788  0.06234  1.0000
  H   H346      1.0  0.17284  0.57489  0.03059  1.0000
  C   C340      1.0  0.04454  0.70278  0.02460  1.0000
  C   C341      1.0  0.38884  0.66554  0.01376  1.0000
  C   C342      1.0  0.32365  0.59373  0.47569  1.0000
  C   C343      1.0  0.37133  0.65414  0.02538  1.0000
  C   C344      1.0  0.12647  0.69724  0.00063  1.0000
  C   C345      1.0  0.33896  0.60884  0.46423  1.0000
  H   H347      1.0  0.18846  0.60863  0.02190  1.0000
  H   H348      1.0  0.27194  0.69900  0.03230  1.0000
  C   C346      1.0  0.29259  0.73628  0.01661  1.0000
  H   H349      1.0  0.47717  0.63929  0.24466  1.0000
  H   H350      1.0  0.00230  0.74211  0.34592  1.0000
  H   H351      1.0  0.31289  0.58717  0.45761  1.0000
  H   H352      1.0  0.03708  0.70780  0.04368  1.0000
  C   C347      1.0  0.33486  0.49762  0.49391  1.0000
  S   S119      1.0  0.19200  0.49634  0.48195  1.0000
  C   C348      1.0  0.43502  0.74015  0.49443  1.0000
  H   H353      1.0  0.36510  0.64574  0.47713  1.0000
  N   N30       1.0  0.35256  0.61698  0.48702  1.0000
  H   H354      1.0  0.38486  0.74059  0.45544  1.0000
  Fe  Fe58      1.0  0.32525  0.55500  0.95404  1.0000
  S   S120      1.0  0.31171  0.55955  0.90451  1.0000
  H   H355      1.0  0.32530  0.57089  0.76828  1.0000
  Fe  Fe59      1.0  0.30568  0.51299  0.95222  1.0000
  S   S121      1.0  0.29111  0.51429  0.90245  1.0000
  Fe  Fe60      1.0  0.31750  0.53561  0.88257  1.0000
  S   S122      1.0  0.32993  0.53671  0.82679  1.0000
  Fe  Fe61      1.0  0.28624  0.53792  0.92786  1.0000
  S   S123      1.0  0.25825  0.53905  0.92151  1.0000
  S   S124      1.0  0.33291  0.53247  0.93063  1.0000
  H   H356      1.0  0.03600  0.71456  0.97939  1.0000
  Fe  Fe62      1.0  0.15192  0.68088  0.92619  1.0000
  S   S125      1.0  0.17293  0.69614  0.88370  1.0000
  S   S126      1.0  0.12682  0.68878  0.92958  1.0000
  Fe  Fe63      1.0  0.17315  0.65710  0.94951  1.0000
  S   S127      1.0  0.19569  0.67105  0.90922  1.0000
  C   C349      1.0  0.17565  0.71133  0.74173  1.0000
  Fe  Fe64      1.0  0.19312  0.69734  0.92552  1.0000
  H   H357      1.0  0.31075  0.49574  0.82544  1.0000
  Fe  Fe65      1.0  0.17384  0.66870  0.87036  1.0000
  S   S128      1.0  0.18025  0.65945  0.81603  1.0000
  S   S129      1.0  0.17215  0.68390  0.96892  1.0000
  S   S130      1.0  0.15127  0.65290  0.90976  1.0000
  Fe  Fe66      1.0  0.17624  0.65054  0.54706  1.0000
  S   S131      1.0  0.18971  0.66468  0.59609  1.0000
  H   H358      1.0  0.21796  0.70030  0.71514  1.0000
  Fe  Fe67      1.0  0.16013  0.68032  0.53086  1.0000
  S   S132      1.0  0.17228  0.69645  0.57833  1.0000
  C   C350      1.0  0.24269  0.49386  0.98140  1.0000
  Fe  Fe68      1.0  0.19743  0.69099  0.56335  1.0000
  S   S133      1.0  0.18615  0.67675  0.51385  1.0000
  Fe  Fe69      1.0  0.16358  0.66905  0.60794  1.0000
  S   S134      1.0  0.15043  0.66821  0.66308  1.0000
  C   C351      1.0  0.16675  0.58563  0.90957  1.0000
  S   S135      1.0  0.14924  0.65298  0.56094  1.0000
  Fe  Fe70      1.0  0.29867  0.52649  0.62343  1.0000
  S   S136      1.0  0.32106  0.51803  0.60149  1.0000
  S   S137      1.0  0.28830  0.52470  0.68135  1.0000
  Fe  Fe71      1.0  0.28896  0.53528  0.54818  1.0000
  H   H359      1.0  0.05335  0.70313  0.93582  1.0000
  C   C352      1.0  0.41499  0.67370  0.97148  1.0000
  H   H360      1.0  0.18284  0.70872  0.79597  1.0000
  Fe  Fe72      1.0  0.32842  0.54303  0.56441  1.0000
  S   S138      1.0  0.35774  0.56343  0.55972  1.0000
  S   S139      1.0  0.27845  0.51014  0.58421  1.0000
  S   S140      1.0  0.30717  0.55238  0.58912  1.0000
  H   H361      1.0  0.21012  0.70179  0.77883  1.0000
  C   C353      1.0  0.18660  0.70856  0.76807  1.0000
  H   H362      1.0  0.98646  0.72346  0.98674  1.0000
  H   H363      1.0  0.19773  0.71592  0.64242  1.0000
  H   H364      1.0  0.10711  0.71318  0.93442  1.0000
  C   C354      1.0  0.18213  0.58558  0.57778  1.0000
  C   C355      1.0  0.36410  0.51759  0.57060  1.0000
  C   C356      1.0  0.36986  0.57863  0.52411  1.0000
  H   H365      1.0  0.16177  0.57168  0.92069  1.0000
  H   H366      1.0  0.09777  0.70466  0.54171  1.0000
  C   C357      1.0  0.22843  0.73209  0.96685  1.0000
  H   H367      1.0  0.41442  0.68139  0.94666  1.0000
  H   H368      1.0  0.12254  0.69208  0.54149  1.0000
  H   H369      1.0  0.19176  0.49316  0.99068  1.0000
  H   H370      1.0  0.16908  0.58785  0.57544  1.0000
  H   H371      1.0  0.44290  0.72517  0.57922  1.0000
  H   H372      1.0  0.31692  0.58795  0.75052  1.0000
  N   N31       1.0  0.35610  0.51560  0.53551  1.0000
  S   S141      1.0  0.21798  0.72348  0.92687  1.0000
  C   C358      1.0  0.33612  0.59553  0.53386  1.0000
  H   H373      1.0  0.19031  0.69143  0.65015  1.0000
  C   C359      1.0  0.31383  0.57302  0.75466  1.0000
  H   H374      1.0  0.39138  0.59420  0.55764  1.0000
  C   C360      1.0  0.26442  0.54894  0.77904  1.0000
  H   H375      1.0  0.16120  0.61805  0.81808  1.0000
  H   H376      1.0  0.35516  0.50733  0.59042  1.0000
  H   H377      1.0  0.44238  0.69902  0.54214  1.0000
  C   C361      1.0  0.17135  0.66144  0.77390  1.0000
  C   C362      1.0  0.18027  0.65850  0.74312  1.0000
  C   C363      1.0  0.17402  0.66038  0.70901  1.0000
  C   C364      1.0  0.15854  0.66493  0.70535  1.0000
  C   C365      1.0  0.14940  0.66746  0.73618  1.0000
  C   C366      1.0  0.15582  0.66587  0.77028  1.0000
  H   H378      1.0  0.19223  0.65495  0.74563  1.0000
  H   H379      1.0  0.18111  0.65824  0.68560  1.0000
  H   H380      1.0  0.13736  0.67089  0.73366  1.0000
  H   H381      1.0  0.14874  0.66806  0.79368  1.0000
  H   H382      1.0  0.42121  0.73505  0.50528  1.0000
  C   C367      1.0  0.23321  0.72897  0.53055  1.0000
  H   H383      1.0  0.07128  0.68492  0.95719  1.0000
  C   C368      1.0  0.19961  0.70487  0.65911  1.0000
  C   C369      1.0  0.12163  0.70011  0.96616  1.0000
  C   C370      1.0  0.37772  0.59200  0.96637  1.0000
  C   C371      1.0  0.16584  0.55584  0.55174  1.0000
  C   C372      1.0  0.31812  0.53152  0.78660  1.0000
  C   C373      1.0  0.32810  0.53531  0.75402  1.0000
  C   C374      1.0  0.31923  0.53256  0.72141  1.0000
  C   C375      1.0  0.30024  0.52583  0.72111  1.0000
  C   C376      1.0  0.29029  0.52124  0.75372  1.0000
  C   C377      1.0  0.29914  0.52416  0.78630  1.0000
  H   H384      1.0  0.34280  0.54086  0.75396  1.0000
  H   H385      1.0  0.32707  0.53610  0.69657  1.0000
  C   C378      1.0  0.32227  0.58705  0.51071  1.0000
  H   H386      1.0  0.29127  0.52102  0.81113  1.0000
  H   H387      1.0  0.15005  0.62660  0.85163  1.0000
  H   H388      1.0  0.12772  0.57471  0.50247  1.0000
  H   H389      1.0  0.14363  0.61166  0.96325  1.0000
  S   S142      1.0  0.22537  0.71293  0.56676  1.0000
  C   C379      1.0  0.10631  0.70627  0.51802  1.0000
  H   H390      1.0  0.40918  0.61602  0.50942  1.0000
  N   N32       1.0  0.29683  0.56467  0.77576  1.0000
  C   C380      1.0  0.39652  0.60518  0.50365  1.0000
  N   N33       1.0  0.39666  0.66178  0.98357  1.0000
  C   C381      1.0  0.28075  0.55684  0.75914  1.0000
  C   C382      1.0  0.24541  0.53813  0.96104  1.0000
  C   C383      1.0  0.20198  0.70470  0.75841  1.0000
  H   H391      1.0  0.33832  0.49374  0.95165  1.0000
  H   H392      1.0  0.22054  0.53370  0.93390  1.0000
  H   H393      1.0  0.20179  0.53056  0.98927  1.0000
  C   C384      1.0  0.39598  0.60389  0.96885  1.0000
  C   C385      1.0  0.11088  0.71085  0.96101  1.0000
  H   H394      1.0  0.28111  0.55833  0.86140  1.0000
  N   N34       1.0  0.16295  0.60876  0.87078  1.0000
  H   H395      1.0  0.13971  0.60337  0.83824  1.0000
  C   C386      1.0  0.22679  0.53495  0.95942  1.0000
  S   S143      1.0  0.17902  0.63642  0.98632  1.0000
  C   C387      1.0  0.06370  0.68982  0.97627  1.0000
  C   C388      1.0  0.22446  0.50468  0.51387  1.0000
  C   C389      1.0  0.10476  0.71839  0.99006  1.0000
  C   C390      1.0  0.18194  0.53846  0.52367  1.0000
  C   C391      1.0  0.24237  0.51576  0.52113  1.0000
  H   H396      1.0  0.25001  0.51077  0.53929  1.0000
  H   H397      1.0  0.35286  0.50454  0.91399  1.0000
  H   H398      1.0  0.25209  0.54330  0.83207  1.0000
  C   C392      1.0  0.45493  0.72581  0.56384  1.0000
  H   H399      1.0  0.31298  0.56665  0.72833  1.0000
  C   C393      1.0  0.38638  0.59277  0.53096  1.0000
  N   N35       1.0  0.19555  0.70672  0.69670  1.0000
  H   H400      1.0  0.16327  0.71361  0.74901  1.0000
  H   H401      1.0  0.30982  0.57151  0.82522  1.0000
  C   C394      1.0  0.28096  0.55781  0.83265  1.0000
  C   C395      1.0  0.36299  0.52951  0.51039  1.0000
  H   H402      1.0  0.31050  0.57527  0.51980  1.0000
  H   H403      1.0  0.14479  0.60552  0.52550  1.0000
  H   H404      1.0  0.37341  0.58402  0.94299  1.0000
  H   H405      1.0  0.36253  0.62358  0.95938  1.0000
  C   C396      1.0  0.18026  0.71018  0.70596  1.0000
  H   H406      1.0  0.25010  0.49543  0.95615  1.0000
  H   H407      1.0  0.20053  0.62691  0.91887  1.0000
  H   H408      1.0  0.27560  0.51584  0.75375  1.0000
  H   H409      1.0  0.26028  0.74102  0.54992  1.0000
  C   C397      1.0  0.20627  0.70380  0.72237  1.0000
  C   C398      1.0  0.38736  0.64703  0.96397  1.0000
  S   S144      1.0  0.34139  0.57796  0.99037  1.0000
  H   H410      1.0  0.19010  0.59467  0.94244  1.0000
  H   H411      1.0  0.37397  0.54207  0.51667  1.0000
  H   H412      1.0  0.19290  0.59824  0.56649  1.0000
  C   C399      1.0  0.15196  0.59819  0.51125  1.0000
  C   C400      1.0  0.19811  0.56777  0.54868  1.0000
  H   H413      1.0  0.21091  0.57851  0.55422  1.0000
  H   H414      1.0  0.14450  0.58094  0.87492  1.0000
  H   H415      1.0  0.33541  0.59018  0.56094  1.0000
  H   H416      1.0  0.17120  0.71142  0.68566  1.0000
  S   S145      1.0  0.18394  0.62712  0.52494  1.0000
  H   H417      1.0  0.25836  0.71722  0.96178  1.0000
  H   H418      1.0  0.15270  0.52980  0.52773  1.0000
  C   C401      1.0  0.29708  0.56536  0.81202  1.0000
  H   H419      1.0  0.40564  0.60482  0.94733  1.0000
  C   C402      1.0  0.45200  0.73385  0.94700  1.0000
  H   H420      1.0  0.36605  0.53139  0.58086  1.0000
  H   H421      1.0  0.18192  0.52645  0.50977  1.0000
  C   C403      1.0  0.05358  0.70009  0.96401  1.0000
  C   C404      1.0  0.36502  0.59084  0.99378  1.0000
  S   S146      1.0  0.29901  0.53511  0.97899  1.0000
  S   S147      1.0  0.27261  0.54759  0.51452  1.0000
  N   N36       1.0  0.18199  0.56945  0.55852  1.0000
  H   H422      1.0  0.39379  0.64377  0.94063  1.0000
  C   C405      1.0  0.18267  0.59853  0.92181  1.0000
  H   H423      1.0  0.28057  0.55606  0.73038  1.0000
  C   C406      1.0  0.22164  0.72962  0.50344  1.0000
  H   H424      1.0  0.21385  0.70575  0.65418  1.0000
  C   C407      1.0  0.26458  0.54944  0.81606  1.0000
  C   C408      1.0  0.18856  0.61660  0.90850  1.0000
  S   S148      1.0  0.31079  0.52756  0.52107  1.0000
  H   H425      1.0  0.42359  0.66537  0.96662  1.0000
  H   H426      1.0  0.25178  0.54228  0.76580  1.0000
  H   H427      1.0  0.09627  0.72638  0.98577  1.0000
  Fe  Fe73      1.0  0.30135  0.50333  0.55990  1.0000
  C   C409      1.0  0.45462  0.71116  0.54309  1.0000
  C   C410      1.0  0.21612  0.53312  0.99079  1.0000
  C   C411      1.0  0.15292  0.61433  0.84336  1.0000
  H   H428      1.0  0.45931  0.73014  0.92567  1.0000
  C   C412      1.0  0.15002  0.60371  0.97791  1.0000
  C   C413      1.0  0.19834  0.55228  0.53109  1.0000
  C   C414      1.0  0.12035  0.69914  0.51800  1.0000
  C   C415      1.0  0.47009  0.71245  0.52267  1.0000
  H   H429      1.0  0.18452  0.58386  0.60632  1.0000
  C   C416      1.0  0.17855  0.62147  0.88265  1.0000
  C   C417      1.0  0.16558  0.54023  0.53403  1.0000
  H   H430      1.0  0.18325  0.63553  0.87232  1.0000
  C   C418      1.0  0.15697  0.59102  0.88392  1.0000
  H   H431      1.0  0.15301  0.55720  0.55897  1.0000
  C   C419      1.0  0.16712  0.61248  0.99192  1.0000
  H   H432      1.0  0.42168  0.68384  0.99165  1.0000
  C   C420      1.0  0.14114  0.58458  0.98309  1.0000
  C   C421      1.0  0.25126  0.74144  0.52904  1.0000
  C   C422      1.0  0.34235  0.49971  0.52754  1.0000
  H   H433      1.0  0.36204  0.61694  0.53961  1.0000
  H   H434      1.0  0.37747  0.51592  0.56878  1.0000
  C   C423      1.0  0.04388  0.70651  0.98839  1.0000
  C   C424      1.0  0.36970  0.63558  0.97441  1.0000
  C   C425      1.0  0.17086  0.60588  0.50661  1.0000
  H   H435      1.0  0.20768  0.72018  0.50444  1.0000
  C   C426      1.0  0.44655  0.72258  0.97790  1.0000
  C   C427      1.0  0.25337  0.53995  0.99415  1.0000
  H   H436      1.0  0.21112  0.55099  0.52316  1.0000
  C   C428      1.0  0.35121  0.61065  0.52157  1.0000
  H   H437      1.0  0.12786  0.57790  0.97235  1.0000
  C   C429      1.0  0.32627  0.49423  0.87099  1.0000
  C   C430      1.0  0.25020  0.53332  0.50533  1.0000
  H   H438      1.0  0.33760  0.50657  0.86260  1.0000
  H   H439      1.0  0.44981  0.71037  0.98030  1.0000
  C   C431      1.0  0.27127  0.72642  0.97104  1.0000
  H   H440      1.0  0.46968  0.70105  0.50647  1.0000
  H   H441      1.0  0.09396  0.73964  0.55592  1.0000
  H   H442      1.0  0.26773  0.54285  0.99580  1.0000
  C   C432      1.0  0.28208  0.74093  0.94849  1.0000
  C   C433      1.0  0.14233  0.58069  0.49825  1.0000
  C   C434      1.0  0.47067  0.74147  0.56408  1.0000
  Fe  Fe74      1.0  0.08705  0.77927  0.03411  1.0000
  S   S149      1.0  0.09888  0.76987  0.08109  1.0000
  N   N37       1.0  0.23303  0.83799  0.49306  1.0000
  H   H443      1.0  0.25416  0.77844  0.23672  1.0000
  N   N38       1.0  0.10714  0.83767  0.06144  1.0000
  S   S150      1.0  0.09433  0.75754  0.31565  1.0000
  Fe  Fe75      1.0  0.07235  0.76549  0.11054  1.0000
  S   S151      1.0  0.06844  0.77621  0.16499  1.0000
  H   H444      1.0  0.28809  0.84066  0.49491  1.0000
  S   S152      1.0  0.06110  0.77675  0.06466  1.0000
  H   H445      1.0  0.35457  0.84336  0.47242  1.0000
  Fe  Fe76      1.0  0.29655  0.81814  0.02443  1.0000
  S   S153      1.0  0.27949  0.80591  0.07372  1.0000
  S   S154      1.0  0.01979  0.75086  0.41790  1.0000
  Fe  Fe77      1.0  0.32510  0.80114  0.04204  1.0000
  S   S155      1.0  0.30974  0.78744  0.09259  1.0000
  C   C435      1.0  0.16413  0.85076  0.48935  1.0000
  Fe  Fe78      1.0  0.28462  0.78036  0.06051  1.0000
  S   S156      1.0  0.26248  0.75220  0.06472  1.0000
  Fe  Fe79      1.0  0.30603  0.81409  0.10176  1.0000
  S   S157      1.0  0.30923  0.82839  0.15477  1.0000
  H   H446      1.0  0.37083  0.82583  0.43143  1.0000
  S   S158      1.0  0.32302  0.82856  0.05293  1.0000
  Fe  Fe80      1.0  0.31064  0.80609  0.36604  1.0000
  S   S159      1.0  0.32913  0.82849  0.39924  1.0000
  S   S160      1.0  0.31641  0.79777  0.31042  1.0000
  Fe  Fe81      1.0  0.28257  0.79069  0.42818  1.0000
  C   C436      1.0  0.22267  0.86682  0.01956  1.0000
  S   S161      1.0  0.25337  0.77136  0.43767  1.0000
  Fe  Fe82      1.0  0.30331  0.83168  0.42004  1.0000
  S   S162      1.0  0.29934  0.85889  0.42509  1.0000
  Fe  Fe83      1.0  0.32332  0.80668  0.44273  1.0000
  H   H447      1.0  0.17339  0.83299  0.45782  1.0000
  S   S163      1.0  0.28551  0.81114  0.38329  1.0000
  S   S164      1.0  0.30640  0.78392  0.40858  1.0000
  C   C437      1.0  0.46515  0.76380  0.49089  1.0000
  Fe  Fe84      1.0  0.05054  0.75555  0.42045  1.0000
  N   N39       1.0  0.34255  0.86386  0.47262  1.0000
  C   C438      1.0  0.28786  0.86358  0.46245  1.0000
  Fe  Fe85      1.0  0.08976  0.78436  0.43571  1.0000
  S   S165      1.0  0.10323  0.76535  0.41637  1.0000
  S   S166      1.0  0.10573  0.81253  0.45985  1.0000
  Fe  Fe86      1.0  0.08342  0.75932  0.37166  1.0000
  S   S167      1.0  0.34925  0.79272  0.02837  1.0000
  S   S168      1.0  0.29883  0.81161  0.46582  1.0000
  H   H448      1.0  0.08399  0.81698  0.08686  1.0000
  S   S169      1.0  0.07109  0.77968  0.38904  1.0000
  S   S170      1.0  0.06804  0.76225  0.46860  1.0000
  C   C439      1.0  0.09906  0.82151  0.08537  1.0000
  N   N40       1.0  0.22173  0.84813  0.01267  1.0000
  H   H449      1.0  0.23330  0.87376  0.03864  1.0000
  H   H450      1.0  0.24721  0.78476  0.30177  1.0000
  C   C440      1.0  0.42850  0.76557  0.42898  1.0000
  C   C441      1.0  0.44760  0.79729  0.44064  1.0000
  C   C442      1.0  0.12847  0.82667  0.47130  1.0000
  Fe  Fe87      1.0  0.04860  0.74734  0.04788  1.0000
  H   H451      1.0  0.32850  0.88237  0.47919  1.0000
  C   C443      1.0  0.25579  0.77709  0.30841  1.0000
  C   C444      1.0  0.27399  0.88338  0.49091  1.0000
  H   H452      1.0  0.28535  0.88755  0.43723  1.0000
  C   C445      1.0  0.39756  0.75220  0.45208  1.0000
  C   C446      1.0  0.41610  0.78350  0.46357  1.0000
  C   C447      1.0  0.24854  0.83404  0.43994  1.0000
  C   C448      1.0  0.24885  0.81752  0.45413  1.0000
  C   C449      1.0  0.25506  0.77012  0.34320  1.0000
  H   H453      1.0  0.35447  0.79532  0.15121  1.0000
  C   C450      1.0  0.24611  0.75509  0.47359  1.0000
  H   H454      1.0  0.10290  0.75049  0.24429  1.0000
  H   H455      1.0  0.41765  0.79619  0.47639  1.0000
  C   C451      1.0  0.16158  0.83549  0.46794  1.0000
  C   C452      1.0  0.28262  0.87895  0.46120  1.0000
  H   H456      1.0  0.28771  0.75165  0.33362  1.0000
  H   H457      1.0  0.13217  0.84713  0.08819  1.0000
  H   H458      1.0  0.44573  0.81065  0.44365  1.0000
  C   C453      1.0  0.13885  0.82366  0.01576  1.0000
  C   C454      1.0  0.33180  0.87121  0.49099  1.0000
  C   C455      1.0  0.24841  0.74539  0.02791  1.0000
  H   H459      1.0  0.34768  0.85161  0.12893  1.0000
  H   H460      1.0  0.24046  0.85708  0.44881  1.0000
  H   H461      1.0  0.13598  0.81451  0.03897  1.0000
  H   H462      1.0  0.10277  0.81002  0.07536  1.0000
  S   S171      1.0  0.42969  0.83446  0.48365  1.0000
  H   H463      1.0  0.38606  0.84870  0.04814  1.0000
  H   H464      1.0  0.28816  0.76375  0.27239  1.0000
  C   C456      1.0  0.15587  0.83831  0.01141  1.0000
  H   H465      1.0  0.37208  0.79509  0.12040  1.0000
  H   H466      1.0  0.25507  0.83930  0.41418  1.0000
  C   C457      1.0  0.31064  0.81932  0.19788  1.0000
  C   C458      1.0  0.31388  0.80299  0.20295  1.0000
  C   C459      1.0  0.31589  0.79683  0.23753  1.0000
  C   C460      1.0  0.31419  0.80658  0.26754  1.0000
  C   C461      1.0  0.31063  0.82271  0.26253  1.0000
  C   C462      1.0  0.30907  0.82913  0.22785  1.0000
  H   H467      1.0  0.31511  0.79527  0.18023  1.0000
  H   H468      1.0  0.31880  0.78441  0.24107  1.0000
  H   H469      1.0  0.30937  0.83042  0.28528  1.0000
  H   H470      1.0  0.30666  0.84183  0.22424  1.0000
  H   H471      1.0  0.24611  0.85094  0.03933  1.0000
  H   H472      1.0  0.25529  0.80966  0.43925  1.0000
  S   S172      1.0  0.07363  0.75078  0.01298  1.0000
  H   H473      1.0  0.28758  0.88872  0.02734  1.0000
  H   H474      1.0  0.27438  0.79752  0.24743  1.0000
  C   C463      1.0  0.39660  0.82966  0.45514  1.0000
  H   H475      1.0  0.38834  0.77033  0.48298  1.0000
  C   C464      1.0  0.37747  0.82261  0.45402  1.0000
  H   H476      1.0  0.42565  0.74698  0.02318  1.0000
  S   S173      1.0  0.30015  0.79192  0.00968  1.0000
  N   N41       1.0  0.43020  0.78187  0.44391  1.0000
  C   C465      1.0  0.41215  0.75052  0.43271  1.0000
  H   H477      1.0  0.24517  0.81988  0.02550  1.0000
  C   C466      1.0  0.22033  0.81306  0.99706  1.0000
  C   C467      1.0  0.14398  0.82343  0.45938  1.0000
  C   C468      1.0  0.07465  0.76946  0.20667  1.0000
  C   C469      1.0  0.08729  0.76078  0.20917  1.0000
  C   C470      1.0  0.12452  0.84945  0.06630  1.0000
  C   C471      1.0  0.08552  0.76116  0.27427  1.0000
  C   C472      1.0  0.07254  0.76945  0.27184  1.0000
  C   C473      1.0  0.06732  0.77376  0.23822  1.0000
  H   H478      1.0  0.40456  0.83835  0.43332  1.0000
  H   H479      1.0  0.35853  0.88650  0.43931  1.0000
  H   H480      1.0  0.06681  0.77286  0.29582  1.0000
  H   H481      1.0  0.05753  0.78047  0.23658  1.0000
  C   C474      1.0  0.40554  0.82552  0.48413  1.0000
  H   H482      1.0  0.21895  0.74315  0.45454  1.0000
  C   C475      1.0  0.28590  0.86236  0.00832  1.0000
  H   H483      1.0  0.37977  0.78290  0.00870  1.0000
  C   C476      1.0  0.13299  0.86413  0.04212  1.0000
  N   N42       1.0  0.11896  0.80552  0.33673  1.0000
  C   C477      1.0  0.11704  0.81453  0.36636  1.0000
  C   C478      1.0  0.10820  0.80454  0.30835  1.0000
  C   C479      1.0  0.10430  0.82315  0.36785  1.0000
  C   C480      1.0  0.09520  0.81283  0.30905  1.0000
  C   C481      1.0  0.09328  0.82222  0.33903  1.0000
  C   C482      1.0  0.13198  0.79608  0.33629  1.0000
  H   H484      1.0  0.12521  0.81494  0.38926  1.0000
  H   H485      1.0  0.10939  0.79699  0.28519  1.0000
  H   H486      1.0  0.10271  0.83009  0.39165  1.0000
  H   H487      1.0  0.08647  0.81165  0.28671  1.0000
  H   H488      1.0  0.08306  0.82849  0.34022  1.0000
  H   H489      1.0  0.12605  0.78273  0.35130  1.0000
  H   H490      1.0  0.13522  0.79308  0.30877  1.0000
  H   H491      1.0  0.14489  0.80453  0.34835  1.0000
  H   H492      1.0  0.09311  0.75744  0.18521  1.0000
  H   H493      1.0  0.35880  0.86475  0.42554  1.0000
  H   H494      1.0  0.14702  0.87303  0.04518  1.0000
  H   H495      1.0  0.45670  0.79584  0.46151  1.0000
  S   S174      1.0  0.34289  0.80246  0.48269  1.0000
  H   H496      1.0  0.43996  0.76399  0.41484  1.0000
  H   H497      1.0  0.14250  0.81182  0.44311  1.0000
  H   H498      1.0  0.20939  0.86668  0.03040  1.0000
  H   H499      1.0  0.16585  0.84023  0.03155  1.0000
  H   H500      1.0  0.45433  0.79783  0.41418  1.0000
  H   H501      1.0  0.26633  0.75562  0.37940  1.0000
  C   C483      1.0  0.27847  0.76521  0.29186  1.0000
  C   C484      1.0  0.39951  0.76880  0.46764  1.0000
  C   C485      1.0  0.26803  0.78232  0.24716  1.0000
  C   C486      1.0  0.43309  0.74333  0.00201  1.0000
  N   N43       1.0  0.26731  0.77448  0.28320  1.0000
  C   C487      1.0  0.38212  0.79627  0.99655  1.0000
  C   C488      1.0  0.09282  0.75685  0.24277  1.0000
  C   C489      1.0  0.24041  0.84410  0.45978  1.0000
  H   H502      1.0  0.34907  0.78854  0.10605  1.0000
  H   H503      1.0  0.29537  0.86062  0.02708  1.0000
  H   H504      1.0  0.36921  0.86623  0.07793  1.0000
  N   N44       1.0  0.36258  0.81707  0.11155  1.0000
  C   C490      1.0  0.35307  0.82647  0.12772  1.0000
  C   C491      1.0  0.37432  0.82492  0.08338  1.0000
  C   C492      1.0  0.35548  0.84436  0.11621  1.0000
  C   C493      1.0  0.37696  0.84272  0.07093  1.0000
  C   C494      1.0  0.36749  0.85250  0.08757  1.0000
  C   C495      1.0  0.35937  0.79807  0.12298  1.0000
  H   H505      1.0  0.34339  0.82015  0.14946  1.0000
  H   H506      1.0  0.38144  0.81726  0.06983  1.0000
  H   H507      1.0  0.27623  0.77745  0.22829  1.0000
  C   C496      1.0  0.47073  0.75325  0.46699  1.0000
  H   H508      1.0  0.33890  0.87035  0.41906  1.0000
  H   H509      1.0  0.24601  0.77229  0.36329  1.0000
  C   C497      1.0  0.24101  0.81121  0.48778  1.0000
  H   H510      1.0  0.12093  0.75628  0.49007  1.0000
  C   C498      1.0  0.23443  0.82447  0.01685  1.0000
  C   C499      1.0  0.35011  0.87173  0.43741  1.0000
  C   C500      1.0  0.27828  0.75829  0.32653  1.0000
  C   C501      1.0  0.36705  0.81135  0.48205  1.0000
  H   H511      1.0  0.10385  0.82433  0.11285  1.0000
  C   C502      1.0  0.23489  0.84205  0.02456  1.0000
  C   C503      1.0  0.26644  0.76071  0.35228  1.0000
  H   H512      1.0  0.47160  0.76641  0.03108  1.0000
  C   C504      1.0  0.28149  0.87826  0.00837  1.0000
  C   C505      1.0  0.36903  0.80443  0.00126  1.0000
  C   C506      1.0  0.34619  0.84936  0.48696  1.0000
  Fe  Fe88      1.0  0.08094  0.74307  0.44682  1.0000
  C   C507      1.0  0.47922  0.75862  0.01986  1.0000
  H   H513      1.0  0.27021  0.89537  0.48981  1.0000
  H   H514      1.0  0.31654  0.76033  0.00419  1.0000
  C   C508      1.0  0.10591  0.85453  0.00797  1.0000
  C   C509      1.0  0.28423  0.85256  0.49357  1.0000
  H   H515      1.0  0.08450  0.83004  0.02765  1.0000
  C   C510      1.0  0.09786  0.84000  0.03266  1.0000
  C   C511      1.0  0.12361  0.86663  0.01276  1.0000
  C   C512      1.0  0.22806  0.74268  0.47519  1.0000
  C   C513      1.0  0.25219  0.75614  0.99644  1.0000
  C   C514      1.0  0.47873  0.74255  0.03777  1.0000
  C   C515      1.0  0.13099  0.84187  0.49282  1.0000
  S   S175      1.0  0.10281  0.80429  0.99652  1.0000
  C   C516      1.0  0.25774  0.75442  0.50057  1.0000
  C   C517      1.0  0.42108  0.83338  0.83715  1.0000
  Fe  Fe89      1.0  0.22764  0.93468  0.92993  1.0000
  S   S176      1.0  0.24998  0.92725  0.90509  1.0000
  S   S177      1.0  0.23131  0.96512  0.93889  1.0000
  Fe  Fe90      1.0  0.20261  0.89258  0.94323  1.0000
  S   S178      1.0  0.22406  0.88369  0.91735  1.0000
  H   H516      1.0  0.41273  0.82604  0.86003  1.0000
  Fe  Fe91      1.0  0.24398  0.90547  0.94837  1.0000
  C   C518      1.0  0.33899  0.84185  0.52054  1.0000
  Fe  Fe92      1.0  0.22790  0.90614  0.87570  1.0000
  S   S179      1.0  0.23753  0.90284  0.81930  1.0000
  S   S180      1.0  0.20519  0.91411  0.89903  1.0000
  Fe  Fe93      1.0  0.44501  0.82457  0.92079  1.0000
  S   S181      1.0  0.44359  0.80729  0.87301  1.0000
  S   S182      1.0  0.42179  0.83455  0.93460  1.0000
  C   C519      1.0  0.08152  0.75948  0.56516  1.0000
  H   H517      1.0  0.46877  0.86713  0.75450  1.0000
  Fe  Fe94      1.0  0.47114  0.82790  0.85729  1.0000
  H   H518      1.0  0.22723  0.84813  0.54215  1.0000
  Fe  Fe95      1.0  0.45874  0.79375  0.90652  1.0000
  S   S183      1.0  0.45573  0.76397  0.90498  1.0000
  S   S184      1.0  0.47200  0.84629  0.90308  1.0000
  S   S185      1.0  0.45807  0.80931  0.95552  1.0000
  Fe  Fe96      1.0  0.45875  0.81945  0.59754  1.0000
  S   S186      1.0  0.46187  0.84641  0.56985  1.0000
  S   S187      1.0  0.44688  0.81018  0.65384  1.0000
  Fe  Fe97      1.0  0.47165  0.80511  0.53130  1.0000
  H   H519      1.0  0.26566  0.95546  0.66818  1.0000
  H   H520      1.0  0.19591  0.81060  0.96972  1.0000
  C   C520      1.0  0.12402  0.75975  0.51822  1.0000
  Fe  Fe98      1.0  0.44881  0.82918  0.52354  1.0000
  H   H521      1.0  0.26069  0.84132  0.93919  1.0000
  H   H522      1.0  0.11924  0.84466  0.50235  1.0000
  S   S188      1.0  0.44389  0.80223  0.55234  1.0000
  Fe  Fe99      1.0  0.23212  0.92833  0.55425  1.0000
  S   S189      1.0  0.24319  0.91666  0.59957  1.0000
  S   S190      1.0  0.23900  0.96008  0.55164  1.0000
  Fe  Fe100     1.0  0.20448  0.88842  0.53542  1.0000
  S   S191      1.0  0.21405  0.87591  0.58146  1.0000
  C   C521      1.0  0.09816  0.78998  0.54112  1.0000
  Fe  Fe101     1.0  0.21412  0.89965  0.61382  1.0000
  S   S192      1.0  0.20064  0.89794  0.66890  1.0000
  Fe  Fe102     1.0  0.24219  0.89394  0.56264  1.0000
  S   S193      1.0  0.26186  0.87865  0.56156  1.0000
  S   S194      1.0  0.20259  0.91136  0.56928  1.0000
  S   S195      1.0  0.48127  0.78447  0.50472  1.0000
  H   H523      1.0  0.44283  0.76531  0.52304  1.0000
  S   S196      1.0  0.18132  0.86970  0.97912  1.0000
  C   C522      1.0  0.39511  0.81413  0.51201  1.0000
  H   H524      1.0  0.24562  0.75768  0.94152  1.0000
  H   H525      1.0  0.25656  0.94781  0.73222  1.0000
  H   H526      1.0  0.39095  0.84416  0.95314  1.0000
  H   H527      1.0  0.26137  0.88104  0.81190  1.0000
  H   H528      1.0  0.27851  0.97291  0.53266  1.0000
  C   C523      1.0  0.28316  0.87059  0.87478  1.0000
  C   C524      1.0  0.26641  0.85158  0.95872  1.0000
  C   C525      1.0  0.47252  0.83047  0.76101  1.0000
  C   C526      1.0  0.45627  0.81536  0.75971  1.0000
  C   C527      1.0  0.44881  0.80914  0.72667  1.0000
  C   C528      1.0  0.45760  0.81776  0.69454  1.0000
  C   C529      1.0  0.11164  0.78387  0.52803  1.0000
  C   C530      1.0  0.12970  0.83327  0.96052  1.0000
  H   H529      1.0  0.44922  0.80874  0.78417  1.0000
  H   H530      1.0  0.43608  0.79764  0.72598  1.0000
  H   H531      1.0  0.34175  0.83019  0.53153  1.0000
  H   H532      1.0  0.12426  0.74724  0.53254  1.0000
  C   C531      1.0  0.24924  0.98721  0.93193  1.0000
  C   C532      1.0  0.16000  0.85060  0.98158  1.0000
  C   C533      1.0  0.27534  0.98459  0.54097  1.0000
  H   H533      1.0  0.22710  0.81678  0.53327  1.0000
  C   C534      1.0  0.37598  0.80713  0.51095  1.0000
  C   C535      1.0  0.22440  0.84857  0.51344  1.0000
  C   C536      1.0  0.27612  0.85730  0.52357  1.0000
  H   H534      1.0  0.06960  0.74965  0.57882  1.0000
  H   H535      1.0  0.27384  0.84898  0.54786  1.0000
  H   H536      1.0  0.36805  0.79845  0.53280  1.0000
  H   H537      1.0  0.48106  0.83928  0.67134  1.0000
  H   H538      1.0  0.25248  0.86911  0.94015  1.0000
  C   C537      1.0  0.48151  0.83884  0.72887  1.0000
  H   H539      1.0  0.43590  0.76724  0.96897  1.0000
  C   C538      1.0  0.22678  0.90113  0.77794  1.0000
  C   C539      1.0  0.20869  0.89974  0.77546  1.0000
  C   C540      1.0  0.20080  0.89837  0.74193  1.0000
  C   C541      1.0  0.21092  0.89853  0.71052  1.0000
  C   C542      1.0  0.22902  0.89996  0.71301  1.0000
  C   C543      1.0  0.23686  0.90119  0.74655  1.0000
  H   H540      1.0  0.20073  0.89960  0.79936  1.0000
  H   H541      1.0  0.18678  0.89725  0.74030  1.0000
  H   H542      1.0  0.23698  0.90014  0.68910  1.0000
  H   H543      1.0  0.25085  0.90223  0.74812  1.0000
  H   H544      1.0  0.09930  0.80410  0.53605  1.0000
  C   C544      1.0  0.38853  0.83077  0.96525  1.0000
  H   H545      1.0  0.40178  0.81084  0.53451  1.0000
  H   H546      1.0  0.30693  0.76462  0.94338  1.0000
  C   C545      1.0  0.14681  0.84775  0.95589  1.0000
  H   H547      1.0  0.30734  0.90119  0.93428  1.0000
  H   H548      1.0  0.07220  0.78215  0.56904  1.0000
  H   H549      1.0  0.14962  0.85693  0.93274  1.0000
  H   H550      1.0  0.22423  0.93934  0.75161  1.0000
  S   S197      1.0  0.22296  0.91402  0.97560  1.0000
  N   N45       1.0  0.44297  0.85190  0.77903  1.0000
  C   C546      1.0  0.42802  0.83651  0.77401  1.0000
  C   C547      1.0  0.44720  0.85821  0.81246  1.0000
  H   H551      1.0  0.40537  0.81448  0.79909  1.0000
  C   C548      1.0  0.27863  0.84915  0.98303  1.0000
  H   H552      1.0  0.28837  0.91793  0.91075  1.0000
  H   H553      1.0  0.30382  0.87056  0.91141  1.0000
  H   H554      1.0  0.42483  0.83134  0.74755  1.0000
  H   H555      1.0  0.28993  0.99120  0.99290  1.0000
  H   H556      1.0  0.09876  0.85587  0.98448  1.0000
  C   C549      1.0  0.25895  0.87173  0.83583  1.0000
  H   H557      1.0  0.22976  0.86332  0.50484  1.0000
  H   H558      1.0  0.45246  0.85349  0.72486  1.0000
  H   H559      1.0  0.43976  0.85401  0.86853  1.0000
  C   C550      1.0  0.45410  0.86222  0.74838  1.0000
  N   N46       1.0  0.22052  0.94632  0.66356  1.0000
  C   C551      1.0  0.21545  0.94227  0.69867  1.0000
  C   C552      1.0  0.23836  0.95128  0.65268  1.0000
  C   C553      1.0  0.22838  0.94309  0.72394  1.0000
  H   H560      1.0  0.12313  0.79342  0.51279  1.0000
  C   C554      1.0  0.24654  0.94778  0.71300  1.0000
  C   C555      1.0  0.20657  0.94511  0.63776  1.0000
  H   H561      1.0  0.26972  0.97733  0.91240  1.0000
  C   C556      1.0  0.09538  0.75390  0.55211  1.0000
  S   S198      1.0  0.28525  0.83004  0.97926  1.0000
  N   N47       1.0  0.27273  0.87992  0.86205  1.0000
  H   H562      1.0  0.45027  0.87415  0.74127  1.0000
  C   C557      1.0  0.25162  0.95196  0.67715  1.0000
  C   C558      1.0  0.47413  0.83252  0.69581  1.0000
  H   H563      1.0  0.19641  0.93087  0.63809  1.0000
  C   C559      1.0  0.40160  0.82257  0.96040  1.0000
  C   C560      1.0  0.29603  0.87825  0.90041  1.0000
  C   C561      1.0  0.24230  0.74946  0.96602  1.0000
  H   H564      1.0  0.24244  0.95446  0.62488  1.0000
  H   H565      1.0  0.31585  0.86994  0.53910  1.0000
  H   H566      1.0  0.19959  0.95472  0.64433  1.0000
  H   H567      1.0  0.45929  0.87014  0.81652  1.0000
  C   C562      1.0  0.41695  0.82693  0.80301  1.0000
  C   C563      1.0  0.27100  0.87273  0.52244  1.0000
  H   H568      1.0  0.26638  0.90415  0.86434  1.0000
  H   H569      1.0  0.32225  0.84346  0.56543  1.0000
  C   C564      1.0  0.43630  0.84910  0.84197  1.0000
  H   H570      1.0  0.26300  0.76942  0.99520  1.0000
  C   C565      1.0  0.43893  0.75484  0.97142  1.0000
  H   H571      1.0  0.11958  0.83155  0.94071  1.0000
  C   C566      1.0  0.28735  0.90483  0.90009  1.0000
  C   C567      1.0  0.26170  0.86727  0.95928  1.0000
  H   H572      1.0  0.25895  0.85827  0.82712  1.0000
  H   H573      1.0  0.21240  0.94854  0.61019  1.0000
  H   H574      1.0  0.20122  0.93773  0.70708  1.0000
  C   C568      1.0  0.39829  0.80524  0.97618  1.0000
  S   S199      1.0  0.23308  0.90644  0.51596  1.0000
  C   C569      1.0  0.25748  0.98204  0.55202  1.0000
  C   C570      1.0  0.32452  0.86415  0.52481  1.0000
  C   C571      1.0  0.26675  0.98935  0.91909  1.0000
  C   C572      1.0  0.29803  0.89544  0.91324  1.0000
  H   H575      1.0  0.40822  0.79877  0.97276  1.0000
  C   C573      1.0  0.26954  0.88084  0.98366  1.0000
  C   C574      1.0  0.32807  0.84930  0.53952  1.0000
  H   H576      1.0  0.15011  0.86531  0.51837  1.0000
  H   H577      1.0  0.21989  0.79943  0.99076  1.0000
  H   H578      1.0  0.36239  0.82823  0.98894  1.0000
  N   N48       1.0  0.11019  0.76605  0.53380  1.0000
  H   H579      1.0  0.20947  0.84311  0.51005  1.0000
  H   H580      1.0  0.24120  0.79832  0.49885  1.0000
  S   S200      1.0  0.26545  0.90154  0.98287  1.0000
  C   C575      1.0  0.12545  0.82116  0.99060  1.0000
  C   C576      1.0  0.27475  0.89685  0.87424  1.0000
  C   C577      1.0  0.08296  0.77767  0.55960  1.0000
  H   H581      1.0  0.24520  0.86970  0.84727  1.0000
  H   H582      1.0  0.28135  0.85700  0.86578  1.0000
  C   C578      1.0  0.37231  0.82176  0.98552  1.0000
  C   C579      1.0  0.29851  0.75313  0.96035  1.0000
  H   H583      1.0  0.27167  0.76392  0.49965  1.0000
  H   H584      1.0  0.13780  0.77046  0.51933  1.0000
  S   S201      1.0  0.48097  0.84064  0.80179  1.0000
  C   C580      1.0  0.23308  0.82168  0.50700  1.0000
  H   H585      1.0  0.47649  0.78361  0.97498  1.0000
  S   S202      1.0  0.18694  0.86597  0.49781  1.0000
  C   C581      1.0  0.44828  0.75003  0.94375  1.0000
  S   S203      1.0  0.47579  0.83084  0.49913  1.0000
  H   H586      1.0  0.47095  0.75314  0.57944  1.0000
  C   C582      1.0  0.44721  0.75732  0.50437  1.0000
  H   H587      1.0  0.19758  0.84198  0.98336  1.0000
  C   C583      1.0  0.14858  0.85367  0.50206  1.0000
  C   C584      1.0  0.20693  0.81935  0.98517  1.0000
  H   H588      1.0  0.22602  0.87523  0.99444  1.0000
  C   C585      1.0  0.20791  0.83707  0.99310  1.0000
  H   H589      1.0  0.27750  0.74289  0.92230  1.0000
  C   C586      1.0  0.30389  0.75075  0.99454  1.0000
  H   H590      1.0  0.13031  0.87750  0.99307  1.0000
  Fe  Fe103     1.0  0.71842  0.11171  0.37766  1.0000
  S   S204      1.0  0.74084  0.10150  0.38992  1.0000
  S   S205      1.0  0.70838  0.11545  0.32263  1.0000
  Fe  Fe104     1.0  0.70897  0.11310  0.45689  1.0000
  S   S206      1.0  0.73043  0.10210  0.47373  1.0000
  H   H591      1.0  0.68428  0.13823  0.44067  1.0000
  Fe  Fe105     1.0  0.74869  0.12272  0.43311  1.0000
  S   S207      1.0  0.77676  0.14633  0.43897  1.0000
  Fe  Fe106     1.0  0.72030  0.08188  0.42956  1.0000
  S   S208      1.0  0.71536  0.05066  0.42825  1.0000
  S   S209      1.0  0.72721  0.13395  0.41760  1.0000
  S   S210      1.0  0.69781  0.09179  0.41592  1.0000
  H   H592      1.0  0.66668  0.00232  0.12137  1.0000
  Fe  Fe107     1.0  0.49794  0.18883  0.44581  1.0000
  S   S211      1.0  0.50500  0.21504  0.41292  1.0000
  C   C587      1.0  0.66416  0.06967  0.02870  1.0000
  C   C588      1.0  0.68058  0.02494  0.08429  1.0000
  H   H593      1.0  0.80518  0.18210  0.43031  1.0000
  C   C589      1.0  0.69278  0.07133  0.29017  1.0000
  C   C590      1.0  0.67173  0.07026  0.33979  1.0000
  H   H594      1.0  0.68500  0.03492  0.10474  1.0000
  C   C591      1.0  0.54611  0.20203  0.00046  1.0000
  Fe  Fe108     1.0  0.72959  0.10881  0.11685  1.0000
  S   S212      1.0  0.74119  0.09760  0.07132  1.0000
  S   S213      1.0  0.74280  0.10930  0.17021  1.0000
  Fe  Fe109     1.0  0.70395  0.11847  0.06832  1.0000
  H   H595      1.0  0.70647  0.21709  0.00367  1.0000
  Fe  Fe110     1.0  0.71191  0.08327  0.05647  1.0000
  S   S214      1.0  0.69906  0.05388  0.03476  1.0000
  Fe  Fe111     1.0  0.74177  0.12291  0.03998  1.0000
  C   C592      1.0  0.67912  0.14246  0.46446  1.0000
  S   S215      1.0  0.70046  0.09347  0.10336  1.0000
  S   S216      1.0  0.73198  0.13474  0.08629  1.0000
  C   C593      1.0  0.72140  0.17373  0.04146  1.0000
  H   H596      1.0  0.66533  0.05880  0.04579  1.0000
  H   H597      1.0  0.81099  0.16206  0.11533  1.0000
  C   C594      1.0  0.54153  0.18300  0.00148  1.0000
  H   H598      1.0  0.88817  0.21621  0.44466  1.0000
  C   C595      1.0  0.62035  0.21265  0.43623  1.0000
  H   H599      1.0  0.56500  0.22151  0.07891  1.0000
  Fe  Fe112     1.0  0.50403  0.20074  0.04823  1.0000
  H   H600      1.0  0.66651  0.06226  0.36511  1.0000
  S   S217      1.0  0.49891  0.21228  0.10008  1.0000
  Fe  Fe113     1.0  0.48769  0.19760  0.37084  1.0000
  C   C596      1.0  0.68555  0.03051  0.04865  1.0000
  H   H601      1.0  0.57489  0.19207  0.44196  1.0000
  C   C597      1.0  0.59372  0.17817  0.44757  1.0000
  C   C598      1.0  0.67959  0.01705  0.02275  1.0000
  H   H602      1.0  0.68609  0.19717  0.01233  1.0000
  S   S218      1.0  0.76418  0.14111  0.00002  1.0000
  H   H603      1.0  0.52892  0.17422  0.01452  1.0000
  H   H604      1.0  0.50935  0.21836  0.24167  1.0000
  H   H605      1.0  0.78044  0.16988  0.05214  1.0000
  H   H606      1.0  0.80808  0.19836  0.04799  1.0000
  H   H607      1.0  0.67630  0.04091  0.44825  1.0000
  C   C599      1.0  0.70842  0.06919  0.27602  1.0000
  S   S219      1.0  0.71355  0.10762  0.02054  1.0000
  C   C600      1.0  0.71903  0.06294  0.29815  1.0000
  C   C601      1.0  0.67838  0.02856  0.44045  1.0000
  N   N49       1.0  0.68766  0.06703  0.32519  1.0000
  C   C602      1.0  0.67885  0.14213  0.02687  1.0000
  C   C603      1.0  0.80624  0.13848  0.02543  1.0000
  C   C604      1.0  0.56910  0.19603  0.07158  1.0000
  C   C605      1.0  0.78279  0.16285  0.99784  1.0000
  C   C606      1.0  0.88562  0.21104  0.47202  1.0000
  H   H608      1.0  0.55593  0.18767  0.08339  1.0000
  C   C607      1.0  0.66362  0.01148  0.44237  1.0000
  C   C608      1.0  0.69582  0.02954  0.42957  1.0000
  C   C609      1.0  0.69802  0.01309  0.41996  1.0000
  H   H609      1.0  0.71270  0.07312  0.24845  1.0000
  C   C610      1.0  0.66964  0.15461  0.46196  1.0000
  H   H610      1.0  0.71137  0.01353  0.41149  1.0000
  H   H611      1.0  0.65875  0.15101  0.05202  1.0000
  N   N50       1.0  0.71029  0.19162  0.00207  1.0000
  C   C611      1.0  0.71874  0.11463  0.28056  1.0000
  C   C612      1.0  0.73550  0.11240  0.27718  1.0000
  C   C613      1.0  0.74273  0.11092  0.24322  1.0000
  C   C614      1.0  0.73328  0.11158  0.21231  1.0000
  C   C615      1.0  0.71652  0.11381  0.21572  1.0000
  C   C616      1.0  0.70936  0.11541  0.24963  1.0000
  H   H612      1.0  0.74286  0.11175  0.30071  1.0000
  H   H613      1.0  0.75571  0.10922  0.24091  1.0000
  H   H614      1.0  0.70912  0.11440  0.19222  1.0000
  H   H615      1.0  0.69641  0.11718  0.25194  1.0000
  H   H616      1.0  0.58273  0.22335  0.42845  1.0000
  C   C617      1.0  0.74497  0.17152  0.46678  1.0000
  C   C618      1.0  0.49909  0.20474  0.24100  1.0000
  H   H617      1.0  0.65655  0.09514  0.09080  1.0000
  C   C619      1.0  0.69791  0.06075  0.34699  1.0000
  C   C620      1.0  0.79361  0.13082  0.05351  1.0000
  H   H618      1.0  0.66746  0.15960  0.43608  1.0000
  C   C621      1.0  0.78813  0.17399  0.02723  1.0000
  C   C622      1.0  0.57422  0.21507  0.06915  1.0000
  N   N51       1.0  0.60210  0.21742  0.03853  1.0000
  C   C623      1.0  0.65201  0.08120  0.07966  1.0000
  S   S220      1.0  0.68243  0.13137  0.06631  1.0000
  H   H619      1.0  0.68514  0.07712  0.27328  1.0000
  S   S221      1.0  0.51662  0.17768  0.47673  1.0000
  H   H620      1.0  0.72197  0.05397  0.35155  1.0000
  N   N52       1.0  0.79556  0.13908  0.08556  1.0000
  C   C624      1.0  0.72324  0.18665  0.46369  1.0000
  C   C625      1.0  0.59086  0.22563  0.05233  1.0000
  C   C626      1.0  0.87019  0.19573  0.48134  1.0000
  H   H621      1.0  0.63089  0.22615  0.43275  1.0000
  C   C627      1.0  0.71374  0.05863  0.33386  1.0000
  H   H622      1.0  0.63699  0.07480  0.08261  1.0000
  C   C628      1.0  0.80976  0.15517  0.09035  1.0000
  C   C629      1.0  0.79153  0.16117  0.47039  1.0000
  N   N53       1.0  0.60241  0.21065  0.43618  1.0000
  C   C630      1.0  0.66428  0.99283  0.06778  1.0000
  C   C631      1.0  0.66904  0.99847  0.03211  1.0000
  H   H623      1.0  0.74087  0.16330  0.01828  1.0000
  C   C632      1.0  0.61199  0.18009  0.44749  1.0000
  S   S222      1.0  0.53243  0.21270  0.02172  1.0000
  H   H624      1.0  0.83026  0.16133  0.00809  1.0000
  C   C633      1.0  0.82081  0.15481  0.03014  1.0000
  C   C634      1.0  0.62540  0.19739  0.44142  1.0000
  C   C635      1.0  0.68319  0.99606  0.42124  1.0000
  S   S223      1.0  0.49805  0.20654  0.31361  1.0000
  H   H625      1.0  0.57635  0.17295  0.05738  1.0000
  C   C636      1.0  0.58056  0.18778  0.05710  1.0000
  C   C637      1.0  0.59705  0.19874  0.04034  1.0000
  H   H626      1.0  0.66053  0.06622  0.32083  1.0000
  C   C638      1.0  0.80388  0.19021  0.02477  1.0000
  H   H627      1.0  0.65052  0.10565  0.03074  1.0000
  C   C639      1.0  0.73832  0.18362  0.44917  1.0000
  C   C640      1.0  0.49143  0.19523  0.27314  1.0000
  C   C641      1.0  0.67016  0.00632  0.09369  1.0000
  H   H628      1.0  0.78191  0.11856  0.04905  1.0000
  H   H629      1.0  0.74466  0.19034  0.42417  1.0000
  H   H630      1.0  0.67549  0.08508  0.34511  1.0000
  H   H631      1.0  0.73150  0.06178  0.28780  1.0000
  H   H632      1.0  0.65036  0.01102  0.45154  1.0000
  C   C642      1.0  0.66619  0.15095  0.02751  1.0000
  C   C643      1.0  0.71044  0.18402  0.03511  1.0000
  H   H633      1.0  0.69402  0.05757  0.37485  1.0000
  H   H634      1.0  0.77018  0.13621  0.11029  1.0000
  H   H635      1.0  0.72100  0.16728  0.06745  1.0000
  H   H636      1.0  0.60167  0.23571  0.45476  1.0000
  C   C644      1.0  0.80457  0.17815  0.45818  1.0000
  H   H637      1.0  0.60548  0.19216  0.02766  1.0000
  H   H638      1.0  0.70174  0.18553  0.05661  1.0000
  C   C645      1.0  0.65586  0.09573  0.02021  1.0000
  S   S224      1.0  0.48432  0.17204  0.06142  1.0000
  H   H639      1.0  0.60463  0.23502  0.40703  1.0000
  H   H640      1.0  0.58317  0.16480  0.45258  1.0000
  C   C646      1.0  0.49336  0.19695  0.20801  1.0000
  H   H641      1.0  0.77616  0.11608  0.11413  1.0000
  H   H642      1.0  0.53899  0.21686  0.47585  1.0000
  H   H643      1.0  0.49924  0.20451  0.18356  1.0000
  H   H644      1.0  0.61585  0.16827  0.45253  1.0000
  N   N54       1.0  0.65769  0.08233  0.04206  1.0000
  H   H645      1.0  0.65818  0.07302  0.09580  1.0000
  H   H646      1.0  0.75663  0.16914  0.45523  1.0000
  C   C647      1.0  0.59760  0.22697  0.43127  1.0000
  C   C648      1.0  0.78163  0.13134  0.11398  1.0000
  C   C649      1.0  0.58914  0.19367  0.44158  1.0000
  H   H647      1.0  0.82678  0.20298  0.47132  1.0000
  H   H648      1.0  0.86051  0.18899  0.46146  1.0000
  C   C650      1.0  0.81691  0.19010  0.48148  1.0000
  H   H649      1.0  0.63965  0.19902  0.44171  1.0000
  H   H650      1.0  0.78711  0.13526  0.14072  1.0000
  C   C651      1.0  0.82265  0.16321  0.06281  1.0000
  H   H651      1.0  0.71766  0.19570  0.45005  1.0000
  H   H652      1.0  0.83362  0.17623  0.06623  1.0000
  S   S225      1.0  0.65095  0.17542  0.48808  1.0000
  C   C652      1.0  0.66581  0.99503  0.43280  1.0000
  C   C653      1.0  0.53886  0.19013  0.49102  1.0000
  C   C654      1.0  0.61907  0.22852  0.01949  1.0000
  H   H653      1.0  0.90950  0.23195  0.49145  1.0000
  C   C655      1.0  0.66299  0.16033  0.49266  1.0000
  H   H654      1.0  0.80420  0.13226  0.99967  1.0000
  H   H655      1.0  0.63007  0.22319  0.02496  1.0000
  C   C656      1.0  0.54662  0.20926  0.48759  1.0000
  C   C657      1.0  0.73243  0.17141  0.01387  1.0000
  H   H656      1.0  0.48668  0.23004  0.16167  1.0000
  H   H657      1.0  0.74964  0.14281  0.49546  1.0000
  C   C658      1.0  0.71522  0.17781  0.49574  1.0000
  H   H658      1.0  0.59449  0.24037  0.04961  1.0000
  H   H659      1.0  0.48398  0.14729  0.46181  1.0000
  H   H660      1.0  0.65344  0.16667  0.99756  1.0000
  C   C659      1.0  0.66315  0.15983  0.99670  1.0000
  Fe  Fe114     1.0  0.63448  0.19676  0.60989  1.0000
  S   S226      1.0  0.61781  0.18370  0.56291  1.0000
  S   S227      1.0  0.62579  0.18280  0.66477  1.0000
  Fe  Fe115     1.0  0.65984  0.22910  0.56458  1.0000
  C   C660      1.0  0.80375  0.16813  0.52974  1.0000
  S   S228      1.0  0.58609  0.17655  0.95594  1.0000
  Fe  Fe116     1.0  0.61918  0.21214  0.54813  1.0000
  H   H661      1.0  0.61704  0.22834  0.99041  1.0000
  Fe  Fe117     1.0  0.64485  0.19130  0.53334  1.0000
  H   H662      1.0  0.80346  0.16393  0.55740  1.0000
  S   S229      1.0  0.63413  0.22473  0.59680  1.0000
  S   S230      1.0  0.66141  0.20188  0.58127  1.0000
  H   H663      1.0  0.49618  0.17123  0.93175  1.0000
  H   H664      1.0  0.86552  0.23487  0.68407  1.0000
  C   C661      1.0  0.60083  0.23955  0.65102  1.0000
  S   S231      1.0  0.83539  0.21534  0.99254  1.0000
  C   C662      1.0  0.51268  0.22592  0.94361  1.0000
  S   S232      1.0  0.87786  0.23646  0.91378  1.0000
  C   C663      1.0  0.67560  0.20190  0.81022  1.0000
  C   C664      1.0  0.86700  0.18940  0.51681  1.0000
  Fe  Fe118     1.0  0.63983  0.21091  0.86945  1.0000
  S   S233      1.0  0.62776  0.18156  0.88966  1.0000
  S   S234      1.0  0.64440  0.22271  0.81231  1.0000
  Fe  Fe119     1.0  0.64947  0.22508  0.94458  1.0000
  S   S235      1.0  0.63821  0.19687  0.97042  1.0000
  H   H665      1.0  0.65239  0.23603  0.74016  1.0000
  Fe  Fe120     1.0  0.65193  0.18854  0.92463  1.0000
  H   H666      1.0  0.51817  0.20114  0.95075  1.0000
  Fe  Fe121     1.0  0.61487  0.19233  0.93399  1.0000
  C   C665      1.0  0.67273  0.15990  0.96494  1.0000
  S   S236      1.0  0.66497  0.21724  0.90144  1.0000
  S   S237      1.0  0.62518  0.22117  0.91121  1.0000
  H   H667      1.0  0.59035  0.18107  0.62586  1.0000
  C   C666      1.0  0.65933  0.17005  0.79860  1.0000
  H   H668      1.0  0.78157  0.14330  0.51662  1.0000
  H   H669      1.0  0.70177  0.22909  0.76511  1.0000
  C   C667      1.0  0.79116  0.15637  0.50659  1.0000
  N   N55       1.0  0.87865  0.19826  0.54240  1.0000
  C   C668      1.0  0.56667  0.18984  0.51840  1.0000
  H   H670      1.0  0.69005  0.23802  0.96829  1.0000
  H   H671      1.0  0.75373  0.15654  0.53442  1.0000
  H   H672      1.0  0.65201  0.15603  0.80809  1.0000
  H   H673      1.0  0.69266  0.15081  0.93970  1.0000
  C   C669      1.0  0.80873  0.18498  0.96318  1.0000
  C   C670      1.0  0.79314  0.16865  0.96576  1.0000
  H   H674      1.0  0.81662  0.18891  0.93843  1.0000
  H   H675      1.0  0.78926  0.16027  0.94273  1.0000
  S   S238      1.0  0.83311  0.19882  0.54797  1.0000
  N   N56       1.0  0.73653  0.16232  0.49744  1.0000
  H   H676      1.0  0.58613  0.19529  0.59196  1.0000
  S   S239      1.0  0.87544  0.23757  0.59313  1.0000
  H   H677      1.0  0.56881  0.18449  0.62603  1.0000
  H   H678      1.0  0.65558  0.16393  0.74311  1.0000
  S   S240      1.0  0.69398  0.12079  0.50246  1.0000
  C   C671      1.0  0.67504  0.14137  0.52842  1.0000
  C   C672      1.0  0.67059  0.19268  0.75056  1.0000
  C   C673      1.0  0.60520  0.23703  0.68596  1.0000
  C   C674      1.0  0.81675  0.18513  0.51755  1.0000
  N   N57       1.0  0.67736  0.20615  0.77454  1.0000
  H   H679      1.0  0.68079  0.21262  0.82918  1.0000
  C   C675      1.0  0.59354  0.22429  0.62994  1.0000
  Fe  Fe122     1.0  0.85330  0.23542  0.94811  1.0000
  H   H680      1.0  0.67700  0.13617  0.55427  1.0000
  C   C676      1.0  0.60207  0.21935  0.69948  1.0000
  C   C677      1.0  0.55366  0.17535  0.98664  1.0000
  C   C678      1.0  0.86457  0.23390  0.74166  1.0000
  C   C679      1.0  0.66844  0.08468  0.97068  1.0000
  N   N58       1.0  0.49039  0.19555  0.93930  1.0000
  C   C680      1.0  0.57436  0.20898  0.51508  1.0000
  Fe  Fe123     1.0  0.85300  0.22896  0.55287  1.0000
  H   H681      1.0  0.60553  0.21722  0.72654  1.0000
  H   H682      1.0  0.68422  0.22749  0.73401  1.0000
  H   H683      1.0  0.67175  0.19602  0.72225  1.0000
  H   H684      1.0  0.52644  0.23474  0.94923  1.0000
  C   C681      1.0  0.66140  0.17445  0.76221  1.0000
  H   H685      1.0  0.69517  0.20265  0.96800  1.0000
  H   H686      1.0  0.57432  0.18222  0.52991  1.0000
  H   H687      1.0  0.58739  0.21439  0.95602  1.0000
  C   C682      1.0  0.72211  0.16564  0.51241  1.0000
  C   C683      1.0  0.63096  0.19413  0.70555  1.0000
  C   C684      1.0  0.64107  0.21291  0.70667  1.0000
  C   C685      1.0  0.64459  0.22147  0.73959  1.0000
  C   C686      1.0  0.63837  0.21134  0.77175  1.0000
  C   C687      1.0  0.62818  0.19258  0.77064  1.0000
  C   C688      1.0  0.62442  0.18405  0.73766  1.0000
  H   H688      1.0  0.64608  0.22086  0.68217  1.0000
  C   C689      1.0  0.81446  0.19580  0.99285  1.0000
  H   H689      1.0  0.62326  0.18462  0.79516  1.0000
  H   H690      1.0  0.61649  0.16953  0.73705  1.0000
  H   H691      1.0  0.90293  0.22067  0.55376  1.0000
  C   C690      1.0  0.74338  0.14933  0.51510  1.0000
  N   N59       1.0  0.59109  0.20706  0.64307  1.0000
  H   H692      1.0  0.86194  0.19410  0.58909  1.0000
  C   C691      1.0  0.72120  0.18958  0.97493  1.0000
  H   H693      1.0  0.66491  0.18057  0.85118  1.0000
  C   C692      1.0  0.56255  0.21323  0.98337  1.0000
  C   C693      1.0  0.50790  0.20685  0.94454  1.0000
  S   S241      1.0  0.86509  0.23294  0.81471  1.0000
  H   H694      1.0  0.67532  0.06088  0.98276  1.0000
  C   C694      1.0  0.57042  0.18661  0.97067  1.0000
  H   H695      1.0  0.66071  0.15800  0.54975  1.0000
  H   H696      1.0  0.88555  0.19905  0.59730  1.0000
  C   C695      1.0  0.66653  0.18382  0.82280  1.0000
  C   C696      1.0  0.89758  0.21986  0.49820  1.0000
  H   H697      1.0  0.66030  0.10820  0.96734  1.0000
  H   H698      1.0  0.70336  0.17990  0.50709  1.0000
  C   C697      1.0  0.56420  0.21861  0.49982  1.0000
  C   C698      1.0  0.66585  0.15377  0.52596  1.0000
  C   C699      1.0  0.73238  0.17941  0.98039  1.0000
  C   C700      1.0  0.68690  0.22525  0.76225  1.0000
  C   C701      1.0  0.59495  0.20443  0.67753  1.0000
  S   S242      1.0  0.59666  0.22160  0.52881  1.0000
  H   H699      1.0  0.48359  0.17162  0.97239  1.0000
  H   H700      1.0  0.59028  0.22638  0.60273  1.0000
  C   C702      1.0  0.54898  0.18050  0.50655  1.0000
  S   S243      1.0  0.67013  0.17168  0.92604  1.0000
  C   C703      1.0  0.57466  0.20559  0.96857  1.0000
  S   S244      1.0  0.64498  0.21898  0.51508  1.0000
  H   H701      1.0  0.86633  0.22082  0.74369  1.0000
  C   C704      1.0  0.68519  0.15083  0.96418  1.0000
  H   H702      1.0  0.55024  0.16064  0.98827  1.0000
  H   H703      1.0  0.87178  0.17685  0.58209  1.0000
  C   C705      1.0  0.89379  0.21334  0.53353  1.0000
  H   H704      1.0  0.67302  0.08580  0.94303  1.0000
  C   C706      1.0  0.87436  0.19177  0.57957  1.0000
  H   H705      1.0  0.59296  0.19076  0.68798  1.0000
  H   H706      1.0  0.72106  0.19559  0.94873  1.0000
  H   H707      1.0  0.48579  0.15542  0.52506  1.0000
  H   H708      1.0  0.56615  0.22796  0.98223  1.0000
  C   C707      1.0  0.58367  0.19118  0.62065  1.0000
  H   H709      1.0  0.73211  0.13797  0.52900  1.0000
  H   H710      1.0  0.68209  0.23456  0.77811  1.0000
  C   C708      1.0  0.66133  0.09722  0.98429  1.0000
  H   H711      1.0  0.74085  0.17756  0.95878  1.0000
  H   H712      1.0  0.71541  0.15833  0.53672  1.0000
  H   H713      1.0  0.49502  0.24024  0.50542  1.0000
  H   H714      1.0  0.68328  0.02099  0.99509  1.0000
  H   H715      1.0  0.54310  0.16569  0.50932  1.0000
  C   C709      1.0  0.86414  0.24183  0.70781  1.0000
  H   H716      1.0  0.69808  0.13532  0.99414  1.0000
  C   C710      1.0  0.49943  0.23342  0.93705  1.0000
  C   C711      1.0  0.68174  0.13568  0.49773  1.0000
  H   H717      1.0  0.85472  0.17775  0.52399  1.0000
  C   C712      1.0  0.68830  0.14205  0.99502  1.0000
  C   C713      1.0  0.48546  0.17564  0.94362  1.0000
  H   H718      1.0  0.90242  0.23992  0.83950  1.0000
  C   C714      1.0  0.66973  0.07071  0.99291  1.0000
  S   S245      1.0  0.83912  0.24223  0.90207  1.0000
  C   C715      1.0  0.69902  0.20273  0.99624  1.0000
  H   H719      1.0  0.56997  0.23342  0.49727  1.0000
  Fe  Fe124     1.0  0.79090  0.34052  0.45141  1.0000
  S   S246      1.0  0.78041  0.32114  0.40734  1.0000
  H   H720      1.0  0.75780  0.44001  0.05446  1.0000
  Fe  Fe125     1.0  0.76733  0.36281  0.43320  1.0000
  S   S247      1.0  0.75444  0.34471  0.38790  1.0000
  S   S248      1.0  0.75753  0.38595  0.44783  1.0000
  Fe  Fe126     1.0  0.75296  0.32109  0.42479  1.0000
  S   S249      1.0  0.72969  0.29362  0.42649  1.0000
  Fe  Fe127     1.0  0.78266  0.34608  0.37355  1.0000
  S   S250      1.0  0.79571  0.35079  0.31757  1.0000
  C   C716      1.0  0.66105  0.47943  0.23390  1.0000
  S   S251      1.0  0.79578  0.36583  0.41661  1.0000
  C   C717      1.0  0.65018  0.45250  0.27299  1.0000
  C   C718      1.0  0.66544  0.48163  0.29708  1.0000
  H   H721      1.0  0.68256  0.24410  0.49419  1.0000
  Fe  Fe128     1.0  0.62318  0.47641  0.37643  1.0000
  H   H722      1.0  0.94617  0.30138  0.48037  1.0000
  C   C719      1.0  0.50784  0.27370  0.99830  1.0000
  Fe  Fe129     1.0  0.61289  0.46793  0.45593  1.0000
  H   H723      1.0  0.78883  0.38173  0.24241  1.0000
  S   S252      1.0  0.62600  0.45545  0.41574  1.0000
  Fe  Fe130     1.0  0.76813  0.35302  0.03602  1.0000
  S   S253      1.0  0.74519  0.33312  0.06983  1.0000
  H   H724      1.0  0.62409  0.24304  0.02757  1.0000
  Fe  Fe131     1.0  0.79427  0.33403  0.05719  1.0000
  S   S254      1.0  0.77364  0.31349  0.09381  1.0000
  S   S255      1.0  0.82189  0.33168  0.04821  1.0000
  Fe  Fe132     1.0  0.75440  0.31096  0.04949  1.0000
  C   C720      1.0  0.82067  0.32248  0.49233  1.0000
  Fe  Fe133     1.0  0.76634  0.33727  0.11176  1.0000
  S   S256      1.0  0.75702  0.34062  0.16849  1.0000
  N   N60       1.0  0.90507  0.31681  0.49206  1.0000
  S   S257      1.0  0.78880  0.35842  0.07853  1.0000
  H   H725      1.0  0.67039  0.49005  0.31978  1.0000
  C   C721      1.0  0.72482  0.38737  0.99720  1.0000
  S   S258      1.0  0.63412  0.47036  0.01953  1.0000
  Fe  Fe134     1.0  0.65222  0.47383  0.06598  1.0000
  H   H726      1.0  0.83420  0.37371  0.03725  1.0000
  S   S259      1.0  0.67946  0.47058  0.06803  1.0000
  Fe  Fe135     1.0  0.61084  0.45830  0.05968  1.0000
  S   S260      1.0  0.58676  0.43090  0.05619  1.0000
  S   S261      1.0  0.62936  0.45976  0.10559  1.0000
  C   C722      1.0  0.79547  0.39022  0.26500  1.0000
  C   C723      1.0  0.48442  0.25803  0.47653  1.0000
  H   H727      1.0  0.66216  0.48586  0.20762  1.0000
  H   H728      1.0  0.80153  0.40479  0.25562  1.0000
  S   S262      1.0  0.61423  0.46452  0.32226  1.0000
  H   H729      1.0  0.81359  0.27406  0.06407  1.0000
  C   C724      1.0  0.55781  0.40361  0.02855  1.0000
  C   C725      1.0  0.48682  0.28933  0.00863  1.0000
  H   H730      1.0  0.55757  0.39624  0.05335  1.0000
  Fe  Fe136     1.0  0.65228  0.47739  0.42913  1.0000
  H   H731      1.0  0.63979  0.44664  0.34349  1.0000
  C   C726      1.0  0.69158  0.47619  0.46654  1.0000
  C   C727      1.0  0.93467  0.30581  0.48323  1.0000
  C   C728      1.0  0.78938  0.42639  0.01988  1.0000
  H   H732      1.0  0.79677  0.43401  0.04175  1.0000
  C   C729      1.0  0.76047  0.41850  0.47808  1.0000
  H   H733      1.0  0.79616  0.40488  0.46200  1.0000
  H   H734      1.0  0.78477  0.39984  0.04524  1.0000
  H   H735      1.0  0.53517  0.38159  0.00758  1.0000
  H   H736      1.0  0.75648  0.27603  0.42318  1.0000
  S   S263      1.0  0.60865  0.48570  0.07123  1.0000
  C   C730      1.0  0.52961  0.32069  0.47045  1.0000
  C   C731      1.0  0.78868  0.41325  0.47090  1.0000
  C   C732      1.0  0.49975  0.38080  0.06682  1.0000
  H   H737      1.0  0.80647  0.38538  0.27324  1.0000
  S   S264      1.0  0.60832  0.48771  0.41610  1.0000
  C   C733      1.0  0.65231  0.46049  0.23872  1.0000
  C   C734      1.0  0.53212  0.33776  0.45451  1.0000
  H   H738      1.0  0.66180  0.44446  0.33816  1.0000
  H   H739      1.0  0.88911  0.29053  0.47334  1.0000
  H   H740      1.0  0.65982  0.46426  0.35811  1.0000
  C   C735      1.0  0.61826  0.47553  0.27944  1.0000
  H   H741      1.0  0.78172  0.29097  0.01932  1.0000
  C   C736      1.0  0.76743  0.28909  0.48460  1.0000
  H   H742      1.0  0.81222  0.43426  0.49127  1.0000
  H   H743      1.0  0.50300  0.24898  0.03017  1.0000
  H   H744      1.0  0.79503  0.29256  0.05751  1.0000
  H   H745      1.0  0.52163  0.30814  0.45775  1.0000
  C   C737      1.0  0.57095  0.42134  0.02259  1.0000
  H   H746      1.0  0.77429  0.27288  0.05305  1.0000
  C   C738      1.0  0.56596  0.42482  0.46710  1.0000
  H   H747      1.0  0.79328  0.26430  0.46553  1.0000
  H   H748      1.0  0.50108  0.37378  0.09119  1.0000
  C   C739      1.0  0.70656  0.28324  0.02001  1.0000
  H   H749      1.0  0.70049  0.25930  0.43969  1.0000
  C   C740      1.0  0.91730  0.29403  0.47511  1.0000
  C   C741      1.0  0.65448  0.45418  0.33704  1.0000
  H   H750      1.0  0.75176  0.45998  0.00842  1.0000
  C   C742      1.0  0.51076  0.40673  0.02530  1.0000
  H   H751      1.0  0.71445  0.47248  0.43995  1.0000
  H   H752      1.0  0.57294  0.43104  0.44232  1.0000
  C   C743      1.0  0.78430  0.34545  0.27681  1.0000
  C   C744      1.0  0.76561  0.34156  0.27491  1.0000
  C   C745      1.0  0.75748  0.33976  0.24157  1.0000
  C   C746      1.0  0.76780  0.34146  0.20974  1.0000
  C   C747      1.0  0.78639  0.34480  0.21171  1.0000
  C   C748      1.0  0.79458  0.34689  0.24504  1.0000
  H   H753      1.0  0.75749  0.34036  0.29905  1.0000
  H   H754      1.0  0.74307  0.33709  0.24038  1.0000
  H   H755      1.0  0.79452  0.34618  0.18752  1.0000
  H   H756      1.0  0.80905  0.34993  0.24615  1.0000
  C   C749      1.0  0.82796  0.37938  0.01699  1.0000
  C   C750      1.0  0.74916  0.43395  0.03267  1.0000
  C   C751      1.0  0.76992  0.40735  0.46644  1.0000
  N   N61       1.0  0.77448  0.27824  0.46598  1.0000
  H   H757      1.0  0.56574  0.35387  0.03607  1.0000
  H   H758      1.0  0.74597  0.41412  0.47463  1.0000
  H   H759      1.0  0.84876  0.31541  0.03465  1.0000
  H   H760      1.0  0.80332  0.39770  0.33251  1.0000
  C   C752      1.0  0.54978  0.40924  0.46692  1.0000
  C   C753      1.0  0.83159  0.30225  0.45843  1.0000
  C   C754      1.0  0.82203  0.31432  0.46031  1.0000
  H   H761      1.0  0.83285  0.29625  0.43337  1.0000
  H   H762      1.0  0.81600  0.31755  0.43683  1.0000
  C   C755      1.0  0.69139  0.47143  0.02760  1.0000
  C   C756      1.0  0.70335  0.26609  0.46472  1.0000
  C   C757      1.0  0.71715  0.28344  0.46602  1.0000
  H   H763      1.0  0.70975  0.38194  0.99945  1.0000
  C   C758      1.0  0.71014  0.47509  0.02773  1.0000
  C   C759      1.0  0.62515  0.49164  0.20976  1.0000
  H   H764      1.0  0.64664  0.45219  0.21619  1.0000
  N   N62       1.0  0.78252  0.38827  0.29480  1.0000
  C   C760      1.0  0.78889  0.39331  0.32789  1.0000
  C   C761      1.0  0.76428  0.38232  0.28913  1.0000
  C   C762      1.0  0.77688  0.39263  0.35632  1.0000
  C   C763      1.0  0.75187  0.38121  0.31710  1.0000
  C   C764      1.0  0.75827  0.38656  0.35081  1.0000
  H   H765      1.0  0.75920  0.37807  0.26301  1.0000
  H   H766      1.0  0.78191  0.39659  0.38261  1.0000
  H   H767      1.0  0.73739  0.37611  0.31274  1.0000
  H   H768      1.0  0.74882  0.38571  0.37284  1.0000
  C   C765      1.0  0.78643  0.28275  0.03851  1.0000
  C   C766      1.0  0.90258  0.29980  0.47960  1.0000
  C   C767      1.0  0.66767  0.49010  0.26322  1.0000
  H   H769      1.0  0.71698  0.47701  0.05268  1.0000
  C   C768      1.0  0.68852  0.27581  0.00892  1.0000
  N   N63       1.0  0.65679  0.46305  0.30157  1.0000
  C   C769      1.0  0.61639  0.47267  0.21482  1.0000
  H   H770      1.0  0.64288  0.43786  0.27673  1.0000
  C   C770      1.0  0.82936  0.39767  0.01746  1.0000
  S   S265      1.0  0.77553  0.33045  0.01238  1.0000
  C   C771      1.0  0.82579  0.31961  0.01157  1.0000
  C   C772      1.0  0.70907  0.47544  0.46480  1.0000
  H   H771      1.0  0.52407  0.40448  0.07364  1.0000
  H   H772      1.0  0.54405  0.36696  0.45911  1.0000
  C   C773      1.0  0.78258  0.40705  0.02195  1.0000
  H   H773      1.0  0.52101  0.41996  0.01760  1.0000
  C   C774      1.0  0.56481  0.35750  0.00839  1.0000
  C   C775      1.0  0.74203  0.41491  0.02943  1.0000
  C   C776      1.0  0.51258  0.39802  0.05708  1.0000
  H   H774      1.0  0.74514  0.40630  0.04927  1.0000
  N   N64       1.0  0.79664  0.27296  0.02032  1.0000
  C   C777      1.0  0.76955  0.43518  0.49463  1.0000
  Fe  Fe137     1.0  0.62864  0.48774  0.11438  1.0000
  H   H775      1.0  0.52603  0.33865  0.42937  1.0000
  C   C778      1.0  0.49833  0.26008  0.02404  1.0000
  S   S266      1.0  0.85179  0.28307  0.48439  1.0000
  C   C779      1.0  0.48381  0.38171  0.01338  1.0000
  H   H776      1.0  0.67923  0.28278  0.01483  1.0000
  C   C780      1.0  0.54510  0.39526  0.00263  1.0000
  H   H777      1.0  0.54497  0.33102  0.99664  1.0000
  H   H778      1.0  0.58387  0.38527  0.01180  1.0000
  H   H779      1.0  0.75770  0.29413  0.47275  1.0000
  H   H780      1.0  0.71106  0.29579  0.03448  1.0000
  H   H781      1.0  0.91523  0.28037  0.46613  1.0000
  C   C781      1.0  0.48522  0.37261  0.04497  1.0000
  C   C782      1.0  0.78717  0.27234  0.48070  1.0000
  H   H782      1.0  0.54446  0.40361  0.44181  1.0000
  C   C783      1.0  0.74582  0.44520  0.00666  1.0000
  H   H783      1.0  0.61220  0.46415  0.19206  1.0000
  C   C784      1.0  0.76911  0.27350  0.42945  1.0000
  S   S267      1.0  0.63978  0.48838  0.47286  1.0000
  C   C785      1.0  0.81003  0.26921  0.03754  1.0000
  C   C786      1.0  0.61282  0.46471  0.24949  1.0000
  C   C787      1.0  0.83954  0.29793  0.48865  1.0000
  C   C788      1.0  0.71860  0.27422  0.01286  1.0000
  C   C789      1.0  0.71977  0.47872  0.49497  1.0000
  H   H784      1.0  0.78010  0.28194  0.41044  1.0000
  S   S268      1.0  0.67910  0.47327  0.42757  1.0000
  H   H785      1.0  0.76635  0.25875  0.42535  1.0000
  H   H786      1.0  0.60592  0.45003  0.25312  1.0000
  C   C790      1.0  0.81957  0.25942  0.02092  1.0000
  S   S269      1.0  0.74112  0.28251  0.02762  1.0000
  S   S270      1.0  0.76322  0.33886  0.47108  1.0000
  C   C791      1.0  0.84021  0.31309  0.01191  1.0000
  H   H787      1.0  0.83038  0.25665  0.03426  1.0000
  H   H788      1.0  0.83675  0.40645  0.03814  1.0000
  C   C792      1.0  0.54234  0.35374  0.47149  1.0000
  N   N65       1.0  0.49663  0.39845  0.00370  1.0000
  H   H789      1.0  0.88086  0.31934  0.47331  1.0000
  H   H790      1.0  0.72996  0.38021  0.01781  1.0000
  N   N66       1.0  0.73193  0.40732  0.00090  1.0000
  C   C793      1.0  0.79776  0.42992  0.48751  1.0000
  H   H791      1.0  0.73323  0.47813  0.49331  1.0000
  S   S271      1.0  0.80889  0.33784  0.49562  1.0000
  C   C794      1.0  0.69312  0.25747  0.49558  1.0000
  C   C795      1.0  0.77291  0.39713  0.99388  1.0000
  C   C796      1.0  0.90700  0.29043  0.76262  1.0000
  S   S272      1.0  0.88311  0.28073  0.56755  1.0000
  Fe  Fe138     1.0  0.49452  0.35122  0.62069  1.0000
  C   C797      1.0  0.90482  0.27253  0.75407  1.0000
  Fe  Fe139     1.0  0.86416  0.24534  0.86870  1.0000
  Fe  Fe140     1.0  0.49660  0.32224  0.56969  1.0000
  N   N67       1.0  0.78577  0.40648  0.56367  1.0000
  H   H792      1.0  0.92398  0.34161  0.51153  1.0000
  Fe  Fe141     1.0  0.50389  0.36121  0.54154  1.0000
  H   H793      1.0  0.96057  0.26613  0.52388  1.0000
  S   S273      1.0  0.51677  0.34970  0.58368  1.0000
  Fe  Fe142     1.0  0.78889  0.48253  0.54223  1.0000
  S   S274      1.0  0.77068  0.47852  0.59145  1.0000
  S   S275      1.0  0.79998  0.46076  0.52380  1.0000
  H   H794      1.0  0.57380  0.38129  0.88886  1.0000
  S   S276      1.0  0.72612  0.48713  0.56533  1.0000
  Fe  Fe143     1.0  0.85384  0.27157  0.91606  1.0000
  S   S277      1.0  0.49891  0.34605  0.98164  1.0000
  H   H795      1.0  0.50794  0.41827  0.96118  1.0000
  H   H796      1.0  0.59417  0.47737  0.55919  1.0000
  S   S278      1.0  0.83667  0.28937  0.91562  1.0000
  S   S279      1.0  0.92195  0.28458  0.92266  1.0000
  S   S280      1.0  0.87750  0.27529  0.87828  1.0000
  Fe  Fe144     1.0  0.50091  0.32533  0.94343  1.0000
  C   C798      1.0  0.97855  0.29283  0.53957  1.0000
  S   S281      1.0  0.51428  0.30523  0.95806  1.0000
  H   H797      1.0  0.98251  0.34163  0.97834  1.0000
  S   S282      1.0  0.87170  0.24768  0.51054  1.0000
  H   H798      1.0  0.82278  0.24611  0.97322  1.0000
  Fe  Fe145     1.0  0.50788  0.36613  0.93542  1.0000
  S   S283      1.0  0.52895  0.39521  0.93769  1.0000
  S   S284      1.0  0.51213  0.34584  0.89800  1.0000
  C   C799      1.0  0.78824  0.44092  0.49971  1.0000
  S   S285      1.0  0.92348  0.26306  0.53944  1.0000
  H   H799      1.0  0.94565  0.27131  0.96595  1.0000
  H   H800      1.0  0.97902  0.28312  0.97363  1.0000
  H   H801      1.0  0.90059  0.26768  0.72778  1.0000
  C   C800      1.0  0.86059  0.25969  0.76988  1.0000
  Fe  Fe146     1.0  0.78670  0.47749  0.94755  1.0000
  C   C801      1.0  0.73762  0.46661  0.68885  1.0000
  S   S286      1.0  0.76716  0.46625  0.90443  1.0000
  H   H802      1.0  0.50285  0.24817  0.93711  1.0000
  C   C802      1.0  0.96129  0.27881  0.53582  1.0000
  C   C803      1.0  0.77283  0.29405  0.51911  1.0000
  S   S287      1.0  0.50118  0.36469  0.67419  1.0000
  C   C804      1.0  0.78328  0.42160  0.58266  1.0000
  Fe  Fe147     1.0  0.89085  0.26680  0.92440  1.0000
  C   C805      1.0  0.54515  0.40471  0.97062  1.0000
  C   C806      1.0  0.55819  0.42247  0.96473  1.0000
  H   H803      1.0  0.50828  0.37958  0.74339  1.0000
  H   H804      1.0  0.55835  0.42995  0.94009  1.0000
  H   H805      1.0  0.80420  0.39819  0.94604  1.0000
  H   H806      1.0  0.81026  0.30549  0.92965  1.0000
  C   C807      1.0  0.83289  0.30087  0.95308  1.0000
  C   C808      1.0  0.71058  0.28343  0.52947  1.0000
  C   C809      1.0  0.94616  0.29300  0.92930  1.0000
  C   C810      1.0  0.95417  0.28377  0.95179  1.0000
  Fe  Fe148     1.0  0.89310  0.25842  0.55187  1.0000
  C   C811      1.0  0.86016  0.26762  0.73603  1.0000
  H   H807      1.0  0.60326  0.25323  0.64012  1.0000
  H   H808      1.0  0.68571  0.46840  0.93836  1.0000
  C   C812      1.0  0.48378  0.33575  0.72244  1.0000
  C   C813      1.0  0.57109  0.43071  0.99043  1.0000
  H   H809      1.0  0.91814  0.28884  0.84870  1.0000
  C   C814      1.0  0.50207  0.28831  0.99040  1.0000
  H   H810      1.0  0.77452  0.43315  0.93868  1.0000
  H   H811      1.0  0.54297  0.33956  0.93396  1.0000
  C   C815      1.0  0.92202  0.32830  0.50084  1.0000
  H   H812      1.0  0.71335  0.29023  0.55451  1.0000
  H   H813      1.0  0.93425  0.29975  0.57129  1.0000
  C   C816      1.0  0.77306  0.37829  0.53307  1.0000
  C   C817      1.0  0.91194  0.29636  0.79681  1.0000
  N   N68       1.0  0.54972  0.35273  0.50361  1.0000
  C   C818      1.0  0.71138  0.47440  0.96336  1.0000
  H   H814      1.0  0.55071  0.37930  0.89926  1.0000
  C   C819      1.0  0.49978  0.36525  0.74709  1.0000
  H   H815      1.0  0.96444  0.32458  0.57706  1.0000
  H   H816      1.0  0.76282  0.39911  0.94184  1.0000
  N   N69       1.0  0.56220  0.36687  0.93758  1.0000
  H   H817      1.0  0.85844  0.28072  0.73402  1.0000
  H   H818      1.0  0.77269  0.42583  0.57027  1.0000
  C   C820      1.0  0.54743  0.40852  0.53103  1.0000
  C   C821      1.0  0.82876  0.31830  0.52252  1.0000
  C   C822      1.0  0.56049  0.37206  0.90055  1.0000
  S   S288      1.0  0.59292  0.45247  0.50119  1.0000
  C   C823      1.0  0.80517  0.39076  0.54339  1.0000
  H   H819      1.0  0.61177  0.49101  0.58688  1.0000
  H   H820      1.0  0.73095  0.46870  0.63398  1.0000
  H   H821      1.0  0.57110  0.36800  0.53685  1.0000
  C   C824      1.0  0.91358  0.25352  0.84083  1.0000
  H   H822      1.0  0.76141  0.36808  0.52155  1.0000
  C   C825      1.0  0.81861  0.30752  0.95267  1.0000
  C   C826      1.0  0.79025  0.37715  0.52955  1.0000
  S   S289      1.0  0.78915  0.48053  0.81383  1.0000
  H   H823      1.0  0.48476  0.41475  0.97525  1.0000
  C   C827      1.0  0.95775  0.30918  0.91114  1.0000
  S   S290      1.0  0.68393  0.25579  0.56737  1.0000
  C   C828      1.0  0.56353  0.42418  0.53120  1.0000
  C   C829      1.0  0.60818  0.48784  0.55886  1.0000
  C   C830      1.0  0.86200  0.25880  0.70481  1.0000
  H   H824      1.0  0.90436  0.24641  0.77391  1.0000
  C   C831      1.0  0.94503  0.28103  0.54705  1.0000
  H   H825      1.0  0.95191  0.31652  0.89358  1.0000
  C   C832      1.0  0.94646  0.29765  0.56238  1.0000
  C   C833      1.0  0.78640  0.43594  0.98998  1.0000
  C   C834      1.0  0.79067  0.48929  0.70647  1.0000
  H   H826      1.0  0.73130  0.30548  0.49991  1.0000
  C   C835      1.0  0.78910  0.48112  0.74080  1.0000
  C   C836      1.0  0.74476  0.47638  0.71895  1.0000
  H   H827      1.0  0.79017  0.29196  0.56098  1.0000
  H   H828      1.0  0.82777  0.32458  0.54739  1.0000
  H   H829      1.0  0.84411  0.30273  0.54426  1.0000
  C   C837      1.0  0.54692  0.33605  0.51985  1.0000
  S   S291      1.0  0.48510  0.33334  0.52472  1.0000
  C   C838      1.0  0.84363  0.30355  0.98295  1.0000
  H   H830      1.0  0.90454  0.29954  0.74291  1.0000
  H   H831      1.0  0.91285  0.25833  0.86814  1.0000
  C   C839      1.0  0.49757  0.28268  0.53142  1.0000
  C   C840      1.0  0.96370  0.31179  0.56559  1.0000
  H   H832      1.0  0.72932  0.38384  0.97109  1.0000
  S   S292      1.0  0.50465  0.29730  0.56736  1.0000
  H   H833      1.0  0.61109  0.24875  0.70251  1.0000
  C   C841      1.0  0.55318  0.34470  0.98636  1.0000
  C   C842      1.0  0.49367  0.35795  0.78168  1.0000
  C   C843      1.0  0.71294  0.48255  0.52719  1.0000
  H   H834      1.0  0.92689  0.25194  0.83673  1.0000
  H   H835      1.0  0.81859  0.39002  0.54048  1.0000
  N   N70       1.0  0.91146  0.26638  0.81391  1.0000
  H   H836      1.0  0.79593  0.43403  0.58136  1.0000
  Fe  Fe149     1.0  0.75408  0.48580  0.92199  1.0000
  C   C844      1.0  0.78555  0.28787  0.53453  1.0000
  C   C845      1.0  0.73652  0.47608  0.65764  1.0000
  H   H837      1.0  0.81436  0.41604  0.57099  1.0000
  H   H838      1.0  0.76742  0.30293  0.53347  1.0000
  H   H839      1.0  0.74596  0.46924  0.74329  1.0000
  C   C846      1.0  0.77018  0.40667  0.96380  1.0000
  C   C847      1.0  0.69535  0.48306  0.52906  1.0000
  C   C848      1.0  0.55205  0.34965  0.95081  1.0000
  H   H840      1.0  0.88072  0.31445  0.52032  1.0000
  C   C849      1.0  0.49470  0.35427  0.71727  1.0000
  C   C850      1.0  0.90701  0.26058  0.78025  1.0000
  H   H841      1.0  0.50690  0.26215  0.55373  1.0000
  H   H842      1.0  0.79869  0.25326  0.94203  1.0000
  C   C851      1.0  0.79099  0.49159  0.77137  1.0000
  C   C852      1.0  0.79276  0.27690  0.51529  1.0000
  C   C853      1.0  0.83801  0.30592  0.52082  1.0000
  H   H843      1.0  0.89329  0.33718  0.50195  1.0000
  N   N71       1.0  0.80994  0.37502  0.96510  1.0000
  H   H844      1.0  0.55554  0.35985  0.88376  1.0000
  C   C854      1.0  0.69663  0.26615  0.52808  1.0000
  C   C855      1.0  0.97688  0.31590  0.91527  1.0000
  H   H845      1.0  0.58086  0.39351  0.94915  1.0000
  C   C856      1.0  0.81116  0.39291  0.96548  1.0000
  H   H846      1.0  0.80375  0.32140  0.98108  1.0000
  C   C857      1.0  0.72080  0.29209  0.49857  1.0000
  S   S293      1.0  0.79438  0.46020  0.98934  1.0000
  C   C858      1.0  0.72014  0.47675  0.99565  1.0000
  C   C859      1.0  0.55983  0.36958  0.52172  1.0000
  H   H847      1.0  0.72039  0.41229  0.95289  1.0000
  C   C860      1.0  0.80267  0.40540  0.56059  1.0000
  C   C861      1.0  0.48904  0.28744  0.50283  1.0000
  C   C862      1.0  0.69457  0.25054  0.98279  1.0000
  C   C863      1.0  0.69257  0.47032  0.96329  1.0000
  C   C864      1.0  0.50018  0.26585  0.53178  1.0000
  C   C865      1.0  0.97996  0.30959  0.55422  1.0000
  C   C866      1.0  0.81816  0.36821  0.99045  1.0000
  H   H848      1.0  0.85931  0.26672  0.79361  1.0000
  C   C867      1.0  0.80161  0.25730  0.96923  1.0000
  C   C868      1.0  0.79898  0.36292  0.93845  1.0000
  H   H849      1.0  0.61753  0.48163  0.54689  1.0000
  H   H850      1.0  0.76204  0.44347  0.50387  1.0000
  H   H851      1.0  0.78434  0.35843  0.94655  1.0000
  S   S294      1.0  0.72353  0.47708  0.92259  1.0000
  H   H852      1.0  0.58107  0.44436  0.98544  1.0000
  H   H853      1.0  0.49009  0.39803  0.94919  1.0000
  S   S295      1.0  0.84131  0.24984  0.57056  1.0000
  H   H854      1.0  0.72189  0.25099  0.98825  1.0000
  Fe  Fe150     1.0  0.86477  0.25964  0.60750  1.0000
  H   H855      1.0  0.73303  0.45176  0.68967  1.0000
  H   H856      1.0  0.91355  0.31020  0.80394  1.0000
  S   S296      1.0  0.86227  0.26991  0.66295  1.0000
  H   H857      1.0  0.67123  0.48044  0.50051  1.0000
  C   C869      1.0  0.82100  0.40455  0.99144  1.0000
  C   C870      1.0  0.73524  0.43737  0.97802  1.0000
  H   H858      1.0  0.53501  0.30661  0.51618  1.0000
  H   H859      1.0  0.75769  0.39410  0.55223  1.0000
  H   H860      1.0  0.80256  0.35051  0.93543  1.0000
  H   H861      1.0  0.80112  0.37015  0.91204  1.0000
  H   H862      1.0  0.77930  0.41743  0.61091  1.0000
  C   C871      1.0  0.77682  0.42597  0.96190  1.0000
  C   C872      1.0  0.49470  0.40790  0.97084  1.0000
  H   H863      1.0  0.79208  0.36584  0.51583  1.0000
  H   H864      1.0  0.54038  0.40239  0.55581  1.0000
  H   H865      1.0  0.56874  0.42995  0.55627  1.0000
  Fe  Fe151     1.0  0.86056  0.26877  0.52966  1.0000
  H   H866      1.0  0.55049  0.37302  0.54033  1.0000
  C   C873      1.0  0.97323  0.29054  0.95611  1.0000
  S   S297      1.0  0.86759  0.26513  0.96308  1.0000
  C   C874      1.0  0.91438  0.28415  0.82214  1.0000
  S   S298      1.0  0.65959  0.25035  0.97767  1.0000
  C   C875      1.0  0.57338  0.37961  0.95917  1.0000
  C   C876      1.0  0.81491  0.31660  0.98189  1.0000
  H   H867      1.0  0.78914  0.48105  0.68326  1.0000
  C   C877      1.0  0.71255  0.25789  0.99413  1.0000
  H   H868      1.0  0.78648  0.46658  0.74375  1.0000
  H   H869      1.0  0.81708  0.35402  0.99049  1.0000
  C   C878      1.0  0.72838  0.41827  0.97552  1.0000
  H   H870      1.0  0.49736  0.36667  0.80427  1.0000
  H   H871      1.0  0.56591  0.38138  0.50249  1.0000
  H   H872      1.0  0.55211  0.33519  0.54597  1.0000
  C   C879      1.0  0.79222  0.26697  0.98675  1.0000
  C   C880      1.0  0.77104  0.39311  0.55041  1.0000
  H   H873      1.0  0.85476  0.29858  0.98345  1.0000
  H   H874      1.0  0.51975  0.27296  0.98460  1.0000
  Fe  Fe152     1.0  0.78560  0.48991  0.86977  1.0000
  H   H875      1.0  0.73463  0.48007  0.99592  1.0000
  H   H876      1.0  0.68997  0.48594  0.55396  1.0000
  C   C881      1.0  0.68246  0.25945  0.99035  1.0000
  C   C882      1.0  0.81530  0.25347  0.98655  1.0000
  C   C883      1.0  0.57290  0.43246  0.49929  1.0000
  C   C884      1.0  0.49355  0.25348  0.50441  1.0000
  H   H877      1.0  0.73258  0.44607  0.95765  1.0000
  H   H878      1.0  0.48712  0.30038  0.50201  1.0000
  H   H879      1.0  0.80305  0.27244  0.52666  1.0000
  C   C885      1.0  0.54039  0.40099  0.49882  1.0000
  H   H880      1.0  0.78169  0.27006  0.97303  1.0000
  C   C886      1.0  0.57506  0.37505  0.99473  1.0000
  C   C887      1.0  0.68473  0.47998  0.49879  1.0000
  H   H881      1.0  0.59243  0.48870  0.49753  1.0000
  C   C888      1.0  0.53713  0.31981  0.50324  1.0000
  H   H882      1.0  0.95050  0.33204  0.50361  1.0000
  C   C889      1.0  0.68261  0.46892  0.99532  1.0000
  C   C890      1.0  0.86288  0.24280  0.77287  1.0000
  H   H883      1.0  0.66813  0.46582  0.99502  1.0000
  C   C891      1.0  0.88930  0.32230  0.49724  1.0000
  S   S299      1.0  0.52029  0.38108  0.49686  1.0000
  S   S300      1.0  0.76374  0.37287  0.99502  1.0000
  C   C892      1.0  0.93708  0.32303  0.49634  1.0000
  H   H884      1.0  0.82174  0.41869  0.99180  1.0000
  Fe  Fe153     1.0  0.63626  0.50709  0.43022  1.0000
  S   S301      1.0  0.64453  0.53793  0.43560  1.0000
  H   H885      1.0  0.62044  0.52080  0.10734  1.0000
  C   C893      1.0  0.48818  0.73223  0.02322  1.0000
  C   C894      1.0  0.78786  0.65624  0.48700  1.0000
  Fe  Fe154     1.0  0.88764  0.66456  0.36402  1.0000
  S   S302      1.0  0.89496  0.68797  0.40194  1.0000
  S   S303      1.0  0.89598  0.67358  0.30591  1.0000
  Fe  Fe155     1.0  0.88084  0.63598  0.42523  1.0000
  S   S304      1.0  0.88891  0.65775  0.46563  1.0000
  N   N72       1.0  0.63257  0.55799  0.05110  1.0000
  Fe  Fe156     1.0  0.87074  0.66928  0.43584  1.0000
  C   C895      1.0  0.65108  0.56441  0.10242  1.0000
  Fe  Fe157     1.0  0.91228  0.67424  0.42825  1.0000
  S   S305      1.0  0.94266  0.68407  0.44292  1.0000
  S   S306      1.0  0.86222  0.64698  0.39592  1.0000
  S   S307      1.0  0.90533  0.65130  0.39005  1.0000
  S   S308      1.0  0.87100  0.60030  0.01386  1.0000
  H   H886      1.0  0.92091  0.68878  0.13023  1.0000
  C   C896      1.0  0.92152  0.70287  0.13594  1.0000
  Fe  Fe158     1.0  0.87148  0.64781  0.10464  1.0000
  S   S309      1.0  0.88365  0.67571  0.07743  1.0000
  S   S310      1.0  0.85954  0.64040  0.16111  1.0000
  Fe  Fe159     1.0  0.87562  0.62817  0.03740  1.0000
  H   H887      1.0  0.63915  0.57505  0.00380  1.0000
  Fe  Fe160     1.0  0.90535  0.66581  0.05495  1.0000
  S   S311      1.0  0.93630  0.68071  0.06470  1.0000
  Fe  Fe161     1.0  0.86638  0.66232  0.03108  1.0000
  H   H888      1.0  0.60433  0.70566  0.99749  1.0000
  S   S312      1.0  0.89334  0.63824  0.08418  1.0000
  S   S313      1.0  0.85273  0.63535  0.06019  1.0000
  S   S314      1.0  0.50539  0.69475  0.05583  1.0000
  S   S315      1.0  0.85082  0.67666  0.47276  1.0000
  S   S316      1.0  0.88911  0.65482  0.00619  1.0000
  C   C897      1.0  0.94895  0.71487  0.33420  1.0000
  H   H889      1.0  0.97974  0.68673  0.45115  1.0000
  H   H890      1.0  0.80854  0.58119  0.44971  1.0000
  C   C898      1.0  0.51849  0.69654  0.46485  1.0000
  H   H891      1.0  0.91666  0.71408  0.07086  1.0000
  H   H892      1.0  0.51096  0.69391  0.44070  1.0000
  C   C899      1.0  0.71659  0.67692  0.44740  1.0000
  H   H893      1.0  0.90388  0.59278  0.10796  1.0000
  C   C900      1.0  0.96464  0.70447  0.01986  1.0000
  C   C901      1.0  0.62702  0.49451  0.27440  1.0000
  H   H894      1.0  0.55587  0.69211  0.06375  1.0000
  S   S317      1.0  0.87560  0.60723  0.44791  1.0000
  H   H895      1.0  0.95687  0.71925  0.14720  1.0000
  C   C902      1.0  0.95953  0.69503  0.05284  1.0000
  H   H896      1.0  0.68109  0.51346  0.45438  1.0000
  H   H897      1.0  0.48782  0.71970  0.03675  1.0000
  C   C903      1.0  0.73122  0.70039  0.49052  1.0000
  H   H898      1.0  0.66214  0.57380  0.11684  1.0000
  H   H899      1.0  0.90429  0.60930  0.16391  1.0000
  H   H900      1.0  0.69902  0.51861  0.42083  1.0000
  C   C904      1.0  0.95539  0.68815  0.35234  1.0000
  C   C905      1.0  0.66583  0.54816  0.01877  1.0000
  C   C906      1.0  0.55248  0.68105  0.01151  1.0000
  H   H901      1.0  0.72093  0.67508  0.41994  1.0000
  C   C907      1.0  0.74771  0.68317  0.46580  1.0000
  S   S318      1.0  0.79770  0.54849  0.49406  1.0000
  C   C908      1.0  0.64613  0.56999  0.06994  1.0000
  C   C909      1.0  0.95295  0.72328  0.12190  1.0000
  H   H902      1.0  0.54101  0.72167  0.04219  1.0000
  C   C910      1.0  0.62738  0.56410  0.01736  1.0000
  C   C911      1.0  0.83403  0.58846  0.00086  1.0000
  C   C912      1.0  0.97399  0.69872  0.35011  1.0000
  C   C913      1.0  0.96389  0.70298  0.43605  1.0000
  H   H903      1.0  0.70772  0.51780  0.03571  1.0000
  H   H904      1.0  0.96963  0.69031  0.10339  1.0000
  C   C914      1.0  0.87594  0.60559  0.16244  1.0000
  C   C915      1.0  0.96500  0.72055  0.42464  1.0000
  H   H905      1.0  0.90783  0.70350  0.13225  1.0000
  C   C916      1.0  0.53715  0.70748  0.46357  1.0000
  H   H906      1.0  0.95266  0.72311  0.41986  1.0000
  C   C917      1.0  0.88576  0.66368  0.26613  1.0000
  C   C918      1.0  0.86891  0.64929  0.26624  1.0000
  C   C919      1.0  0.86111  0.64231  0.23386  1.0000
  C   C920      1.0  0.87010  0.64953  0.20109  1.0000
  C   C921      1.0  0.88709  0.66370  0.20097  1.0000
  C   C922      1.0  0.89482  0.67079  0.23332  1.0000
  H   H907      1.0  0.86176  0.64372  0.29123  1.0000
  H   H908      1.0  0.84794  0.63136  0.23425  1.0000
  H   H909      1.0  0.89415  0.66930  0.17597  1.0000
  H   H910      1.0  0.90786  0.68191  0.23298  1.0000
  H   H911      1.0  0.54383  0.71315  0.43826  1.0000
  C   C923      1.0  0.83787  0.59277  0.44815  1.0000
  H   H912      1.0  0.64543  0.54195  0.14102  1.0000
  H   H913      1.0  0.83865  0.60456  0.43166  1.0000
  C   C924      1.0  0.95422  0.64202  0.46534  1.0000
  C   C925      1.0  0.82081  0.57944  0.45826  1.0000
  C   C926      1.0  0.98289  0.71629  0.01235  1.0000
  H   H914      1.0  0.67909  0.59566  0.49163  1.0000
  C   C927      1.0  0.64179  0.54660  0.11592  1.0000
  C   C928      1.0  0.63032  0.50251  0.23972  1.0000
  C   C929      1.0  0.81518  0.65845  0.45116  1.0000
  H   H915      1.0  0.70939  0.66324  0.46050  1.0000
  H   H916      1.0  0.68613  0.57143  0.04162  1.0000
  H   H917      1.0  0.66445  0.53922  0.04185  1.0000
  H   H918      1.0  0.96845  0.64646  0.45703  1.0000
  H   H919      1.0  0.58942  0.70785  0.05482  1.0000
  H   H920      1.0  0.93919  0.72127  0.32817  1.0000
  H   H921      1.0  0.84355  0.57207  0.07370  1.0000
  H   H922      1.0  0.84157  0.59413  0.07780  1.0000
  C   C930      1.0  0.98213  0.73498  0.41995  1.0000
  C   C931      1.0  0.65781  0.55081  0.46987  1.0000
  C   C932      1.0  0.66407  0.57007  0.46717  1.0000
  H   H923      1.0  0.75796  0.67549  0.00151  1.0000
  H   H924      1.0  0.70665  0.68397  0.44567  1.0000
  H   H925      1.0  0.83889  0.63496  0.47325  1.0000
  N   N73       1.0  0.85987  0.58923  0.11299  1.0000
  H   H926      1.0  0.66101  0.57673  0.44399  1.0000
  H   H927      1.0  0.87542  0.58032  0.07554  1.0000
  H   H928      1.0  0.87604  0.61324  0.18620  1.0000
  H   H929      1.0  0.76326  0.69643  0.02583  1.0000
  C   C933      1.0  0.71432  0.51916  0.00961  1.0000
  H   H930      1.0  0.61627  0.56939  0.02213  1.0000
  C   C934      1.0  0.67430  0.58085  0.49417  1.0000
  H   H931      1.0  0.65360  0.58378  0.05932  1.0000
  H   H932      1.0  0.82115  0.65561  0.42689  1.0000
  C   C935      1.0  0.53638  0.71522  0.01733  1.0000
  C   C936      1.0  0.83546  0.56189  0.49062  1.0000
  H   H933      1.0  0.67404  0.50488  0.25982  1.0000
  S   S319      1.0  0.76356  0.64887  0.49061  1.0000
  H   H934      1.0  0.77491  0.68916  0.48402  1.0000
  H   H935      1.0  0.62560  0.73505  0.41132  1.0000
  H   H936      1.0  0.59515  0.51602  0.45995  1.0000
  C   C937      1.0  0.89155  0.59418  0.11852  1.0000
  C   C938      1.0  0.96638  0.73534  0.09887  1.0000
  C   C939      1.0  0.73315  0.52352  0.00699  1.0000
  H   H937      1.0  0.97231  0.73952  0.32465  1.0000
  C   C940      1.0  0.93050  0.72044  0.07932  1.0000
  C   C941      1.0  0.70636  0.55063  0.47994  1.0000
  H   H938      1.0  0.63699  0.51722  0.23610  1.0000
  S   S320      1.0  0.62997  0.50235  0.16667  1.0000
  H   H939      1.0  0.83392  0.60067  0.01355  1.0000
  N   N74       1.0  0.73229  0.68728  0.46805  1.0000
  H   H940      1.0  0.83113  0.57608  0.11113  1.0000
  C   C942      1.0  0.84319  0.58251  0.09297  1.0000
  H   H941      1.0  0.95066  0.67383  0.36110  1.0000
  C   C943      1.0  0.81951  0.56400  0.47968  1.0000
  C   C944      1.0  0.79605  0.65260  0.45581  1.0000
  H   H942      1.0  0.92473  0.70551  0.16430  1.0000
  C   C945      1.0  0.86004  0.59845  0.14345  1.0000
  C   C946      1.0  0.89179  0.60345  0.14983  1.0000
  H   H943      1.0  0.63117  0.50302  0.29718  1.0000
  H   H944      1.0  0.49765  0.71977  0.47816  1.0000
  C   C947      1.0  0.87538  0.58715  0.10028  1.0000
  C   C948      1.0  0.85252  0.57513  0.48024  1.0000
  C   C949      1.0  0.58974  0.69867  0.00127  1.0000
  N   N75       1.0  0.70581  0.53412  0.46763  1.0000
  C   C950      1.0  0.71675  0.52570  0.48151  1.0000
  S   S321      1.0  0.57090  0.72433  0.49088  1.0000
  C   C951      1.0  0.94284  0.69632  0.34439  1.0000
  C   C952      1.0  0.82650  0.66834  0.47749  1.0000
  C   C953      1.0  0.51879  0.70190  0.01593  1.0000
  H   H945      1.0  0.93989  0.73524  0.02915  1.0000
  C   C954      1.0  0.62335  0.54052  0.06423  1.0000
  C   C955      1.0  0.94143  0.62684  0.45026  1.0000
  C   C956      1.0  0.56264  0.69098  0.03895  1.0000
  C   C957      1.0  0.92313  0.62160  0.46059  1.0000
  H   H946      1.0  0.73149  0.69297  0.00685  1.0000
  C   C958      1.0  0.85019  0.58500  0.99778  1.0000
  H   H947      1.0  0.84794  0.60073  0.15289  1.0000
  C   C959      1.0  0.67808  0.56646  0.01862  1.0000
  H   H948      1.0  0.71877  0.70321  0.49332  1.0000
  H   H949      1.0  0.94562  0.61925  0.43031  1.0000
  H   H950      1.0  0.74104  0.52557  0.03073  1.0000
  H   H951      1.0  0.71647  0.51274  0.47154  1.0000
  H   H952      1.0  0.78753  0.64524  0.43493  1.0000
  C   C960      1.0  0.96765  0.72506  0.33227  1.0000
  H   H953      1.0  0.92838  0.68833  0.34641  1.0000
  C   C961      1.0  0.62775  0.53462  0.09687  1.0000
  C   C962      1.0  0.85381  0.59068  0.45918  1.0000
  H   H954      1.0  0.91298  0.60997  0.44872  1.0000
  S   S322      1.0  0.65047  0.49737  0.38717  1.0000
  C   C963      1.0  0.98026  0.70017  0.44236  1.0000
  C   C964      1.0  0.69266  0.52472  0.44112  1.0000
  C   C965      1.0  0.97321  0.69753  0.07784  1.0000
  N   N76       1.0  0.93524  0.71619  0.11216  1.0000
  H   H955      1.0  0.59227  0.72731  0.42019  1.0000
  S   S323      1.0  0.65294  0.50195  0.07795  1.0000
  C   C966      1.0  0.58140  0.69988  0.03386  1.0000
  C   C967      1.0  0.94360  0.73237  0.05555  1.0000
  H   H956      1.0  0.61274  0.53093  0.04914  1.0000
  H   H957      1.0  0.69779  0.55742  0.46888  1.0000
  H   H958      1.0  0.98051  0.74053  0.10618  1.0000
  H   H959      1.0  0.67884  0.50556  0.00909  1.0000
  H   H960      1.0  0.74836  0.67228  0.44908  1.0000
  H   H961      1.0  0.53781  0.67456  0.01487  1.0000
  N   N77       1.0  0.97988  0.71698  0.34051  1.0000
  H   H962      1.0  0.68714  0.53417  0.42713  1.0000
  C   C968      1.0  0.76280  0.69266  0.48560  1.0000
  C   C969      1.0  0.54726  0.71094  0.49461  1.0000
  H   H963      1.0  0.81350  0.64556  0.01111  1.0000
  H   H964      1.0  0.95450  0.70277  0.00012  1.0000
  C   C970      1.0  0.96164  0.73986  0.06547  1.0000
  H   H965      1.0  0.62278  0.55260  0.99873  1.0000
  Fe  Fe162     1.0  0.63340  0.49787  0.03439  1.0000
  C   C971      1.0  0.60172  0.51764  0.48526  1.0000
  H   H966      1.0  0.61386  0.54709  0.47934  1.0000
  H   H967      1.0  0.66483  0.68757  0.48882  1.0000
  C   C972      1.0  0.91786  0.63167  0.48592  1.0000
  C   C973      1.0  0.60161  0.74140  0.42167  1.0000
  C   C974      1.0  0.94847  0.65175  0.49068  1.0000
  H   H968      1.0  0.86477  0.57333  0.48875  1.0000
  C   C975      1.0  0.76418  0.69073  0.99946  1.0000
  C   C976      1.0  0.61214  0.53509  0.49625  1.0000
  H   H969      1.0  0.90355  0.62764  0.49333  1.0000
  H   H970      1.0  0.85371  0.62601  0.49559  1.0000
  Fe  Fe163     1.0  0.70544  0.65573  0.54561  1.0000
  S   S324      1.0  0.69616  0.63574  0.59251  1.0000
  H   H971      1.0  0.77339  0.71331  0.52435  1.0000
  Fe  Fe164     1.0  0.74092  0.64685  0.53261  1.0000
  S   S325      1.0  0.73383  0.62687  0.57951  1.0000
  Fe  Fe165     1.0  0.58710  0.73490  0.91580  1.0000
  Fe  Fe166     1.0  0.70525  0.61655  0.55959  1.0000
  Fe  Fe167     1.0  0.72532  0.64757  0.60832  1.0000
  S   S326      1.0  0.73377  0.65912  0.66290  1.0000
  S   S327      1.0  0.73437  0.66854  0.56256  1.0000
  Fe  Fe168     1.0  0.79144  0.52216  0.52783  1.0000
  S   S328      1.0  0.77338  0.52073  0.57545  1.0000
  N   N78       1.0  0.61425  0.71854  0.69292  1.0000
  Fe  Fe169     1.0  0.70574  0.65958  0.91242  1.0000
  S   S329      1.0  0.68994  0.62996  0.90142  1.0000
  S   S330      1.0  0.69426  0.68206  0.89735  1.0000
  Fe  Fe170     1.0  0.74139  0.65124  0.92441  1.0000
  S   S331      1.0  0.72762  0.62146  0.91260  1.0000
  S   S332      1.0  0.77203  0.66495  0.93428  1.0000
  Fe  Fe171     1.0  0.71445  0.63122  0.86791  1.0000
  S   S333      1.0  0.70920  0.61802  0.81397  1.0000
  Fe  Fe172     1.0  0.70442  0.62280  0.94693  1.0000
  C   C977      1.0  0.75672  0.52483  0.68474  1.0000
  S   S334      1.0  0.72978  0.66094  0.87694  1.0000
  S   S335      1.0  0.71874  0.65252  0.96081  1.0000
  H   H972      1.0  0.67464  0.54652  0.55076  1.0000
  Fe  Fe173     1.0  0.79038  0.51730  0.92991  1.0000
  S   S336      1.0  0.79770  0.54671  0.94864  1.0000
  S   S337      1.0  0.77099  0.50874  0.88479  1.0000
  C   C978      1.0  0.83384  0.55672  0.96726  1.0000
  S   S338      1.0  0.60865  0.72812  0.88513  1.0000
  C   C979      1.0  0.54267  0.71112  0.95519  1.0000
  C   C980      1.0  0.75338  0.70891  0.91337  1.0000
  S   S339      1.0  0.55786  0.71467  0.91785  1.0000
  H   H973      1.0  0.93430  0.66166  0.54799  1.0000
  S   S340      1.0  0.59955  0.72507  0.58201  1.0000
  C   C981      1.0  0.79448  0.50814  0.70233  1.0000
  C   C982      1.0  0.49798  0.73803  0.99105  1.0000
  H   H974      1.0  0.69414  0.64712  0.82754  1.0000
  H   H975      1.0  0.51319  0.68625  0.55350  1.0000
  C   C983      1.0  0.83045  0.63322  0.92871  1.0000
  H   H976      1.0  0.91096  0.64982  0.53778  1.0000
  C   C984      1.0  0.51293  0.69372  0.98363  1.0000
  C   C985      1.0  0.79649  0.51864  0.73287  1.0000
  C   C986      1.0  0.69290  0.65905  0.81274  1.0000
  C   C987      1.0  0.67810  0.63416  0.72869  1.0000
  C   C988      1.0  0.52487  0.69824  0.95348  1.0000
  S   S341      1.0  0.63701  0.51999  0.99137  1.0000
  H   H977      1.0  0.70551  0.67094  0.81735  1.0000
  H   H978      1.0  0.83465  0.55008  0.50712  1.0000
  S   S342      1.0  0.69094  0.58532  0.55930  1.0000
  S   S343      1.0  0.48628  0.67467  0.50032  1.0000
  H   H979      1.0  0.64824  0.54893  0.93762  1.0000
  C   C989      1.0  0.79917  0.66586  0.51357  1.0000
  C   C990      1.0  0.73789  0.69781  0.98086  1.0000
  C   C991      1.0  0.72834  0.53355  0.50896  1.0000
  C   C992      1.0  0.67864  0.69201  0.91461  1.0000
  C   C993      1.0  0.67411  0.70453  0.89282  1.0000
  C   C994      1.0  0.66219  0.71313  0.90525  1.0000
  C   C995      1.0  0.65474  0.70954  0.94000  1.0000
  C   C996      1.0  0.65930  0.69703  0.96182  1.0000
  C   C997      1.0  0.67105  0.68826  0.94925  1.0000
  H   H980      1.0  0.67988  0.70766  0.86605  1.0000
  H   H981      1.0  0.65897  0.72273  0.88808  1.0000
  H   H982      1.0  0.59205  0.71249  0.65817  1.0000
  H   H983      1.0  0.67432  0.67872  0.96648  1.0000
  C   C998      1.0  0.79298  0.66634  0.95371  1.0000
  N   N79       1.0  0.70426  0.51614  0.97974  1.0000
  S   S344      1.0  0.77209  0.49545  0.96791  1.0000
  C   C999      1.0  0.80853  0.68142  0.94329  1.0000
  H   H984      1.0  0.54602  0.70587  0.55117  1.0000
  H   H985      1.0  0.95836  0.66396  0.50130  1.0000
  H   H986      1.0  0.74497  0.72020  0.52908  1.0000
  H   H987      1.0  0.80747  0.69151  0.92420  1.0000
  H   H988      1.0  0.64933  0.70826  0.51004  1.0000
  C   C1000     1.0  0.76261  0.70313  0.93951  1.0000
  H   H989      1.0  0.65556  0.73837  0.65162  1.0000
  C   C1001     1.0  0.82557  0.68363  0.95685  1.0000
  H   H990      1.0  0.68111  0.66189  0.82416  1.0000
  S   S345      1.0  0.71255  0.63555  0.51156  1.0000
  H   H991      1.0  0.78370  0.57669  0.55481  1.0000
  Fe  Fe174     1.0  0.62884  0.73907  0.56345  1.0000
  H   H992      1.0  0.62983  0.55049  0.53619  1.0000
  H   H993      1.0  0.58584  0.71141  0.70393  1.0000
  H   H994      1.0  0.60874  0.71748  0.74885  1.0000
  C   C1002     1.0  0.65991  0.71029  0.56246  1.0000
  C   C1003     1.0  0.67099  0.70447  0.58491  1.0000
  C   C1004     1.0  0.67971  0.69257  0.57303  1.0000
  H   H995      1.0  0.68814  0.68832  0.59073  1.0000
  H   H996      1.0  0.79960  0.53326  0.72997  1.0000
  C   C1005     1.0  0.72838  0.64689  0.70444  1.0000
  C   C1006     1.0  0.71765  0.62822  0.70727  1.0000
  C   C1007     1.0  0.71244  0.61943  0.74105  1.0000
  C   C1008     1.0  0.71781  0.62920  0.77226  1.0000
  C   C1009     1.0  0.72892  0.64775  0.76941  1.0000
  C   C1010     1.0  0.73420  0.65652  0.73565  1.0000
  H   H997      1.0  0.71313  0.62064  0.68348  1.0000
  H   H998      1.0  0.70390  0.60505  0.74301  1.0000
  H   H999      1.0  0.73327  0.65540  0.79317  1.0000
  H   H1000     1.0  0.74261  0.67093  0.73368  1.0000
  H   H1001     1.0  0.73677  0.52658  0.52016  1.0000
  C   C1011     1.0  0.74602  0.71007  0.51087  1.0000
  C   C1012     1.0  0.81778  0.56040  0.96955  1.0000
  C   C1013     1.0  0.82770  0.67086  0.98137  1.0000
  S   S346      1.0  0.80879  0.51012  0.55863  1.0000
  N   N80       1.0  0.57959  0.68910  0.97434  1.0000
  H   H1002     1.0  0.77584  0.70259  0.93272  1.0000
  H   H1003     1.0  0.67286  0.70923  0.61176  1.0000
  C   C1014     1.0  0.65671  0.55371  0.96017  1.0000
  S   S347      1.0  0.64950  0.72562  0.57920  1.0000
  H   H1004     1.0  0.79622  0.51865  0.79044  1.0000
  S   S348      1.0  0.64003  0.72046  0.95772  1.0000
  H   H1005     1.0  0.64068  0.73456  0.76312  1.0000
  H   H1006     1.0  0.92446  0.67010  0.51195  1.0000
  H   H1007     1.0  0.71774  0.57177  0.51775  1.0000
  C   C1015     1.0  0.85757  0.62677  0.94348  1.0000
  H   H1008     1.0  0.52041  0.69140  0.92890  1.0000
  H   H1009     1.0  0.67468  0.62700  0.78453  1.0000
  H   H1010     1.0  0.85661  0.62725  0.97288  1.0000
  N   N81       1.0  0.69058  0.65533  0.77484  1.0000
  H   H1011     1.0  0.86620  0.64061  0.93261  1.0000
  C   C1016     1.0  0.65471  0.54184  0.98992  1.0000
  H   H1012     1.0  0.73776  0.52242  0.91728  1.0000
  H   H1013     1.0  0.80561  0.63754  0.91698  1.0000
  H   H1014     1.0  0.75940  0.71276  0.88681  1.0000
  C   C1017     1.0  0.81259  0.62785  0.91736  1.0000
  C   C1018     1.0  0.81286  0.59753  0.90796  1.0000
  C   C1019     1.0  0.80373  0.60985  0.90714  1.0000
  N   N82       1.0  0.83931  0.62107  0.92936  1.0000
  H   H1015     1.0  0.67072  0.62028  0.72073  1.0000
  H   H1016     1.0  0.58717  0.67344  0.93616  1.0000
  H   H1017     1.0  0.86233  0.56609  0.97889  1.0000
  C   C1020     1.0  0.79455  0.51040  0.76721  1.0000
  H   H1018     1.0  0.78976  0.60542  0.89889  1.0000
  S   S349      1.0  0.77293  0.49496  0.50816  1.0000
  C   C1021     1.0  0.71773  0.55888  0.50748  1.0000
  C   C1022     1.0  0.75082  0.49554  0.71726  1.0000
  C   C1023     1.0  0.68464  0.51215  0.98280  1.0000
  C   C1024     1.0  0.84206  0.63060  0.49981  1.0000
  C   C1025     1.0  0.80946  0.61753  0.51456  1.0000
  H   H1019     1.0  0.80559  0.57919  0.98879  1.0000
  H   H1020     1.0  0.62725  0.52289  0.57266  1.0000
  N   N83       1.0  0.48533  0.72801  0.52244  1.0000
  C   C1026     1.0  0.92474  0.65751  0.52592  1.0000
  C   C1027     1.0  0.82799  0.60101  0.53248  1.0000
  H   H1021     1.0  0.72863  0.71325  0.90129  1.0000
  C   C1028     1.0  0.60038  0.50225  0.50650  1.0000
  Fe  Fe175     1.0  0.59179  0.73712  0.53298  1.0000
  S   S350      1.0  0.80651  0.50004  0.91225  1.0000
  S   S351      1.0  0.79624  0.51918  0.65988  1.0000
  C   C1029     1.0  0.79484  0.65337  0.97848  1.0000
  C   C1030     1.0  0.83080  0.60345  0.91895  1.0000
  H   H1022     1.0  0.70333  0.67639  0.69371  1.0000
  C   C1031     1.0  0.48586  0.74232  0.54317  1.0000
  C   C1032     1.0  0.71255  0.51761  0.94686  1.0000
  H   H1023     1.0  0.82685  0.67960  0.52928  1.0000
  H   H1024     1.0  0.73746  0.55635  0.54374  1.0000
  S   S352      1.0  0.68887  0.67185  0.52103  1.0000
  H   H1025     1.0  0.70458  0.51503  0.92319  1.0000
  H   H1026     1.0  0.65371  0.69412  0.98875  1.0000
  N   N84       1.0  0.75021  0.50473  0.68621  1.0000
  H   H1027     1.0  0.49946  0.68340  0.98218  1.0000
  C   C1033     1.0  0.67171  0.55315  0.52740  1.0000
  C   C1034     1.0  0.63710  0.73138  0.73574  1.0000
  C   C1035     1.0  0.79563  0.58797  0.54469  1.0000
  N   N85       1.0  0.82613  0.61596  0.51584  1.0000
  Fe  Fe176     1.0  0.62623  0.73882  0.93154  1.0000
  C   C1036     1.0  0.59525  0.70834  0.68486  1.0000
  H   H1028     1.0  0.75627  0.52808  0.97111  1.0000
  H   H1029     1.0  0.83716  0.64713  0.93733  1.0000
  H   H1030     1.0  0.84622  0.64270  0.51694  1.0000
  S   S353      1.0  0.85034  0.67483  0.99538  1.0000
  H   H1031     1.0  0.58169  0.69244  0.91820  1.0000
  N   N86       1.0  0.75485  0.69771  0.97278  1.0000
  N   N87       1.0  0.93049  0.64649  0.50072  1.0000
  C   C1037     1.0  0.73615  0.70917  0.92148  1.0000
  H   H1032     1.0  0.76319  0.53031  0.65823  1.0000
  H   H1033     1.0  0.83765  0.59366  0.92012  1.0000
  C   C1038     1.0  0.81831  0.67195  0.50869  1.0000
  C   C1039     1.0  0.67811  0.57244  0.52453  1.0000
  C   C1040     1.0  0.65775  0.70399  0.52774  1.0000
  Fe  Fe177     1.0  0.78923  0.50677  0.60538  1.0000
  H   H1034     1.0  0.59252  0.69339  0.68565  1.0000
  C   C1041     1.0  0.68627  0.64807  0.70301  1.0000
  C   C1042     1.0  0.66181  0.54237  0.50003  1.0000
  C   C1043     1.0  0.69638  0.66570  0.71358  1.0000
  H   H1035     1.0  0.60301  0.69657  0.93885  1.0000
  H   H1036     1.0  0.76744  0.53070  0.70429  1.0000
  C   C1044     1.0  0.61970  0.52129  0.54852  1.0000
  C   C1045     1.0  0.66913  0.57197  0.95985  1.0000
  C   C1046     1.0  0.81794  0.57620  0.98687  1.0000
  C   C1047     1.0  0.53843  0.70341  0.52709  1.0000
  C   C1048     1.0  0.67954  0.57856  0.98951  1.0000
  H   H1037     1.0  0.77883  0.69437  0.99211  1.0000
  H   H1038     1.0  0.70650  0.68280  0.75780  1.0000
  C   C1049     1.0  0.81277  0.58677  0.54700  1.0000
  H   H1039     1.0  0.67013  0.58114  0.93725  1.0000
  C   C1050     1.0  0.61901  0.72180  0.72749  1.0000
  C   C1051     1.0  0.62722  0.72409  0.66601  1.0000
  H   H1040     1.0  0.83396  0.54465  0.95394  1.0000
  H   H1041     1.0  0.83732  0.69539  0.94799  1.0000
  C   C1052     1.0  0.64542  0.73376  0.67326  1.0000
  C   C1053     1.0  0.81217  0.65561  0.99224  1.0000
  S   S354      1.0  0.69281  0.60213  0.99328  1.0000
  C   C1054     1.0  0.62116  0.53698  0.52813  1.0000
  H   H1042     1.0  0.68536  0.64508  0.67496  1.0000
  H   H1043     1.0  0.79321  0.66883  0.53771  1.0000
  C   C1055     1.0  0.68040  0.63806  0.76472  1.0000
  C   C1056     1.0  0.67763  0.68635  0.53826  1.0000
  C   C1057     1.0  0.69828  0.66916  0.74985  1.0000
  H   H1044     1.0  0.51111  0.72555  0.51713  1.0000
  H   H1045     1.0  0.71466  0.70322  0.96144  1.0000
  C   C1058     1.0  0.65034  0.73751  0.70835  1.0000
  C   C1059     1.0  0.76192  0.70618  0.50826  1.0000
  H   H1046     1.0  0.80805  0.62955  0.50208  1.0000
  C   C1060     1.0  0.58832  0.68782  0.94024  1.0000
  H   H1047     1.0  0.86452  0.61709  0.93692  1.0000
  H   H1048     1.0  0.80600  0.58334  0.90087  1.0000
  H   H1049     1.0  0.78300  0.64163  0.98694  1.0000
  H   H1050     1.0  0.62357  0.72118  0.63864  1.0000
  H   H1051     1.0  0.78071  0.60476  0.52696  1.0000
  C   C1061     1.0  0.51981  0.69224  0.52831  1.0000
  H   H1052     1.0  0.81414  0.57449  0.55852  1.0000
  H   H1053     1.0  0.84116  0.59963  0.53329  1.0000
  C   C1062     1.0  0.66661  0.69222  0.51576  1.0000
  N   N88       1.0  0.60921  0.50422  0.53781  1.0000
  C   C1063     1.0  0.73134  0.52190  0.94331  1.0000
  C   C1064     1.0  0.72831  0.70358  0.95539  1.0000
  H   H1054     1.0  0.65706  0.52758  0.50255  1.0000
  C   C1065     1.0  0.56120  0.68039  0.97908  1.0000
  H   H1055     1.0  0.74527  0.52955  0.69015  1.0000
  H   H1056     1.0  0.55310  0.67333  0.95733  1.0000
  H   H1057     1.0  0.75659  0.50302  0.74065  1.0000
  C   C1066     1.0  0.50974  0.68871  0.49723  1.0000
  C   C1067     1.0  0.72873  0.55021  0.52213  1.0000
  H   H1058     1.0  0.50535  0.73003  0.97957  1.0000
  C   C1068     1.0  0.79394  0.60355  0.52876  1.0000
  C   C1069     1.0  0.74290  0.49525  0.65681  1.0000
  H   H1059     1.0  0.68184  0.52501  0.97931  1.0000
  C   C1070     1.0  0.74169  0.52490  0.97358  1.0000
  H   H1060     1.0  0.57710  0.74081  0.73497  1.0000
  H   H1061     1.0  0.56186  0.72987  0.98880  1.0000
  H   H1062     1.0  0.74212  0.50250  0.63234  1.0000
  C   C1071     1.0  0.54824  0.71990  0.98709  1.0000
  H   H1063     1.0  0.67732  0.50241  0.96242  1.0000
  C   C1072     1.0  0.50138  0.72925  0.50063  1.0000
  C   C1073     1.0  0.84993  0.56896  0.98132  1.0000
  Fe  Fe178     1.0  0.75620  0.49290  0.55825  1.0000
  Fe  Fe179     1.0  0.63457  0.93956  0.06475  1.0000
  S   S355      1.0  0.60557  0.92976  0.08632  1.0000
  S   S356      1.0  0.65130  0.96932  0.08170  1.0000
  Fe  Fe180     1.0  0.62910  0.89908  0.04386  1.0000
  S   S357      1.0  0.60054  0.88762  0.06629  1.0000
  C   C1074     1.0  0.61383  0.84556  0.00984  1.0000
  Fe  Fe181     1.0  0.59754  0.91205  0.03886  1.0000
  H   H1064     1.0  0.61103  0.93953  0.16194  1.0000
  Fe  Fe182     1.0  0.61124  0.90629  0.11189  1.0000
  S   S358      1.0  0.60091  0.89720  0.16876  1.0000
  S   S359      1.0  0.64024  0.91602  0.09198  1.0000
  H   H1065     1.0  0.63432  0.79111  0.43327  1.0000
  Fe  Fe183     1.0  0.63623  0.94286  0.42325  1.0000
  S   S360      1.0  0.61823  0.93405  0.37624  1.0000
  S   S361      1.0  0.64666  0.97366  0.43778  1.0000
  Fe  Fe184     1.0  0.63071  0.90175  0.44318  1.0000
  S   S362      1.0  0.61366  0.89118  0.39605  1.0000
  N   N89       1.0  0.61558  0.86065  0.13680  1.0000
  Fe  Fe185     1.0  0.63356  0.91544  0.36514  1.0000
  S   S363      1.0  0.64614  0.91605  0.30970  1.0000
  Fe  Fe186     1.0  0.59976  0.91058  0.41137  1.0000
  S   S364      1.0  0.56889  0.89860  0.41051  1.0000
  S   S365      1.0  0.65227  0.92481  0.41129  1.0000
  S   S366      1.0  0.61614  0.92064  0.45927  1.0000
  C   C1075     1.0  0.60711  0.82723  0.99866  1.0000
  C   C1076     1.0  0.63665  0.85141  0.46399  1.0000
  H   H1066     1.0  0.97208  0.74857  0.04683  1.0000
  C   C1077     1.0  0.62477  0.95000  0.16550  1.0000
  C   C1078     1.0  0.53595  0.88012  0.44480  1.0000
  H   H1067     1.0  0.65767  0.96503  0.19117  1.0000
  H   H1068     1.0  0.61288  0.86489  0.19206  1.0000
  C   C1079     1.0  0.61379  0.90277  0.20750  1.0000
  C   C1080     1.0  0.60472  0.89825  0.24093  1.0000
  C   C1081     1.0  0.61442  0.90225  0.27246  1.0000
  C   C1082     1.0  0.63336  0.91053  0.27081  1.0000
  C   C1083     1.0  0.64246  0.91485  0.23732  1.0000
  C   C1084     1.0  0.63272  0.91119  0.20579  1.0000
  H   H1069     1.0  0.59006  0.89170  0.24253  1.0000
  H   H1070     1.0  0.60725  0.89884  0.29804  1.0000
  H   H1071     1.0  0.65712  0.92128  0.23584  1.0000
  H   H1072     1.0  0.63988  0.91473  0.18023  1.0000
  C   C1085     1.0  0.64080  0.87562  0.17350  1.0000
  C   C1086     1.0  0.61585  0.94547  0.22903  1.0000
  H   H1073     1.0  0.69462  0.93752  0.47257  1.0000
  H   H1074     1.0  0.52576  0.83037  0.44394  1.0000
  H   H1075     1.0  0.62530  0.96338  0.15382  1.0000
  H   H1076     1.0  0.64144  0.85923  0.43930  1.0000
  H   H1077     1.0  0.53091  0.87682  0.41841  1.0000
  H   H1078     1.0  0.56497  0.87199  0.02882  1.0000
  C   C1087     1.0  0.62215  0.86663  0.16931  1.0000
  C   C1088     1.0  0.63822  0.95487  0.27419  1.0000
  C   C1089     1.0  0.65273  0.87865  0.14406  1.0000
  S   S367      1.0  0.62602  0.92338  0.01454  1.0000
  N   N90       1.0  0.62930  0.95176  0.20306  1.0000
  H   H1079     1.0  0.64588  0.88054  0.19930  1.0000
  C   C1090     1.0  0.65180  0.96153  0.24755  1.0000
  H   H1080     1.0  0.64174  0.95537  0.30195  1.0000
  H   H1081     1.0  0.58930  0.86203  0.13533  1.0000
  N   N91       1.0  0.56349  0.85401  0.48800  1.0000
  C   C1091     1.0  0.62029  0.74574  0.41695  1.0000
  C   C1092     1.0  0.63729  0.83363  0.46821  1.0000
  H   H1082     1.0  0.48457  0.75826  0.45632  1.0000
  H   H1083     1.0  0.58642  0.78496  0.43288  1.0000
  C   C1093     1.0  0.55428  0.87260  0.01210  1.0000
  C   C1094     1.0  0.62011  0.94691  0.26496  1.0000
  H   H1084     1.0  0.59004  0.84091  0.15432  1.0000
  C   C1095     1.0  0.59592  0.85170  0.13310  1.0000
  H   H1085     1.0  0.53995  0.84329  0.01417  1.0000
  C   C1096     1.0  0.62720  0.86354  0.10780  1.0000
  H   H1086     1.0  0.68528  0.98370  0.41368  1.0000
  H   H1087     1.0  0.62206  0.85908  0.08187  1.0000
  C   C1097     1.0  0.64592  0.87256  0.11098  1.0000
  S   S368      1.0  0.57325  0.91023  0.00556  1.0000
  C   C1098     1.0  0.55429  0.89110  0.44885  1.0000
  H   H1088     1.0  0.66593  0.96746  0.25455  1.0000
  H   H1089     1.0  0.63455  0.94551  0.15011  1.0000
  H   H1090     1.0  0.59112  0.85720  0.47826  1.0000
  H   H1091     1.0  0.59256  0.84513  0.10705  1.0000
  H   H1092     1.0  0.66720  0.88589  0.14676  1.0000
  H   H1093     1.0  0.64261  0.82802  0.44653  1.0000
  H   H1094     1.0  0.60179  0.93874  0.22209  1.0000
  C   C1099     1.0  0.52409  0.87321  0.47467  1.0000
  C   C1100     1.0  0.64706  0.95998  0.21186  1.0000
  C   C1101     1.0  0.62501  0.77723  0.42936  1.0000
  C   C1102     1.0  0.58258  0.86573  0.48109  1.0000
  H   H1095     1.0  0.65500  0.87503  0.08770  1.0000
  H   H1096     1.0  0.60952  0.94129  0.28553  1.0000
  H   H1097     1.0  0.59703  0.78530  0.47507  1.0000
  S   S369      1.0  0.64154  0.87985  0.01730  1.0000
  C   C1103     1.0  0.55471  0.88955  0.99850  1.0000
  C   C1104     1.0  0.59500  0.75520  0.43026  1.0000
  H   H1098     1.0  0.58418  0.87436  0.45643  1.0000
  C   C1105     1.0  0.59941  0.78666  0.44572  1.0000
  H   H1099     1.0  0.60907  0.80080  0.43913  1.0000
  C   C1106     1.0  0.68348  0.94064  0.48458  1.0000
  N   N92       1.0  0.60666  0.77283  0.43404  1.0000
  H   H1100     1.0  0.69591  0.96984  0.47363  1.0000
  H   H1101     1.0  0.64668  0.76727  0.41800  1.0000
  H   H1102     1.0  0.66478  0.98846  0.01169  1.0000
  H   H1103     1.0  0.59295  0.81887  0.00383  1.0000
  H   H1104     1.0  0.51005  0.86471  0.47117  1.0000
  C   C1107     1.0  0.53448  0.83548  0.46609  1.0000
  H   H1105     1.0  0.60482  0.85110  0.02338  1.0000
  C   C1108     1.0  0.63210  0.76379  0.42068  1.0000
  C   C1109     1.0  0.54007  0.85632  0.00366  1.0000
  H   H1106     1.0  0.55791  0.85069  0.43296  1.0000
  C   C1110     1.0  0.63214  0.85658  0.00356  1.0000
  C   C1111     1.0  0.63072  0.85938  0.49228  1.0000
  C   C1112     1.0  0.68424  0.95873  0.48524  1.0000
  H   H1107     1.0  0.57459  0.90410  0.48657  1.0000
  S   S370      1.0  0.63174  0.88268  0.49004  1.0000
  C   C1113     1.0  0.55266  0.84696  0.46009  1.0000
  C   C1114     1.0  0.56059  0.89546  0.48309  1.0000
  H   H1108     1.0  0.58049  0.75156  0.43508  1.0000
  H   H1109     1.0  0.98270  0.74849  0.41147  1.0000
  H   H1110     1.0  0.50820  0.74332  0.48892  1.0000
  H   H1111     1.0  0.63125  0.95513  0.50526  1.0000
  H   H1112     1.0  0.55189  0.86974  0.90747  1.0000
  Fe  Fe187     1.0  0.61351  0.77249  0.93771  1.0000
  S   S371      1.0  0.59547  0.76324  0.89087  1.0000
  S   S372      1.0  0.60899  0.79632  0.96706  1.0000
  Fe  Fe188     1.0  0.61861  0.75739  0.86480  1.0000
  S   S373      1.0  0.63073  0.76632  0.80871  1.0000
  H   H1113     1.0  0.58175  0.90898  0.88473  1.0000
  S   S374      1.0  0.63747  0.76827  0.91005  1.0000
  Fe  Fe189     1.0  0.62190  0.77492  0.54031  1.0000
  S   S375      1.0  0.59257  0.76295  0.55894  1.0000
  H   H1114     1.0  0.54069  0.90307  0.96645  1.0000
  H   H1115     1.0  0.62060  0.82330  0.55319  1.0000
  C   C1115     1.0  0.65368  0.93071  0.51329  1.0000
  H   H1116     1.0  0.64373  0.96533  0.54356  1.0000
  S   S376      1.0  0.51623  0.86861  0.54740  1.0000
  C   C1116     1.0  0.61850  0.81954  0.98104  1.0000
  C   C1117     1.0  0.59543  0.87538  0.95792  1.0000
  C   C1118     1.0  0.49810  0.75412  0.97375  1.0000
  S   S377      1.0  0.63218  0.76570  0.59029  1.0000
  C   C1119     1.0  0.59239  0.89066  0.94366  1.0000
  C   C1120     1.0  0.60139  0.75498  0.70291  1.0000
  H   H1117     1.0  0.64590  0.82492  0.96184  1.0000
  N   N93       1.0  0.48868  0.76411  0.98810  1.0000
  H   H1118     1.0  0.67007  0.97650  0.49977  1.0000
  H   H1119     1.0  0.50562  0.75849  0.94861  1.0000
  Fe  Fe190     1.0  0.60269  0.75194  0.60683  1.0000
  C   C1121     1.0  0.62496  0.83095  0.52820  1.0000
  H   H1120     1.0  0.59263  0.74662  0.79256  1.0000
  C   C1122     1.0  0.61894  0.76198  0.76855  1.0000
  H   H1121     1.0  0.51580  0.87424  0.95108  1.0000
  H   H1122     1.0  0.49787  0.75474  0.54280  1.0000
  H   H1123     1.0  0.53301  0.83574  0.55623  1.0000
  C   C1123     1.0  0.62002  0.76512  0.70358  1.0000
  C   C1124     1.0  0.62869  0.76878  0.73630  1.0000
  H   H1124     1.0  0.62773  0.77019  0.67891  1.0000
  H   H1125     1.0  0.64312  0.77664  0.73652  1.0000
  H   H1126     1.0  0.58452  0.84592  0.96509  1.0000
  C   C1125     1.0  0.63906  0.95273  0.52780  1.0000
  H   H1127     1.0  0.58786  0.87536  0.50290  1.0000
  H   H1128     1.0  0.55644  0.84239  0.93262  1.0000
  H   H1129     1.0  0.65775  0.85716  0.98119  1.0000
  C   C1126     1.0  0.59155  0.74859  0.73525  1.0000
  H   H1130     1.0  0.49410  0.85053  0.72953  1.0000
  C   C1127     1.0  0.56433  0.87144  0.92107  1.0000
  H   H1131     1.0  0.55954  0.90210  0.90681  1.0000
  Fe  Fe191     1.0  0.48843  0.84567  0.54731  1.0000
  C   C1128     1.0  0.54059  0.89002  0.97683  1.0000
  C   C1129     1.0  0.52646  0.87370  0.96808  1.0000
  C   C1130     1.0  0.57418  0.90479  0.91064  1.0000
  N   N94       1.0  0.60558  0.80086  0.81506  1.0000
  C   C1131     1.0  0.59623  0.80289  0.84476  1.0000
  C   C1132     1.0  0.62392  0.80483  0.81568  1.0000
  C   C1133     1.0  0.60525  0.80884  0.87627  1.0000
  C   C1134     1.0  0.63330  0.81051  0.84688  1.0000
  C   C1135     1.0  0.62387  0.81251  0.87732  1.0000
  C   C1136     1.0  0.59562  0.79397  0.78286  1.0000
  H   H1132     1.0  0.58164  0.79947  0.84447  1.0000
  H   H1133     1.0  0.63135  0.80297  0.79237  1.0000
  H   H1134     1.0  0.59777  0.80991  0.90020  1.0000
  H   H1135     1.0  0.64770  0.81286  0.84762  1.0000
  H   H1136     1.0  0.63087  0.81649  0.90194  1.0000
  H   H1137     1.0  0.58547  0.77993  0.78832  1.0000
  H   H1138     1.0  0.58853  0.80315  0.77382  1.0000
  H   H1139     1.0  0.60477  0.79304  0.76061  1.0000
  C   C1137     1.0  0.58253  0.85788  0.95366  1.0000
  C   C1138     1.0  0.63682  0.83055  0.97489  1.0000
  C   C1139     1.0  0.56687  0.85586  0.93514  1.0000
  S   S378      1.0  0.48608  0.81992  0.57833  1.0000
  C   C1140     1.0  0.53859  0.83840  0.52915  1.0000
  C   C1141     1.0  0.62480  0.84895  0.52432  1.0000
  S   S379      1.0  0.50948  0.83560  0.96970  1.0000
  C   C1142     1.0  0.66814  0.92652  0.49878  1.0000
  C   C1143     1.0  0.55674  0.84971  0.52222  1.0000
  H   H1140     1.0  0.62031  0.85493  0.54657  1.0000
  C   C1144     1.0  0.66960  0.96244  0.50022  1.0000
  S   S380      1.0  0.62095  0.74931  0.51229  1.0000
  C   C1145     1.0  0.52742  0.83125  0.50087  1.0000
  H   H1141     1.0  0.62976  0.94138  0.54520  1.0000
  H   H1142     1.0  0.57894  0.91638  0.92902  1.0000
  C   C1146     1.0  0.53042  0.87746  0.50891  1.0000
  H   H1143     1.0  0.56523  0.85546  0.54436  1.0000
  H   H1144     1.0  0.55362  0.89227  0.53931  1.0000
  H   H1145     1.0  0.64163  0.91954  0.52337  1.0000
  C   C1147     1.0  0.63154  0.82325  0.50036  1.0000
  N   N95       1.0  0.57692  0.88857  0.92577  1.0000
  C   C1148     1.0  0.48936  0.78121  0.97015  1.0000
  H   H1146     1.0  0.60223  0.90426  0.94782  1.0000
  C   C1149     1.0  0.60030  0.75189  0.76792  1.0000
  N   N96       1.0  0.65459  0.94851  0.51404  1.0000
  H   H1147     1.0  0.60759  0.87717  0.97258  1.0000
  C   C1150     1.0  0.54866  0.88877  0.51293  1.0000
  S   S381      1.0  0.48619  0.81300  0.88706  1.0000
  H   H1148     1.0  0.51322  0.82277  0.50593  1.0000
  H   H1149     1.0  0.66435  0.74526  0.71428  1.0000
  H   H1150     1.0  0.49096  0.78061  0.94083  1.0000
  C   C1151     1.0  0.52620  0.85674  0.98132  1.0000
  S   S382      1.0  0.58983  0.74974  0.66256  1.0000
  S   S383      1.0  0.63376  0.80125  0.50444  1.0000
  H   H1151     1.0  0.50077  0.79307  0.97983  1.0000
  Fe  Fe192     1.0  0.48501  0.82961  0.93418  1.0000
  S   S384      1.0  0.60390  0.74396  0.96355  1.0000
  C   C1152     1.0  0.64354  0.84889  0.98606  1.0000
  H   H1152     1.0  0.66722  0.91233  0.49784  1.0000
