data_image0
_chemical_formula_structural       FeSH2SHFeHFeS2FeS2FeSFeS3FeS2H4NHCHSHFeS2FeS2FeSFeS3FeS2FeSCFe2SHSFeCS2HFeNFeS3CHC6H2CHC6H4C8H4C6H6C6H4C6H4C2H4C6H4C6H4CNC6H10C2HNC6H9C4H4SHC2SH2CHSH2SNFeHCFeCS2H2C2HCHC2HCNC3H3C3FeSCHCH3CHSNCSHFeH2CSCHCHC2HCHSCHC2H4CSC4HC2HNCH2CH2CSHSHCH2FeH2NHC2HC2H3CHC3SHSCH2CH2CHCHC2HCH2SHC3H2CNH4NHCFeHCH2C3HC3HCFeSHFeS2FeHFeS4HSHFeSHFeSFeSHSH5C6H5C2HC8H4CHCFeHCSCHCH2NCH2C5H3C2HCNH2SCH2C7HFeS2FeS2FeSFeHS2FeS2FeS2FeSFeS3C2H2CFeS2FeSCFeSFeS3CSFeS2FeS2FeSFeS3H3C3HCH2CNH2NC7H3SH3C2HSC6H4C6H6C2HC4HC8H4C6HCH2CH2C6H4C6H4C4NC6H8CH3CH2CHCH3CHC2HC2HC2HC4NCNCHCH5NH5NC4H4SHCHNC2N2H5CHCS2CHC2HCH2CHCSCHCHCHCH2CH3CH3CH3NH2CNHC3H2SC2HCHC3HCH3NC3H2CH2CHC2NH3C3SCH2CH4C2H2C2H5FeS2FeS2FeSFeS3FeS2FeS2FeHFeS3FeS2FeSHFeSFeS3FeS2FeS2FeSFeS3CNC4HC2H2C2HC2HC2H2CHSHC3HC2HC7H4C2HNCH2C6H8C2HC7H6CH2C2NHC7H5CHC3H4C5HCH3NCH2CH5C3NC2H4C2HC3H5CHCH4CHC5H4C3H2C2NH2C4HNH2CHCNHCH2CHCH4CHSCH3CHCH2C3HSHFeS2FeS2FeSFeHS2FeSCFeSHFe2S2HFeS2FeS2FeSFeS3C2HSHS2FeS2H2C2H3NFeS2FeS2FeSFeS3C7H3C6H4CHC10H4C6H4C6H4C6H4SNC7H4C2HC4H3SHC2H6CSH2CH2FeH2CFeHSH2Fe2H2C3HNCHCSH3C4HCH4C2HCHCHC4H5CH3CHNCH3SHC2H3C2HCHCSHCHCNSH3SHC6HC2HCHSHC2HFeCHFeHNC2NC6H2C2NH3C2HCSHN2SH3C2H3CSHC4H2SFeCHNC2HSH3CNCHCH2C2H4C4HFeS2NH3FeSHSFeS2FeS2FeSFeS3FeS2FeS2FeSFeS2FeSHFeS2FeSFeS3FeSFeS2FeS3FeS3FeS3CSFeCSHCFeSHSC7H4C2H2C6H2C6H4C6H5CHSC6H4C6H5C6H4C6H4C9H5C3H2C6H5CHSHSH2CH2C2H5NC4HCHCNC6H8NCHCHCH6C4HFeCNC6H8NC6H8C2HCH3CH4SCNC3H5SHC2H2CFeC3H2CH4SH2CH2NSC2HNCHS2H3SHSC2NC2SH2FeCHSFe2CHCHC2HC2FeC2H2CH5CH3SHNC2H3C3SCNFeCFeCHCHCHCH2C2FeC3FeNH2SHC2H7SCH2CFe2NHFeC2FeS2FeSH2CHFeHFeS2CHSHS2CHCHC4FeH2CSC6SHS2HC2H2CHC4SH3SH2C2H2NCHCH6C2H2CSCHCH2C3NFe2SFe2SHSC2SHFeHFeC2HSCHSC2HCHC2H4SFeSCH4CSCS2H3C2NH4SCHNH2CH4CHC2FeS2FeS2FeSFe2S2FeS2FeS2FeSFeS3HNSH2CNFeS2FeS2FeSFeS3HFeS2FeS2FeSFeS3CHSHC3SHC8H2NC2NCH3C6H4C6H3C5HCH2CHSH2C2HC4H3C6H4C6HCH2C6H4C2HCNC6H9CH2SH2CH2C2HCHCH2CHC2HCH3CHCHCNC5H3NC5H3NH2CH2NC2H5CSCHC2H3C3NCHCHC2HC2NCH5CH2C2NH6C2H4C2H2CHCH2CSC2HCSCH4CH2CH4SC3HCHCH2CHC2HCH6C3SFeSFeS2Fe2SHSCFeS2H2FeS3CHSFeS2FeS2FeSFeS3CSFe2S2FeSFeSHFeS2FeS2FeSFeS3CSC6H4C6H5C6H5C7H4C7H3C6H4SH2FeHC6H4SH4C2FeCHCHCH2C4H3FeC2H2NCH5CHCFeCSNC6H8CHNHNCHCNFeH2SCHNC6H4SH4C2NCHCHC3SC2FeH3CH3C2HC3H4CH3CHSNC2HC3H2NHCHC2SCHC2HNCHCHSHC2HC4HCH2CHCHC2H4NSHCSFeCHCH2CH2CSH2CH3C3NHCHC2HNC2HC2H3C3H2SH2C4H2C2NHSC3HCHCHSH4C2H7FeS2FeS2FeS3FeSFeS3FeHSFeS2HFeS4FeS2FeS2FeSFeHS2FeHSC2FeSCSFeS2FeS2FeSFeS3FeS2FeCFeS2C6H4CHC2NH2C2H2C7H4C6H5C2SHCHC5H3C6H4C5H3C6H4C6H4C6H4SH3C6H4NH2C3SCH2C2NHNC6H8NC6H8NC6HCH2CFeCH2SCSHCHC2HCHCSCNC6H8NC6H10NC6H9CHC2NFeC2H2SCNHCS2CFeCHNHFe3HNHCH2C2HCH2CHC2H2CHSHC2HC2SH2C2SC4HCHCHCSFeH2SCHFeHCFeH2C2HS2H2C3HCH6SCNSFeCHNCH3CH2C2H4FeHC2H2C3SCFeS2FeS2CHFeHS2CH2FeS2FeS2FeHFeS3HC4HC4HNH2C2H2S2HCSC2H2C7H6C2HCH4CH2C3H3C3NHCHC2H2CHCFeCHC2NCH3C2H6C4H2CHFeS2FeS2FeSFeS3FeS2FeS2FeSFeS3FeS2FeS2FeSFeS2FeS2FeS2FeSFeHS2C2HCH2CHCHCH2C6H4C2NC2H3C6H4C5H2C6H4C6H6CNC6H3SH2CN2C6H9CHNH3CHCHCH4CHSC5SCH2CHNC6H9CHC3HC2HCHC5HC2H2C3SC2H3C2HSH2CNCNC2H3C2HCHCH5CHCNCH5CHCH2CHCH2C3H3C2H2CH3FeSFeS2CHFeS2FeSHSFeSHFeSC3FeSCSFeS2FeS2FeSFeS3CNFeS2FeS2FeSFeS3Fe2S2HSHCFeSHSC6H4C6HCH2C6H4C6HCH3C4H2FeHC7H7C6H4S3H3C4H2SHSCSC7H5CH2CHC2HC4H2NH2CH3CNC6H2FeCH4NC6H8NC6H8NC6H10NCH2CHSCH3CHNC6H8SHFeCSFeHCHC2S2C2H2FeH2CHCSCH2CHCHCHNHSH4CHC2HNFeH2SC2HC2
_chemical_formula_sum              "Fe256 S512 H1536 N128 C1536"
_cell_length_a       88.8103
_cell_length_b       88.6507
_cell_length_c       38.7904
_cell_angle_alpha    77.9705
_cell_angle_beta     77.9323
_cell_angle_gamma    77.6195

_space_group_name_H-M_alt    "P 1"
_space_group_IT_number       1

loop_
  _space_group_symop_operation_xyz
  'x, y, z'

loop_
  _atom_site_type_symbol
  _atom_site_label
  _atom_site_symmetry_multiplicity
  _atom_site_fract_x
  _atom_site_fract_y
  _atom_site_fract_z
  _atom_site_occupancy
  Fe  Fe1       1.0  0.19677  0.03213  0.21114  1.0000
  S   S1        1.0  0.17694  0.03920  0.25429  1.0000
  H   H1        1.0  0.23501  0.06034  0.89147  1.0000
  H   H2        1.0  0.16345  0.04488  0.12289  1.0000
  S   S2        1.0  0.00991  0.10400  0.21951  1.0000
  H   H3        1.0  0.18200  0.09519  0.09090  1.0000
  Fe  Fe2       1.0  0.22257  0.01732  0.82664  1.0000
  H   H4        1.0  0.06953  0.14238  0.32187  1.0000
  Fe  Fe3       1.0  0.11157  0.10888  0.20884  1.0000
  S   S3        1.0  0.13138  0.12212  0.19308  1.0000
  S   S4        1.0  0.11363  0.08279  0.22410  1.0000
  Fe  Fe4       1.0  0.08669  0.13801  0.19649  1.0000
  S   S5        1.0  0.10460  0.15401  0.18010  1.0000
  S   S6        1.0  0.06116  0.14768  0.19251  1.0000
  Fe  Fe5       1.0  0.11844  0.13532  0.14874  1.0000
  S   S7        1.0  0.13030  0.13752  0.09110  1.0000
  Fe  Fe6       1.0  0.11602  0.13954  0.22627  1.0000
  S   S8        1.0  0.12520  0.14524  0.27236  1.0000
  S   S9        1.0  0.09987  0.12056  0.16207  1.0000
  S   S10       1.0  0.09678  0.12509  0.24511  1.0000
  Fe  Fe7       1.0  0.19395  0.03300  0.87310  1.0000
  S   S11       1.0  0.18215  0.05825  0.87292  1.0000
  S   S12       1.0  0.19231  0.01135  0.91484  1.0000
  H   H5        1.0  0.15590  0.11256  0.09408  1.0000
  H   H6        1.0  0.11786  0.16458  0.89139  1.0000
  H   H7        1.0  0.05746  0.11842  0.78860  1.0000
  H   H8        1.0  0.09295  0.17625  0.97395  1.0000
  N   N1        1.0  0.06535  0.09672  0.82106  1.0000
  H   H9        1.0  0.08113  0.07109  0.88740  1.0000
  C   C1        1.0  0.18413  0.00474  0.06879  1.0000
  H   H10       1.0  0.16460  0.21624  0.62637  1.0000
  S   S13       1.0  0.00535  0.09538  0.87225  1.0000
  H   H11       1.0  0.05160  0.13859  0.27481  1.0000
  Fe  Fe8       1.0  0.10173  0.10852  0.89244  1.0000
  S   S14       1.0  0.11407  0.12430  0.91047  1.0000
  S   S15       1.0  0.10874  0.08233  0.89523  1.0000
  Fe  Fe9       1.0  0.07627  0.13505  0.86831  1.0000
  S   S16       1.0  0.08687  0.15334  0.88289  1.0000
  S   S17       1.0  0.05400  0.14140  0.84421  1.0000
  Fe  Fe10      1.0  0.11014  0.14055  0.85884  1.0000
  S   S18       1.0  0.13232  0.14912  0.82771  1.0000
  Fe  Fe11      1.0  0.09008  0.13584  0.93313  1.0000
  S   S19       1.0  0.08246  0.14444  0.98617  1.0000
  S   S20       1.0  0.09934  0.12383  0.83939  1.0000
  S   S21       1.0  0.07792  0.11853  0.92004  1.0000
  Fe  Fe12      1.0  0.16960  0.20378  0.33717  1.0000
  S   S22       1.0  0.19545  0.19533  0.32317  1.0000
  S   S23       1.0  0.15550  0.20106  0.29600  1.0000
  Fe  Fe13      1.0  0.17407  0.21578  0.40328  1.0000
  S   S24       1.0  0.19998  0.20788  0.39302  1.0000
  C   C2        1.0  0.21164  0.07852  0.81043  1.0000
  Fe  Fe14      1.0  0.19884  0.21791  0.33534  1.0000
  Fe  Fe15      1.0  0.19425  0.18631  0.38181  1.0000
  S   S25       1.0  0.19524  0.01681  0.17321  1.0000
  H   H12       1.0  0.19095  0.14784  0.35551  1.0000
  S   S26       1.0  0.16820  0.19325  0.39573  1.0000
  Fe  Fe16      1.0  0.17189  0.21692  0.71547  1.0000
  C   C3        1.0  0.22956  0.16761  0.71350  1.0000
  S   S27       1.0  0.14679  0.21531  0.74155  1.0000
  S   S28       1.0  0.21974  0.01853  0.22527  1.0000
  H   H13       1.0  0.04042  0.15729  0.26012  1.0000
  Fe  Fe17      1.0  0.20580  0.20168  0.71359  1.0000
  N   N2        1.0  0.11556  0.16817  0.94518  1.0000
  Fe  Fe18      1.0  0.19407  0.21640  0.64352  1.0000
  S   S29       1.0  0.19840  0.20979  0.58788  1.0000
  S   S30       1.0  0.19030  0.21961  0.74447  1.0000
  S   S31       1.0  0.18687  0.19750  0.68874  1.0000
  C   C4        1.0  0.06524  0.16971  0.24858  1.0000
  H   H14       1.0  0.14355  0.15563  0.99716  1.0000
  C   C5        1.0  0.17304  0.22237  0.49053  1.0000
  C   C6        1.0  0.18541  0.20967  0.49349  1.0000
  C   C7        1.0  0.19280  0.20593  0.52373  1.0000
  C   C8        1.0  0.18789  0.21473  0.55160  1.0000
  C   C9        1.0  0.18928  0.17972  0.24570  1.0000
  C   C10       1.0  0.19827  0.98970  0.02322  1.0000
  H   H15       1.0  0.18939  0.20276  0.47233  1.0000
  H   H16       1.0  0.20247  0.19618  0.52539  1.0000
  C   C11       1.0  0.07195  0.15198  0.30034  1.0000
  H   H17       1.0  0.14622  0.21477  0.61540  1.0000
  C   C12       1.0  0.13582  0.16794  0.80558  1.0000
  C   C13       1.0  0.15135  0.16981  0.79151  1.0000
  C   C14       1.0  0.15484  0.18435  0.77262  1.0000
  C   C15       1.0  0.14279  0.19720  0.76746  1.0000
  C   C16       1.0  0.12724  0.19540  0.78179  1.0000
  C   C17       1.0  0.12374  0.18082  0.80089  1.0000
  H   H18       1.0  0.16076  0.15991  0.79500  1.0000
  H   H19       1.0  0.16686  0.18556  0.76177  1.0000
  H   H20       1.0  0.11784  0.20528  0.77780  1.0000
  H   H21       1.0  0.11172  0.17951  0.81142  1.0000
  C   C18       1.0  0.12343  0.16266  0.91471  1.0000
  C   C19       1.0  0.07574  0.08968  0.84370  1.0000
  C   C20       1.0  0.03943  0.12948  0.85582  1.0000
  C   C21       1.0  0.04075  0.11578  0.88133  1.0000
  C   C22       1.0  0.02967  0.10586  0.88759  1.0000
  C   C23       1.0  0.01719  0.10953  0.86844  1.0000
  C   C24       1.0  0.01550  0.12354  0.84400  1.0000
  C   C25       1.0  0.02659  0.13347  0.83773  1.0000
  H   H22       1.0  0.05053  0.11256  0.89550  1.0000
  H   H23       1.0  0.03106  0.09504  0.90658  1.0000
  H   H24       1.0  0.23147  0.16111  0.62907  1.0000
  H   H25       1.0  0.02550  0.14405  0.81790  1.0000
  C   C26       1.0  0.16169  0.06443  0.87868  1.0000
  C   C27       1.0  0.15135  0.05380  0.88654  1.0000
  C   C28       1.0  0.13507  0.05935  0.89150  1.0000
  C   C29       1.0  0.12913  0.07550  0.88850  1.0000
  C   C30       1.0  0.13952  0.08606  0.88021  1.0000
  C   C31       1.0  0.15572  0.08054  0.87546  1.0000
  H   H26       1.0  0.15587  0.04135  0.88907  1.0000
  H   H27       1.0  0.12709  0.05112  0.89786  1.0000
  H   H28       1.0  0.13510  0.09852  0.87738  1.0000
  H   H29       1.0  0.16365  0.08882  0.86927  1.0000
  H   H30       1.0  0.13429  0.07289  0.14551  1.0000
  H   H31       1.0  0.09293  0.17218  0.93111  1.0000
  C   C32       1.0  0.14709  0.18538  0.29016  1.0000
  C   C33       1.0  0.14199  0.18624  0.25763  1.0000
  C   C34       1.0  0.13544  0.17406  0.25144  1.0000
  C   C35       1.0  0.13378  0.16085  0.27793  1.0000
  C   C36       1.0  0.13882  0.16000  0.31050  1.0000
  C   C37       1.0  0.14546  0.17214  0.31659  1.0000
  H   H32       1.0  0.14313  0.19644  0.23700  1.0000
  H   H33       1.0  0.13163  0.17495  0.22626  1.0000
  H   H34       1.0  0.13750  0.14992  0.33135  1.0000
  H   H35       1.0  0.14907  0.17136  0.34197  1.0000
  C   C38       1.0  0.11684  0.13849  0.06293  1.0000
  C   C39       1.0  0.10153  0.14659  0.07053  1.0000
  C   C40       1.0  0.09112  0.14824  0.04679  1.0000
  C   C41       1.0  0.09579  0.14148  0.01576  1.0000
  C   C42       1.0  0.11098  0.13298  0.00863  1.0000
  C   C43       1.0  0.12153  0.13159  0.03208  1.0000
  H   H36       1.0  0.09784  0.15196  0.09427  1.0000
  H   H37       1.0  0.07943  0.15492  0.05239  1.0000
  H   H38       1.0  0.11466  0.12764  0.98491  1.0000
  H   H39       1.0  0.13332  0.12519  0.02624  1.0000
  C   C44       1.0  0.14481  0.07770  0.13338  1.0000
  C   C45       1.0  0.06853  0.11050  0.79427  1.0000
  H   H40       1.0  0.17037  0.04739  0.16150  1.0000
  H   H41       1.0  0.14989  0.04841  0.16365  1.0000
  H   H42       1.0  0.18389  0.06693  0.11522  1.0000
  H   H43       1.0  0.18809  0.19117  0.25441  1.0000
  C   C46       1.0  0.02379  0.11652  0.21251  1.0000
  C   C47       1.0  0.02093  0.13211  0.19524  1.0000
  C   C48       1.0  0.03250  0.14149  0.18918  1.0000
  C   C49       1.0  0.04711  0.13534  0.19976  1.0000
  C   C50       1.0  0.05004  0.11973  0.21677  1.0000
  C   C51       1.0  0.03838  0.11041  0.22332  1.0000
  H   H44       1.0  0.00976  0.13698  0.18683  1.0000
  H   H45       1.0  0.03010  0.15359  0.17616  1.0000
  H   H46       1.0  0.06121  0.11485  0.22520  1.0000
  H   H47       1.0  0.04072  0.09835  0.23662  1.0000
  C   C52       1.0  0.16019  0.05080  0.23928  1.0000
  C   C53       1.0  0.14613  0.04512  0.24952  1.0000
  C   C54       1.0  0.13206  0.05494  0.24312  1.0000
  C   C55       1.0  0.13186  0.07067  0.22749  1.0000
  C   C56       1.0  0.14597  0.07638  0.21651  1.0000
  C   C57       1.0  0.16019  0.06636  0.22200  1.0000
  H   H48       1.0  0.14606  0.03316  0.26327  1.0000
  H   H49       1.0  0.12120  0.05048  0.25165  1.0000
  H   H50       1.0  0.14589  0.08852  0.20443  1.0000
  H   H51       1.0  0.17104  0.07085  0.21448  1.0000
  C   C58       1.0  0.13809  0.15773  0.97360  1.0000
  N   N3        1.0  0.03422  0.11651  0.10870  1.0000
  C   C59       1.0  0.03994  0.12667  0.07965  1.0000
  C   C60       1.0  0.04348  0.10874  0.13329  1.0000
  C   C61       1.0  0.05512  0.12969  0.07534  1.0000
  C   C62       1.0  0.05864  0.11164  0.13009  1.0000
  C   C63       1.0  0.06445  0.12223  0.10098  1.0000
  C   C64       1.0  0.01835  0.11338  0.11253  1.0000
  H   H52       1.0  0.03274  0.13255  0.05967  1.0000
  H   H53       1.0  0.03906  0.10041  0.15592  1.0000
  H   H54       1.0  0.05963  0.13774  0.05223  1.0000
  H   H55       1.0  0.06576  0.10582  0.15028  1.0000
  H   H56       1.0  0.07617  0.12463  0.09825  1.0000
  H   H57       1.0  0.01843  0.10403  0.09736  1.0000
  H   H58       1.0  0.01338  0.10965  0.14109  1.0000
  H   H59       1.0  0.01029  0.12409  0.10243  1.0000
  H   H60       1.0  0.04096  0.15097  0.30706  1.0000
  H   H61       1.0  0.18802  0.99621  0.78812  1.0000
  C   C65       1.0  0.12277  0.16603  0.97420  1.0000
  C   C66       1.0  0.09958  0.17707  0.94611  1.0000
  H   H62       1.0  0.09984  0.18955  0.93422  1.0000
  N   N4        1.0  0.16149  0.07682  0.29910  1.0000
  C   C67       1.0  0.15866  0.09261  0.28669  1.0000
  C   C68       1.0  0.14941  0.06860  0.30924  1.0000
  C   C69       1.0  0.14340  0.10060  0.28431  1.0000
  C   C70       1.0  0.13402  0.07623  0.30720  1.0000
  C   C71       1.0  0.13104  0.09232  0.29448  1.0000
  C   C72       1.0  0.17768  0.06869  0.29985  1.0000
  H   H63       1.0  0.16824  0.09908  0.27814  1.0000
  H   H64       1.0  0.15170  0.05598  0.31770  1.0000
  H   H65       1.0  0.14120  0.11311  0.27415  1.0000
  H   H66       1.0  0.12454  0.06961  0.31397  1.0000
  H   H67       1.0  0.11921  0.09827  0.29171  1.0000
  H   H68       1.0  0.18409  0.06834  0.27207  1.0000
  H   H69       1.0  0.18376  0.07469  0.31380  1.0000
  H   H70       1.0  0.17826  0.05632  0.31384  1.0000
  H   H71       1.0  0.01215  0.13538  0.92376  1.0000
  C   C73       1.0  0.08554  0.15812  0.29719  1.0000
  C   C74       1.0  0.05231  0.09059  0.82232  1.0000
  C   C75       1.0  0.04914  0.07735  0.84748  1.0000
  C   C76       1.0  0.05951  0.07030  0.87114  1.0000
  H   H72       1.0  0.04397  0.09624  0.80468  1.0000
  H   H73       1.0  0.03843  0.07295  0.84928  1.0000
  H   H74       1.0  0.05708  0.06017  0.89112  1.0000
  H   H75       1.0  0.07546  0.10681  0.76915  1.0000
  S   S32       1.0  0.17302  0.22738  0.34566  1.0000
  H   H76       1.0  0.11653  0.17031  0.99848  1.0000
  C   C77       1.0  0.16073  0.05141  0.14564  1.0000
  C   C78       1.0  0.07293  0.07645  0.86919  1.0000
  S   S33       1.0  0.22008  0.22832  0.30470  1.0000
  H   H77       1.0  0.14704  0.21991  0.65784  1.0000
  H   H78       1.0  0.07507  0.11762  0.80417  1.0000
  C   C79       1.0  0.22010  0.14829  0.28317  1.0000
  H   H79       1.0  0.22385  0.98909  0.79058  1.0000
  S   S34       1.0  0.20647  0.16270  0.40494  1.0000
  H   H80       1.0  0.08145  0.18527  0.22220  1.0000
  H   H81       1.0  0.08623  0.09434  0.84246  1.0000
  S   S35       1.0  0.20706  0.05012  0.16873  1.0000
  N   N5        1.0  0.06199  0.15782  0.27625  1.0000
  Fe  Fe19      1.0  0.20785  0.03351  0.13156  1.0000
  H   H82       1.0  0.05755  0.17412  0.22894  1.0000
  C   C80       1.0  0.04804  0.15086  0.27986  1.0000
  Fe  Fe20      1.0  0.19764  0.99810  0.86863  1.0000
  C   C81       1.0  0.15683  0.10013  0.10468  1.0000
  S   S36       1.0  0.19674  0.02022  0.82741  1.0000
  S   S37       1.0  0.21453  0.21894  0.66672  1.0000
  H   H83       1.0  0.22445  0.01522  0.07522  1.0000
  H   H84       1.0  0.20063  0.98812  0.99545  1.0000
  C   C82       1.0  0.14339  0.09378  0.11993  1.0000
  C   C83       1.0  0.17147  0.09041  0.10298  1.0000
  H   H85       1.0  0.13195  0.10130  0.12133  1.0000
  C   C84       1.0  0.14761  0.17471  0.69869  1.0000
  H   H86       1.0  0.19153  0.99723  0.12008  1.0000
  C   C85       1.0  0.14606  0.15172  0.94296  1.0000
  C   C86       1.0  0.19319  0.99506  0.09295  1.0000
  H   H87       1.0  0.00434  0.13048  0.97039  1.0000
  C   C87       1.0  0.13874  0.15427  0.91324  1.0000
  N   N6        1.0  0.15926  0.06828  0.13201  1.0000
  C   C88       1.0  0.17247  0.07442  0.11680  1.0000
  C   C89       1.0  0.23362  0.15902  0.65626  1.0000
  C   C90       1.0  0.19689  0.15090  0.32823  1.0000
  H   H88       1.0  0.19387  0.04522  0.00694  1.0000
  H   H89       1.0  0.15785  0.14503  0.94226  1.0000
  H   H90       1.0  0.16203  0.15200  0.69580  1.0000
  C   C91       1.0  0.22224  0.01385  0.98933  1.0000
  C   C92       1.0  0.16798  0.23110  0.51860  1.0000
  C   C93       1.0  0.07876  0.17606  0.24456  1.0000
  Fe  Fe21      1.0  0.21837  0.00855  0.90805  1.0000
  S   S38       1.0  0.21977  0.03116  0.87017  1.0000
  C   C94       1.0  0.18952  0.16269  0.30403  1.0000
  H   H91       1.0  0.14483  0.14967  0.88921  1.0000
  C   C95       1.0  0.22753  0.00996  0.02220  1.0000
  H   H92       1.0  0.99471  0.14640  0.88049  1.0000
  H   H93       1.0  0.21257  0.06572  0.86349  1.0000
  H   H94       1.0  0.00241  0.11867  0.93928  1.0000
  C   C96       1.0  0.22054  0.01859  0.04976  1.0000
  H   H95       1.0  0.19567  0.18054  0.21772  1.0000
  S   S39       1.0  0.22376  0.99404  0.86419  1.0000
  N   N7        1.0  0.15535  0.19582  0.65300  1.0000
  C   C97       1.0  0.20836  0.03130  0.04445  1.0000
  S   S40       1.0  0.22200  0.18196  0.74056  1.0000
  H   H96       1.0  0.17554  0.01462  0.07694  1.0000
  Fe  Fe22      1.0  0.21920  0.00464  0.18300  1.0000
  H   H97       1.0  0.09360  0.15332  0.31592  1.0000
  H   H98       1.0  0.99121  0.10460  0.00404  1.0000
  C   C98       1.0  0.21019  0.02668  0.98378  1.0000
  S   S41       1.0  0.23658  0.02394  0.77143  1.0000
  C   C99       1.0  0.22456  0.15753  0.37821  1.0000
  H   H99       1.0  0.22385  0.17990  0.34326  1.0000
  C   C100      1.0  0.14540  0.19055  0.68298  1.0000
  H   H100      1.0  0.21907  0.18069  0.66837  1.0000
  C   C101      1.0  0.16001  0.16424  0.68336  1.0000
  C   C102      1.0  0.16981  0.16964  0.65215  1.0000
  H   H101      1.0  0.18000  0.00978  0.01436  1.0000
  C   C103      1.0  0.21896  0.99160  0.76547  1.0000
  H   H102      1.0  0.20602  0.02978  0.95849  1.0000
  S   S42       1.0  0.23188  0.02065  0.13898  1.0000
  C   C104      1.0  0.22018  0.08529  0.77870  1.0000
  H   H103      1.0  0.17495  0.18970  0.61292  1.0000
  C   C105      1.0  0.21244  0.16027  0.25979  1.0000
  C   C106      1.0  0.22656  0.17009  0.67856  1.0000
  H   H104      1.0  0.22880  0.99055  0.74260  1.0000
  H   H105      1.0  0.23687  0.00009  0.02664  1.0000
  H   H106      1.0  0.17733  0.17772  0.24576  1.0000
  H   H107      1.0  0.17776  0.16866  0.31279  1.0000
  C   C107      1.0  0.22997  0.16798  0.34814  1.0000
  S   S43       1.0  0.19880  0.04173  0.07935  1.0000
  C   C108      1.0  0.16719  0.18554  0.63700  1.0000
  C   C109      1.0  0.00227  0.13082  0.94291  1.0000
  C   C110      1.0  0.15311  0.21251  0.63733  1.0000
  C   C111      1.0  0.20329  0.03541  0.01127  1.0000
  H   H108      1.0  0.17953  0.16164  0.63999  1.0000
  C   C112      1.0  0.17536  0.22732  0.54901  1.0000
  C   C113      1.0  0.18661  0.00202  0.03373  1.0000
  H   H109      1.0  0.13591  0.19867  0.69550  1.0000
  N   N8        1.0  0.19724  0.16711  0.27018  1.0000
  C   C114      1.0  0.21218  0.14352  0.31746  1.0000
  H   H110      1.0  0.21880  0.16412  0.23346  1.0000
  H   H111      1.0  0.21289  0.00404  0.76171  1.0000
  C   C115      1.0  0.08895  0.17021  0.26906  1.0000
  H   H112      1.0  0.13995  0.17068  0.72309  1.0000
  H   H113      1.0  0.09964  0.17482  0.26600  1.0000
  C   C116      1.0  0.23305  0.14236  0.38537  1.0000
  S   S44       1.0  0.16441  0.22827  0.45127  1.0000
  H   H114      1.0  0.22894  0.13427  0.40873  1.0000
  S   S45       1.0  0.22999  0.00175  0.95678  1.0000
  H   H115      1.0  0.21808  0.13445  0.33606  1.0000
  C   C117      1.0  0.21933  0.07100  0.83903  1.0000
  H   H116      1.0  0.00606  0.12639  0.82875  1.0000
  H   H117      1.0  0.19915  0.07889  0.81293  1.0000
  Fe  Fe23      1.0  0.23014  0.03574  0.18036  1.0000
  H   H118      1.0  0.21437  0.09105  0.75622  1.0000
  H   H119      1.0  0.17161  0.23440  0.56987  1.0000
  N   N9        1.0  0.23509  0.07020  0.83611  1.0000
  H   H120      1.0  0.23224  0.14300  0.27520  1.0000
  C   C118      1.0  0.22740  0.23089  0.42144  1.0000
  C   C119      1.0  0.22132  0.23131  0.45752  1.0000
  H   H121      1.0  0.22832  0.22555  0.47797  1.0000
  C   C120      1.0  0.23624  0.08452  0.77602  1.0000
  C   C121      1.0  0.23947  0.15397  0.72622  1.0000
  H   H122      1.0  0.21157  0.22764  0.84774  1.0000
  H   H123      1.0  0.19130  0.23402  0.80924  1.0000
  H   H124      1.0  0.23923  0.22488  0.41342  1.0000
  C   C122      1.0  0.19266  0.98496  0.77959  1.0000
  H   H125      1.0  0.22194  0.24919  0.86195  1.0000
  C   C123      1.0  0.21748  0.26163  0.72697  1.0000
  C   C124      1.0  0.21973  0.27658  0.72959  1.0000
  C   C125      1.0  0.19549  0.27064  0.81074  1.0000
  S   S46       1.0  0.20372  0.26003  0.70109  1.0000
  H   H126      1.0  0.23194  0.35673  0.86879  1.0000
  S   S47       1.0  0.22985  0.29614  0.21877  1.0000
  C   C126      1.0  0.19304  0.25233  0.37842  1.0000
  H   H127      1.0  0.22410  0.23684  0.74444  1.0000
  H   H128      1.0  0.18491  0.25151  0.44878  1.0000
  C   C127      1.0  0.22565  0.24841  0.74625  1.0000
  H   H129      1.0  0.23244  0.34494  0.91247  1.0000
  H   H130      1.0  0.23108  0.28990  0.75424  1.0000
  C   C128      1.0  0.21180  0.27459  0.25841  1.0000
  H   H131      1.0  0.23650  0.31015  0.27353  1.0000
  C   C129      1.0  0.20678  0.26738  0.83285  1.0000
  H   H132      1.0  0.23732  0.33559  0.87388  1.0000
  C   C130      1.0  0.22697  0.27732  0.24262  1.0000
  C   C131      1.0  0.21259  0.25184  0.84630  1.0000
  H   H133      1.0  0.19142  0.28273  0.79943  1.0000
  C   C132      1.0  0.17814  0.26243  0.77945  1.0000
  H   H134      1.0  0.20190  0.28401  0.25553  1.0000
  H   H135      1.0  0.18063  0.25104  0.38887  1.0000
  S   S48       1.0  0.17774  0.23588  0.66869  1.0000
  H   H136      1.0  0.19762  0.25760  0.28881  1.0000
  C   C133      1.0  0.23967  0.26504  0.24629  1.0000
  C   C134      1.0  0.20607  0.23906  0.46729  1.0000
  C   C135      1.0  0.20935  0.25964  0.27740  1.0000
  H   H137      1.0  0.16630  0.26447  0.79587  1.0000
  H   H138      1.0  0.23527  0.32827  0.21578  1.0000
  C   C136      1.0  0.22212  0.24736  0.28093  1.0000
  N   N10       1.0  0.19014  0.25874  0.80227  1.0000
  H   H139      1.0  0.21163  0.27677  0.83806  1.0000
  H   H140      1.0  0.17982  0.27297  0.75870  1.0000
  H   H141      1.0  0.21353  0.28688  0.71466  1.0000
  H   H142      1.0  0.19376  0.26495  0.37000  1.0000
  N   N11       1.0  0.20285  0.24512  0.40564  1.0000
  H   H143      1.0  0.15847  0.24100  0.51652  1.0000
  C   C137      1.0  0.22975  0.27833  0.75187  1.0000
  Fe  Fe24      1.0  0.19772  0.23687  0.69584  1.0000
  H   H144      1.0  0.19684  0.24653  0.35447  1.0000
  C   C138      1.0  0.19694  0.24593  0.44084  1.0000
  H   H145      1.0  0.17897  0.25277  0.76448  1.0000
  H   H146      1.0  0.23565  0.30951  0.00944  1.0000
  C   C139      1.0  0.21801  0.23809  0.39565  1.0000
  C   C140      1.0  0.19551  0.24346  0.81599  1.0000
  C   C141      1.0  0.23761  0.26510  0.77185  1.0000
  H   H147      1.0  0.20119  0.23936  0.49528  1.0000
  C   C142      1.0  0.23564  0.25016  0.76847  1.0000
  C   C143      1.0  0.20689  0.23977  0.83801  1.0000
  C   C144      1.0  0.23831  0.34611  0.88400  1.0000
  H   H148      1.0  0.22281  0.23768  0.36767  1.0000
  C   C145      1.0  0.23724  0.25019  0.26539  1.0000
  Fe  Fe25      1.0  0.16894  0.71746  0.30802  1.0000
  S   S49       1.0  0.18593  0.71674  0.25671  1.0000
  H   H149      1.0  0.12514  0.72242  0.77939  1.0000
  Fe  Fe26      1.0  0.19342  0.69959  0.35363  1.0000
  S   S50       1.0  0.21251  0.69776  0.30563  1.0000
  S   S51       1.0  0.20116  0.68810  0.40634  1.0000
  Fe  Fe27      1.0  0.20220  0.72273  0.28654  1.0000
  H   H150      1.0  0.21989  0.72393  0.33100  1.0000
  Fe  Fe28      1.0  0.19456  0.69180  0.28032  1.0000
  S   S52       1.0  0.19896  0.67247  0.24754  1.0000
  S   S53       1.0  0.18473  0.72516  0.33662  1.0000
  S   S54       1.0  0.17595  0.69186  0.32973  1.0000
  S   S55       1.0  0.16420  0.71121  0.55021  1.0000
  H   H151      1.0  0.15742  0.71818  0.47878  1.0000
  S   S56       1.0  0.19443  0.70383  0.68304  1.0000
  H   H152      1.0  0.19792  0.72730  0.46166  1.0000
  Fe  Fe29      1.0  0.17627  0.70631  0.59824  1.0000
  S   S57       1.0  0.17214  0.68802  0.64738  1.0000
  H   H153      1.0  0.20950  0.63200  0.69653  1.0000
  Fe  Fe30      1.0  0.16909  0.70774  0.67809  1.0000
  S   S58       1.0  0.15026  0.71047  0.72674  1.0000
  Fe  Fe31      1.0  0.19782  0.68585  0.64802  1.0000
  S   S59       1.0  0.17112  0.72617  0.62891  1.0000
  H   H154      1.0  0.18315  0.63817  0.34340  1.0000
  S   S60       1.0  0.20212  0.70255  0.59632  1.0000
  H   H155      1.0  0.20116  0.73189  0.69445  1.0000
  H   H156      1.0  0.18907  0.64388  0.29548  1.0000
  H   H157      1.0  0.23760  0.63174  0.19368  1.0000
  H   H158      1.0  0.21284  0.61400  0.67885  1.0000
  H   H159      1.0  0.22891  0.67476  0.26348  1.0000
  C   C146      1.0  0.21820  0.66247  0.23562  1.0000
  C   C147      1.0  0.20661  0.65583  0.35065  1.0000
  C   C148      1.0  0.21932  0.65708  0.75957  1.0000
  C   C149      1.0  0.21371  0.66248  0.72704  1.0000
  C   C150      1.0  0.15225  0.73176  0.81968  1.0000
  C   C151      1.0  0.12906  0.73232  0.76083  1.0000
  H   H160      1.0  0.22352  0.62969  0.65708  1.0000
  H   H161      1.0  0.18657  0.73125  0.52407  1.0000
  H   H162      1.0  0.20177  0.66857  0.72697  1.0000
  H   H163      1.0  0.22968  0.69065  0.65726  1.0000
  H   H164      1.0  0.15300  0.71747  0.24560  1.0000
  C   C152      1.0  0.22157  0.65579  0.35687  1.0000
  C   C153      1.0  0.22334  0.65932  0.69498  1.0000
  H   H165      1.0  0.19669  0.66330  0.36383  1.0000
  C   C154      1.0  0.18876  0.64675  0.32225  1.0000
  C   C155      1.0  0.22081  0.65045  0.21541  1.0000
  C   C156      1.0  0.19100  0.69508  0.44576  1.0000
  C   C157      1.0  0.19726  0.68985  0.47744  1.0000
  C   C158      1.0  0.18923  0.69486  0.50954  1.0000
  C   C159      1.0  0.17477  0.70497  0.51022  1.0000
  C   C160      1.0  0.16859  0.71034  0.47847  1.0000
  C   C161      1.0  0.17672  0.70549  0.44626  1.0000
  H   H166      1.0  0.20829  0.68179  0.47724  1.0000
  H   H167      1.0  0.19407  0.69061  0.53385  1.0000
  H   H168      1.0  0.21616  0.62093  0.75414  1.0000
  H   H169      1.0  0.17178  0.70956  0.42200  1.0000
  C   C162      1.0  0.23219  0.63667  0.31801  1.0000
  H   H170      1.0  0.21551  0.63008  0.29379  1.0000
  C   C163      1.0  0.21708  0.63712  0.31210  1.0000
  Fe  Fe32      1.0  0.19663  0.72071  0.63141  1.0000
  H   H171      1.0  0.21168  0.65911  0.78447  1.0000
  C   C164      1.0  0.23636  0.69667  0.70232  1.0000
  S   S61       1.0  0.21608  0.66399  0.65451  1.0000
  C   C165      1.0  0.16435  0.72992  0.79043  1.0000
  H   H172      1.0  0.14123  0.72297  0.19058  1.0000
  C   C166      1.0  0.22498  0.73428  0.32741  1.0000
  H   H173      1.0  0.18141  0.65859  0.32234  1.0000
  H   H174      1.0  0.21117  0.64806  0.20558  1.0000
  N   N12       1.0  0.20455  0.64675  0.32804  1.0000
  C   C167      1.0  0.23074  0.66554  0.24802  1.0000
  H   H175      1.0  0.22313  0.66327  0.37428  1.0000
  H   H176      1.0  0.23657  0.60855  0.79095  1.0000
  C   C168      1.0  0.14305  0.72681  0.24259  1.0000
  C   C169      1.0  0.23901  0.60852  0.76233  1.0000
  C   C170      1.0  0.23443  0.64618  0.34031  1.0000
  C   C171      1.0  0.14144  0.72976  0.73238  1.0000
  C   C172      1.0  0.12727  0.71388  0.66357  1.0000
  H   H177      1.0  0.16986  0.71830  0.78487  1.0000
  H   H178      1.0  0.12915  0.70218  0.67922  1.0000
  H   H179      1.0  0.11341  0.72421  0.70784  1.0000
  C   C173      1.0  0.21855  0.62322  0.68335  1.0000
  C   C174      1.0  0.23461  0.64871  0.76013  1.0000
  H   H180      1.0  0.23266  0.72774  0.37826  1.0000
  C   C175      1.0  0.23872  0.65129  0.69540  1.0000
  N   N13       1.0  0.23080  0.61619  0.70499  1.0000
  H   H181      1.0  0.14860  0.72138  0.83684  1.0000
  H   H182      1.0  0.22966  0.68893  0.72210  1.0000
  S   S62       1.0  0.14482  0.73218  0.30908  1.0000
  C   C176      1.0  0.23577  0.64124  0.20852  1.0000
  H   H183      1.0  0.05447  0.73185  0.19716  1.0000
  H   H184      1.0  0.14094  0.70694  0.61470  1.0000
  C   C177      1.0  0.13633  0.72989  0.21153  1.0000
  C   C178      1.0  0.22753  0.61555  0.74131  1.0000
  C   C179      1.0  0.23636  0.69763  0.66596  1.0000
  C   C180      1.0  0.13401  0.71658  0.62752  1.0000
  C   C181      1.0  0.11845  0.72646  0.67967  1.0000
  C   C182      1.0  0.20335  0.73371  0.47528  1.0000
  C   C183      1.0  0.13202  0.73178  0.60810  1.0000
  H   H185      1.0  0.13740  0.73394  0.58010  1.0000
  Fe  Fe33      1.0  0.07790  0.79726  0.14303  1.0000
  S   S63       1.0  0.08978  0.77916  0.10899  1.0000
  S   S64       1.0  0.05141  0.80385  0.15358  1.0000
  Fe  Fe34      1.0  0.10908  0.80433  0.15345  1.0000
  S   S65       1.0  0.12301  0.78690  0.11927  1.0000
  S   S66       1.0  0.12501  0.81333  0.18023  1.0000
  Fe  Fe35      1.0  0.10548  0.79649  0.08297  1.0000
  S   S67       1.0  0.11255  0.80358  0.02384  1.0000
  Fe  Fe36      1.0  0.10608  0.77135  0.14904  1.0000
  H   H186      1.0  0.17951  0.82480  0.80910  1.0000
  S   S68       1.0  0.09272  0.81538  0.11436  1.0000
  S   S69       1.0  0.09297  0.78801  0.18567  1.0000
  Fe  Fe37      1.0  0.19214  0.87428  0.20409  1.0000
  S   S70       1.0  0.17079  0.89328  0.20536  1.0000
  S   S71       1.0  0.19546  0.85658  0.25435  1.0000
  Fe  Fe38      1.0  0.20031  0.88170  0.12352  1.0000
  S   S72       1.0  0.17976  0.90120  0.11882  1.0000
  S   S73       1.0  0.21532  0.87382  0.07403  1.0000
  Fe  Fe39      1.0  0.18635  0.90820  0.16546  1.0000
  S   S74       1.0  0.18270  0.93445  0.16587  1.0000
  Fe  Fe40      1.0  0.16635  0.88449  0.15878  1.0000
  S   S75       1.0  0.14266  0.88101  0.15143  1.0000
  S   S76       1.0  0.20815  0.88967  0.16734  1.0000
  S   S77       1.0  0.18656  0.86461  0.16031  1.0000
  C   C184      1.0  0.21874  0.90079  0.92953  1.0000
  C   C185      1.0  0.23212  0.82692  0.29249  1.0000
  H   H187      1.0  0.06146  0.77559  0.01407  1.0000
  H   H188      1.0  0.05730  0.77366  0.12952  1.0000
  C   C186      1.0  0.01228  0.78748  0.15102  1.0000
  Fe  Fe41      1.0  0.18156  0.87016  0.91193  1.0000
  S   S78       1.0  0.17146  0.88867  0.86949  1.0000
  S   S79       1.0  0.17072  0.87006  0.96987  1.0000
  Fe  Fe42      1.0  0.20627  0.85379  0.85796  1.0000
  S   S80       1.0  0.19877  0.87144  0.81170  1.0000
  C   C187      1.0  0.00235  0.77073  0.72370  1.0000
  Fe  Fe43      1.0  0.19671  0.88974  0.84608  1.0000
  S   S81       1.0  0.20824  0.91145  0.82936  1.0000
  Fe  Fe44      1.0  0.17431  0.86859  0.83959  1.0000
  S   S82       1.0  0.15979  0.86175  0.80560  1.0000
  S   S83       1.0  0.20659  0.87205  0.88997  1.0000
  S   S84       1.0  0.18201  0.85025  0.88444  1.0000
  C   C188      1.0  0.23872  0.74991  0.35020  1.0000
  S   S85       1.0  0.00271  0.74953  0.80818  1.0000
  Fe  Fe45      1.0  0.09436  0.80965  0.84417  1.0000
  S   S86       1.0  0.11279  0.78832  0.83894  1.0000
  S   S87       1.0  0.09989  0.82932  0.86628  1.0000
  Fe  Fe46      1.0  0.06836  0.79246  0.83567  1.0000
  S   S88       1.0  0.08522  0.76972  0.83157  1.0000
  S   S89       1.0  0.04185  0.79635  0.83858  1.0000
  Fe  Fe47      1.0  0.09505  0.77529  0.87552  1.0000
  S   S90       1.0  0.10143  0.75965  0.92579  1.0000
  Fe  Fe48      1.0  0.10135  0.78506  0.79542  1.0000
  S   S91       1.0  0.11701  0.77976  0.74390  1.0000
  S   S92       1.0  0.07697  0.79660  0.88279  1.0000
  S   S93       1.0  0.08405  0.80775  0.79701  1.0000
  H   H189      1.0  0.01791  0.80843  0.16154  1.0000
  H   H190      1.0  0.03921  0.75646  0.12614  1.0000
  H   H191      1.0  0.17796  0.74192  0.74430  1.0000
  C   C189      1.0  0.01822  0.77264  0.14180  1.0000
  C   C190      1.0  0.13889  0.75786  0.71260  1.0000
  C   C191      1.0  0.07631  0.81490  0.96207  1.0000
  H   H192      1.0  0.16487  0.91011  0.94451  1.0000
  C   C192      1.0  0.21426  0.96615  0.75903  1.0000
  H   H193      1.0  0.11639  0.88478  0.20991  1.0000
  H   H194      1.0  0.19120  0.90485  0.90829  1.0000
  C   C193      1.0  0.07201  0.80052  0.97901  1.0000
  N   N14       1.0  0.20713  0.98028  0.04708  1.0000
  H   H195      1.0  0.10488  0.87798  0.25252  1.0000
  H   H196      1.0  0.20915  0.94359  0.75676  1.0000
  N   N15       1.0  0.11663  0.74136  0.66052  1.0000
  C   C194      1.0  0.15235  0.86300  0.25995  1.0000
  C   C195      1.0  0.01335  0.76226  0.81864  1.0000
  C   C196      1.0  0.02979  0.75899  0.81132  1.0000
  C   C197      1.0  0.03870  0.76914  0.81791  1.0000
  C   C198      1.0  0.03124  0.78270  0.83182  1.0000
  C   C199      1.0  0.01478  0.78587  0.83952  1.0000
  C   C200      1.0  0.00586  0.77568  0.83312  1.0000
  H   H197      1.0  0.03569  0.74860  0.80026  1.0000
  H   H198      1.0  0.05135  0.76656  0.81187  1.0000
  H   H199      1.0  0.00892  0.79634  0.85030  1.0000
  S   S94       1.0  0.00608  0.75868  0.14598  1.0000
  H   H200      1.0  0.07468  0.83022  0.03635  1.0000
  H   H201      1.0  0.01670  0.78734  0.75294  1.0000
  H   H202      1.0  0.14278  0.77105  0.80731  1.0000
  C   C201      1.0  0.19102  0.82708  0.81164  1.0000
  C   C202      1.0  0.02615  0.76130  0.22453  1.0000
  H   H203      1.0  0.09597  0.75852  0.66686  1.0000
  S   S95       1.0  0.18332  0.97939  0.87029  1.0000
  C   C203      1.0  0.14406  0.85148  0.82423  1.0000
  C   C204      1.0  0.13889  0.84342  0.80260  1.0000
  C   C205      1.0  0.12581  0.83595  0.81571  1.0000
  C   C206      1.0  0.11752  0.83684  0.85032  1.0000
  C   C207      1.0  0.12285  0.84468  0.87218  1.0000
  C   C208      1.0  0.13618  0.85180  0.85939  1.0000
  H   H204      1.0  0.14484  0.84320  0.77532  1.0000
  H   H205      1.0  0.12176  0.83008  0.79852  1.0000
  H   H206      1.0  0.11645  0.84551  0.89889  1.0000
  H   H207      1.0  0.13997  0.85807  0.87618  1.0000
  C   C209      1.0  0.20136  0.92949  0.84525  1.0000
  C   C210      1.0  0.18552  0.93443  0.85823  1.0000
  C   C211      1.0  0.18029  0.94954  0.86710  1.0000
  C   C212      1.0  0.19081  0.95983  0.86331  1.0000
  C   C213      1.0  0.20674  0.95467  0.85160  1.0000
  C   C214      1.0  0.21196  0.93960  0.84248  1.0000
  H   H208      1.0  0.17720  0.92685  0.86014  1.0000
  H   H209      1.0  0.16794  0.95345  0.87603  1.0000
  H   H210      1.0  0.21496  0.96245  0.84858  1.0000
  H   H211      1.0  0.22424  0.93588  0.83245  1.0000
  H   H212      1.0  0.15609  0.74079  0.68694  1.0000
  H   H213      1.0  0.10818  0.86762  0.21523  1.0000
  C   C215      1.0  0.21465  0.84749  0.26013  1.0000
  C   C216      1.0  0.16909  0.75388  0.17846  1.0000
  H   H214      1.0  0.05925  0.77538  0.21997  1.0000
  C   C217      1.0  0.21098  0.73786  0.68913  1.0000
  C   C218      1.0  0.06449  0.78179  0.03312  1.0000
  C   C219      1.0  0.14526  0.77071  0.19965  1.0000
  C   C220      1.0  0.99166  0.74687  0.90622  1.0000
  H   H215      1.0  0.14273  0.76774  0.69381  1.0000
  C   C221      1.0  0.21765  0.74317  0.65376  1.0000
  C   C222      1.0  0.03296  0.74692  0.21392  1.0000
  C   C223      1.0  0.20319  0.87094  0.04637  1.0000
  C   C224      1.0  0.20960  0.86733  0.01226  1.0000
  C   C225      1.0  0.19975  0.86646  0.98897  1.0000
  C   C226      1.0  0.18348  0.86934  0.99957  1.0000
  C   C227      1.0  0.17715  0.87229  0.03423  1.0000
  C   C228      1.0  0.18697  0.87299  0.05759  1.0000
  H   H216      1.0  0.22216  0.86544  0.00365  1.0000
  H   H217      1.0  0.20479  0.86352  0.96295  1.0000
  H   H218      1.0  0.16462  0.87448  0.04287  1.0000
  H   H219      1.0  0.18187  0.87540  0.08407  1.0000
  C   C229      1.0  0.19557  0.94612  0.17198  1.0000
  C   C230      1.0  0.18961  0.96192  0.17474  1.0000
  C   C231      1.0  0.19924  0.97177  0.17952  1.0000
  C   C232      1.0  0.21507  0.96603  0.18105  1.0000
  C   C233      1.0  0.22110  0.95023  0.17813  1.0000
  C   C234      1.0  0.21141  0.94029  0.17368  1.0000
  H   H220      1.0  0.17737  0.96652  0.17371  1.0000
  C   C235      1.0  0.10713  0.75447  0.67734  1.0000
  H   H221      1.0  0.00473  0.77317  0.69402  1.0000
  H   H222      1.0  0.21616  0.92815  0.17159  1.0000
  C   C236      1.0  0.15424  0.84670  0.26678  1.0000
  H   H223      1.0  0.17438  0.77252  0.26899  1.0000
  H   H224      1.0  0.14399  0.82677  0.26641  1.0000
  C   C237      1.0  0.10563  0.77123  0.95313  1.0000
  C   C238      1.0  0.10533  0.76575  0.98984  1.0000
  C   C239      1.0  0.10773  0.77547  0.01187  1.0000
  C   C240      1.0  0.11065  0.79060  0.99709  1.0000
  C   C241      1.0  0.11153  0.79581  0.96028  1.0000
  C   C242      1.0  0.10880  0.78627  0.93852  1.0000
  H   H225      1.0  0.10299  0.75409  0.00129  1.0000
  H   H226      1.0  0.10741  0.77121  0.04016  1.0000
  H   H227      1.0  0.11375  0.80750  0.94857  1.0000
  H   H228      1.0  0.10898  0.79075  0.91045  1.0000
  C   C243      1.0  0.13052  0.83196  0.16724  1.0000
  C   C244      1.0  0.14476  0.83378  0.17469  1.0000
  C   C245      1.0  0.14892  0.84867  0.16839  1.0000
  C   C246      1.0  0.13877  0.86194  0.15503  1.0000
  C   C247      1.0  0.12467  0.86009  0.14673  1.0000
  C   C248      1.0  0.12058  0.84513  0.15262  1.0000
  H   H229      1.0  0.15248  0.82365  0.18614  1.0000
  H   H230      1.0  0.15969  0.84990  0.17531  1.0000
  H   H231      1.0  0.11672  0.87031  0.13640  1.0000
  H   H232      1.0  0.10951  0.84388  0.14702  1.0000
  C   C249      1.0  0.02260  0.79720  0.15314  1.0000
  C   C250      1.0  0.03890  0.79223  0.14585  1.0000
  C   C251      1.0  0.04482  0.77770  0.13502  1.0000
  C   C252      1.0  0.03452  0.76795  0.13312  1.0000
  N   N16       1.0  0.14216  0.83005  0.00419  1.0000
  C   C253      1.0  0.14156  0.82053  0.03699  1.0000
  C   C254      1.0  0.14306  0.84551  0.00091  1.0000
  C   C255      1.0  0.14213  0.82638  0.06746  1.0000
  C   C256      1.0  0.14363  0.85174  0.03081  1.0000
  C   C257      1.0  0.14333  0.84207  0.06418  1.0000
  C   C258      1.0  0.14101  0.82400  0.97257  1.0000
  H   H233      1.0  0.14059  0.80833  0.03978  1.0000
  H   H234      1.0  0.14354  0.85311  0.97498  1.0000
  H   H235      1.0  0.14159  0.81884  0.09348  1.0000
  H   H236      1.0  0.14449  0.86397  0.02790  1.0000
  H   H237      1.0  0.14404  0.84676  0.08736  1.0000
  H   H238      1.0  0.12883  0.82747  0.96709  1.0000
  H   H239      1.0  0.14913  0.82865  0.94868  1.0000
  H   H240      1.0  0.14398  0.81098  0.97658  1.0000
  C   C259      1.0  0.19698  0.73590  0.51028  1.0000
  H   H241      1.0  0.23191  0.76626  0.51097  1.0000
  H   H242      1.0  0.13269  0.75778  0.86984  1.0000
  H   H243      1.0  0.23525  0.75545  0.61983  1.0000
  C   C260      1.0  0.23005  0.75126  0.64707  1.0000
  H   H244      1.0  0.17619  0.74722  0.15841  1.0000
  H   H245      1.0  0.12183  0.75593  0.60995  1.0000
  C   C261      1.0  0.11708  0.75079  0.23465  1.0000
  H   H246      1.0  0.22172  0.84236  0.70351  1.0000
  C   C262      1.0  0.99136  0.75244  0.96552  1.0000
  H   H247      1.0  0.23760  0.84465  0.11783  1.0000
  H   H248      1.0  0.21203  0.81003  0.24256  1.0000
  H   H249      1.0  0.23377  0.81716  0.31414  1.0000
  C   C263      1.0  0.23213  0.73652  0.35438  1.0000
  H   H250      1.0  0.20695  0.83230  0.19353  1.0000
  C   C264      1.0  0.07367  0.82207  0.01998  1.0000
  C   C265      1.0  0.22473  0.81731  0.72021  1.0000
  H   H251      1.0  0.11852  0.75421  0.28725  1.0000
  C   C266      1.0  0.05197  0.76709  0.21930  1.0000
  C   C267      1.0  0.12345  0.74201  0.20731  1.0000
  H   H252      1.0  0.22560  0.85528  0.15163  1.0000
  C   C268      1.0  0.20438  0.95539  0.76213  1.0000
  C   C269      1.0  0.21697  0.83512  0.28878  1.0000
  H   H253      1.0  0.03052  0.78300  0.23386  1.0000
  C   C270      1.0  0.22016  0.80507  0.74673  1.0000
  C   C271      1.0  0.12163  0.74765  0.76523  1.0000
  C   C272      1.0  0.12357  0.74747  0.26604  1.0000
  C   C273      1.0  0.14903  0.75945  0.80326  1.0000
  N   N17       1.0  0.21734  0.74993  0.51037  1.0000
  C   C274      1.0  0.22989  0.74810  0.71081  1.0000
  N   N18       1.0  0.20273  0.82378  0.78015  1.0000
  C   C275      1.0  0.20690  0.83582  0.75392  1.0000
  H   H254      1.0  0.22350  0.95902  0.05732  1.0000
  C   C276      1.0  0.21805  0.83278  0.72372  1.0000
  H   H255      1.0  0.01351  0.76482  0.22900  1.0000
  H   H256      1.0  0.13370  0.77727  0.19616  1.0000
  H   H257      1.0  0.22544  0.79300  0.74443  1.0000
  H   H258      1.0  0.20177  0.84789  0.75653  1.0000
  H   H259      1.0  0.07927  0.75233  0.17046  1.0000
  N   N19       1.0  0.20831  0.98078  0.76733  1.0000
  H   H260      1.0  0.14964  0.76199  0.14998  1.0000
  H   H261      1.0  0.99894  0.74122  0.97128  1.0000
  H   H262      1.0  0.18625  0.74759  0.21305  1.0000
  H   H263      1.0  0.19484  0.81990  0.83647  1.0000
  H   H264      1.0  0.10431  0.75116  0.70692  1.0000
  N   N20       1.0  0.12769  0.86467  0.24176  1.0000
  C   C277      1.0  0.13896  0.87187  0.24722  1.0000
  C   C278      1.0  0.12926  0.84868  0.24923  1.0000
  C   C279      1.0  0.14261  0.83945  0.26153  1.0000
  C   C280      1.0  0.11354  0.87422  0.22944  1.0000
  H   H265      1.0  0.13775  0.88455  0.24118  1.0000
  H   H266      1.0  0.12039  0.84294  0.24463  1.0000
  H   H267      1.0  0.07975  0.73588  0.20674  1.0000
  H   H268      1.0  0.16132  0.86869  0.26421  1.0000
  S   S96       1.0  0.11552  0.74600  0.16771  1.0000
  H   H269      1.0  0.23370  0.81484  0.69735  1.0000
  C   C281      1.0  0.00458  0.79255  0.75127  1.0000
  H   H270      1.0  0.16477  0.83979  0.27596  1.0000
  N   N21       1.0  0.16536  0.76163  0.23589  1.0000
  C   C282      1.0  0.22453  0.74532  0.29595  1.0000
  C   C283      1.0  0.15095  0.77014  0.23098  1.0000
  N   N22       1.0  0.05856  0.75285  0.20946  1.0000
  N   N23       1.0  0.99554  0.78530  0.73772  1.0000
  H   H271      1.0  0.20699  0.83168  0.30779  1.0000
  H   H272      1.0  0.22176  0.73822  0.43069  1.0000
  H   H273      1.0  0.06665  0.80485  0.06504  1.0000
  H   H274      1.0  0.05424  0.78318  0.05501  1.0000
  H   H275      1.0  0.21193  0.97557  0.10044  1.0000
  C   C284      1.0  0.19011  0.90626  0.93584  1.0000
  H   H276      1.0  0.00542  0.81209  0.77561  1.0000
  C   C285      1.0  0.06925  0.80764  0.03604  1.0000
  S   S97       1.0  0.22292  0.83083  0.85443  1.0000
  S   S98       1.0  0.21149  0.73917  0.61714  1.0000
  C   C286      1.0  0.07561  0.74871  0.19970  1.0000
  H   H277      1.0  0.99977  0.79116  0.15807  1.0000
  C   C287      1.0  0.17099  0.76118  0.26908  1.0000
  C   C288      1.0  0.17361  0.91075  0.99195  1.0000
  H   H278      1.0  0.22592  0.86154  0.21383  1.0000
  C   C289      1.0  0.12651  0.76045  0.74092  1.0000
  H   H279      1.0  0.18070  0.95118  0.77806  1.0000
  H   H280      1.0  0.22674  0.96259  0.75075  1.0000
  C   C290      1.0  0.16884  0.74317  0.76751  1.0000
  H   H281      1.0  0.23088  0.76722  0.26721  1.0000
  C   C291      1.0  0.23968  0.83948  0.78707  1.0000
  S   S99       1.0  0.23843  0.75053  0.74582  1.0000
  C   C292      1.0  0.15427  0.76225  0.17359  1.0000
  H   H282      1.0  0.22721  0.90687  0.93612  1.0000
  C   C293      1.0  0.20908  0.80856  0.77675  1.0000
  H   H283      1.0  0.14361  0.77625  0.25169  1.0000
  C   C294      1.0  0.23633  0.75340  0.67541  1.0000
  H   H284      1.0  0.18132  0.75176  0.27252  1.0000
  C   C295      1.0  0.22513  0.75776  0.52959  1.0000
  H   H285      1.0  0.99324  0.77839  0.83874  1.0000
  H   H286      1.0  0.22287  0.88792  0.93505  1.0000
  C   C296      1.0  0.23828  0.76101  0.31876  1.0000
  H   H287      1.0  0.19910  0.74566  0.55476  1.0000
  H   H288      1.0  0.21859  0.90445  0.90032  1.0000
  H   H289      1.0  0.08106  0.83663  0.96979  1.0000
  C   C297      1.0  0.22373  0.74777  0.47605  1.0000
  H   H290      1.0  0.18593  0.90964  0.03505  1.0000
  H   H291      1.0  0.16210  0.91270  0.00831  1.0000
  H   H292      1.0  0.20579  0.79903  0.79760  1.0000
  C   C298      1.0  0.14640  0.74258  0.70848  1.0000
  H   H293      1.0  0.17016  0.97767  0.79402  1.0000
  H   H294      1.0  0.07466  0.77431  0.04441  1.0000
  H   H295      1.0  0.23788  0.80223  0.83039  1.0000
  N   N24       1.0  0.20315  0.90476  0.95067  1.0000
  H   H296      1.0  0.16411  0.76843  0.75550  1.0000
  H   H297      1.0  0.23426  0.75226  0.46234  1.0000
  C   C299      1.0  0.22163  0.81346  0.22209  1.0000
  N   N25       1.0  0.06845  0.79710  0.01553  1.0000
  H   H298      1.0  0.23331  0.94562  0.17943  1.0000
  C   C300      1.0  0.18698  0.90908  0.00694  1.0000
  C   C301      1.0  0.20175  0.90595  0.98586  1.0000
  C   C302      1.0  0.17516  0.90933  0.95617  1.0000
  H   H299      1.0  0.10706  0.76003  0.23188  1.0000
  H   H300      1.0  0.07194  0.79196  0.96273  1.0000
  S   S100      1.0  0.22756  0.97831  0.18641  1.0000
  C   C303      1.0  0.18838  0.95963  0.77415  1.0000
  C   C304      1.0  0.23533  0.82727  0.81412  1.0000
  H   H301      1.0  0.21730  0.84369  0.12983  1.0000
  C   C305      1.0  0.16110  0.75804  0.77384  1.0000
  H   H302      1.0  0.07947  0.81747  0.93312  1.0000
  C   C306      1.0  0.07725  0.82567  0.98274  1.0000
  C   C307      1.0  0.13192  0.74820  0.85611  1.0000
  C   C308      1.0  0.03569  0.77147  0.22729  1.0000
  H   H303      1.0  0.11195  0.74956  0.78690  1.0000
  C   C309      1.0  0.17461  0.75393  0.20968  1.0000
  H   H304      1.0  0.21206  0.90401  0.99818  1.0000
  H   H305      1.0  0.11358  0.76442  0.67197  1.0000
  H   H306      1.0  0.16176  0.75863  0.29265  1.0000
  N   N26       1.0  0.14489  0.74640  0.82601  1.0000
  C   C310      1.0  0.21883  0.82603  0.19426  1.0000
  C   C311      1.0  0.20416  0.74407  0.52753  1.0000
  C   C312      1.0  0.22758  0.85191  0.23572  1.0000
  H   H307      1.0  0.00436  0.74652  0.89572  1.0000
  H   H308      1.0  0.23022  0.97365  0.02044  1.0000
  C   C313      1.0  0.18245  0.97451  0.78292  1.0000
  H   H309      1.0  0.18939  0.83952  0.81477  1.0000
  H   H310      1.0  0.21642  0.96224  0.01586  1.0000
  C   C314      1.0  0.12326  0.74412  0.62515  1.0000
  H   H311      1.0  0.08175  0.75449  0.21404  1.0000
  C   C315      1.0  0.04928  0.74287  0.20632  1.0000
  C   C316      1.0  0.23126  0.75866  0.29150  1.0000
  N   N27       1.0  0.23097  0.83070  0.16903  1.0000
  H   H312      1.0  0.23527  0.85152  0.79055  1.0000
  H   H313      1.0  0.21647  0.76435  0.54880  1.0000
  H   H314      1.0  0.21204  0.73621  0.74507  1.0000
  C   C317      1.0  0.21706  0.74041  0.71774  1.0000
  C   C318      1.0  0.21997  0.96816  0.03467  1.0000
  C   C319      1.0  0.99826  0.80660  0.76415  1.0000
  S   S101      1.0  0.21529  0.74248  0.26268  1.0000
  C   C320      1.0  0.22775  0.84420  0.14081  1.0000
  H   H315      1.0  0.01341  0.76492  0.73368  1.0000
  H   H316      1.0  0.02557  0.73929  0.21014  1.0000
  C   C321      1.0  0.23695  0.80583  0.22427  1.0000
  H   H317      1.0  0.12055  0.75102  0.84643  1.0000
  H   H318      1.0  0.99425  0.76217  0.73291  1.0000
  H   H319      1.0  0.13194  0.73742  0.87674  1.0000
  H   H320      1.0  0.23320  0.74889  0.54510  1.0000
  C   C322      1.0  0.20474  0.98283  0.08158  1.0000
  C   C323      1.0  0.21676  0.73975  0.45796  1.0000
  H   H321      1.0  0.19431  0.98373  0.18262  1.0000
  H   H322      1.0  0.23936  0.79642  0.24638  1.0000
  C   C324      1.0  0.13665  0.73559  0.26995  1.0000
  C   C325      1.0  0.47037  0.21932  0.45024  1.0000
  H   H323      1.0  0.34614  0.22474  0.83716  1.0000
  H   H324      1.0  0.40981  0.18645  0.27263  1.0000
  H   H325      1.0  0.44578  0.22399  0.67849  1.0000
  H   H326      1.0  0.31691  0.17572  0.20724  1.0000
  H   H327      1.0  0.27728  0.18023  0.62696  1.0000
  Fe  Fe49      1.0  0.28529  0.08129  0.31890  1.0000
  S   S102      1.0  0.26972  0.09697  0.35539  1.0000
  S   S103      1.0  0.27473  0.06090  0.31207  1.0000
  Fe  Fe50      1.0  0.31220  0.09944  0.30992  1.0000
  S   S104      1.0  0.29853  0.11602  0.34658  1.0000
  S   S105      1.0  0.33609  0.10271  0.27711  1.0000
  Fe  Fe51      1.0  0.29036  0.09484  0.38244  1.0000
  S   S106      1.0  0.28257  0.09269  0.44306  1.0000
  Fe  Fe52      1.0  0.27920  0.11672  0.31720  1.0000
  S   S107      1.0  0.26635  0.14058  0.29706  1.0000
  S   S108      1.0  0.30566  0.07778  0.34817  1.0000
  S   S109      1.0  0.29314  0.10140  0.27823  1.0000
  Fe  Fe53      1.0  0.37123  0.18015  0.18246  1.0000
  S   S110      1.0  0.36610  0.18872  0.12659  1.0000
  S   S111      1.0  0.35352  0.17093  0.22941  1.0000
  Fe  Fe54      1.0  0.40191  0.19320  0.16603  1.0000
  S   S112      1.0  0.39951  0.20244  0.10848  1.0000
  S   S113      1.0  0.42205  0.19432  0.19344  1.0000
  Fe  Fe55      1.0  0.37422  0.21051  0.12999  1.0000
  H   H328      1.0  0.24398  0.04925  0.71446  1.0000
  Fe  Fe56      1.0  0.39159  0.18001  0.10825  1.0000
  S   S114      1.0  0.40035  0.16816  0.05906  1.0000
  S   S115      1.0  0.37714  0.20301  0.18747  1.0000
  S   S116      1.0  0.39633  0.16962  0.16437  1.0000
  Fe  Fe57      1.0  0.29128  0.08822  0.69977  1.0000
  S   S117      1.0  0.31558  0.09250  0.67316  1.0000
  S   S118      1.0  0.28779  0.06743  0.74423  1.0000
  Fe  Fe58      1.0  0.27564  0.11752  0.65699  1.0000
  S   S119      1.0  0.29833  0.12413  0.62734  1.0000
  H   H329      1.0  0.25438  0.99426  0.28368  1.0000
  Fe  Fe59      1.0  0.30539  0.09883  0.62226  1.0000
  S   S120      1.0  0.31860  0.09221  0.56924  1.0000
  Fe  Fe60      1.0  0.30659  0.11759  0.68055  1.0000
  S   S121      1.0  0.31855  0.13631  0.69084  1.0000
  S   S122      1.0  0.28203  0.09253  0.64834  1.0000
  S   S123      1.0  0.28303  0.11290  0.71073  1.0000
  Fe  Fe61      1.0  0.36956  0.18249  0.86732  1.0000
  S   S124      1.0  0.37395  0.20306  0.82356  1.0000
  S   S125      1.0  0.36540  0.18738  0.92460  1.0000
  Fe  Fe62      1.0  0.36486  0.16312  0.81353  1.0000
  S   S126      1.0  0.36917  0.18216  0.76668  1.0000
  S   S127      1.0  0.35887  0.14023  0.80657  1.0000
  Fe  Fe63      1.0  0.38877  0.18533  0.79134  1.0000
  S   S128      1.0  0.41200  0.18831  0.75497  1.0000
  Fe  Fe64      1.0  0.35408  0.19816  0.80272  1.0000
  S   S129      1.0  0.33493  0.21592  0.78064  1.0000
  S   S130      1.0  0.38591  0.16474  0.83626  1.0000
  S   S131      1.0  0.34839  0.17907  0.84820  1.0000
  C   C326      1.0  0.41153  0.14572  0.24180  1.0000
  N   N28       1.0  0.27455  0.01489  0.21214  1.0000
  C   C327      1.0  0.38517  0.13855  0.73363  1.0000
  C   C328      1.0  0.40077  0.13020  0.78180  1.0000
  C   C329      1.0  0.41694  0.20711  0.73712  1.0000
  C   C330      1.0  0.40747  0.22072  0.74764  1.0000
  H   H330      1.0  0.25591  0.12110  0.44398  1.0000
  C   C331      1.0  0.26273  0.18091  0.73858  1.0000
  C   C332      1.0  0.39801  0.13914  0.25290  1.0000
  H   H331      1.0  0.41293  0.18958  0.93907  1.0000
  H   H332      1.0  0.39692  0.21987  0.76712  1.0000
  C   C333      1.0  0.43076  0.20840  0.71204  1.0000
  C   C334      1.0  0.24318  0.16288  0.32375  1.0000
  H   H333      1.0  0.39032  0.18694  0.29764  1.0000
  C   C335      1.0  0.28231  0.05108  0.60555  1.0000
  C   C336      1.0  0.25009  0.04589  0.25227  1.0000
  H   H334      1.0  0.39342  0.19347  0.24973  1.0000
  C   C337      1.0  0.41136  0.16064  0.24868  1.0000
  C   C338      1.0  0.25140  0.04824  0.73400  1.0000
  H   H335      1.0  0.41214  0.15618  0.75051  1.0000
  H   H336      1.0  0.29493  0.15674  0.28684  1.0000
  C   C339      1.0  0.24644  0.13737  0.36135  1.0000
  H   H337      1.0  0.29208  0.14920  0.74128  1.0000
  S   S132      1.0  0.25403  0.13281  0.63918  1.0000
  H   H338      1.0  0.25820  0.02728  0.81496  1.0000
  C   C340      1.0  0.28576  0.02568  0.20333  1.0000
  C   C341      1.0  0.28173  0.04836  0.64254  1.0000
  C   C342      1.0  0.32606  0.14004  0.18190  1.0000
  H   H339      1.0  0.24697  0.17083  0.29979  1.0000
  C   C343      1.0  0.27393  0.16891  0.75256  1.0000
  C   C344      1.0  0.25926  0.03594  0.79077  1.0000
  H   H340      1.0  0.28478  0.03225  0.22546  1.0000
  C   C345      1.0  0.41688  0.22602  0.19865  1.0000
  C   C346      1.0  0.32925  0.13703  0.72436  1.0000
  C   C347      1.0  0.33406  0.12383  0.74906  1.0000
  C   C348      1.0  0.34293  0.12502  0.77437  1.0000
  C   C349      1.0  0.34692  0.13943  0.77561  1.0000
  C   C350      1.0  0.34195  0.15263  0.75113  1.0000
  C   C351      1.0  0.33326  0.15140  0.72560  1.0000
  H   H341      1.0  0.33111  0.11268  0.74845  1.0000
  H   H342      1.0  0.34672  0.11472  0.79313  1.0000
  H   H343      1.0  0.34489  0.16379  0.75171  1.0000
  H   H344      1.0  0.32959  0.16170  0.70670  1.0000
  C   C352      1.0  0.42549  0.21102  0.20757  1.0000
  C   C353      1.0  0.37286  0.22393  0.00213  1.0000
  H   H345      1.0  0.27238  0.01342  0.26852  1.0000
  N   N29       1.0  0.39616  0.14130  0.75047  1.0000
  C   C354      1.0  0.43734  0.20915  0.22805  1.0000
  H   H346      1.0  0.37386  0.16934  0.28822  1.0000
  H   H347      1.0  0.25610  0.07608  0.80263  1.0000
  C   C355      1.0  0.38960  0.17173  0.02343  1.0000
  C   C356      1.0  0.37490  0.18141  0.02494  1.0000
  C   C357      1.0  0.36732  0.18527  0.99500  1.0000
  C   C358      1.0  0.37439  0.17973  0.96295  1.0000
  C   C359      1.0  0.38884  0.16956  0.96176  1.0000
  C   C360      1.0  0.39634  0.16549  0.99202  1.0000
  H   H348      1.0  0.36949  0.18623  0.04890  1.0000
  H   H349      1.0  0.35609  0.19306  0.99630  1.0000
  H   H350      1.0  0.39439  0.16512  0.93737  1.0000
  H   H351      1.0  0.40764  0.15784  0.99070  1.0000
  H   H352      1.0  0.42202  0.13943  0.22749  1.0000
  H   H353      1.0  0.36568  0.22488  0.95173  1.0000
  H   H354      1.0  0.39788  0.12764  0.24747  1.0000
  H   H355      1.0  0.37128  0.14721  0.69178  1.0000
  C   C361      1.0  0.39839  0.20853  0.00823  1.0000
  C   C362      1.0  0.37496  0.22072  0.96753  1.0000
  H   H356      1.0  0.38385  0.17076  0.66830  1.0000
  C   C363      1.0  0.38889  0.21143  0.95391  1.0000
  C   C364      1.0  0.29310  0.09214  0.47747  1.0000
  C   C365      1.0  0.30917  0.09229  0.47080  1.0000
  C   C366      1.0  0.31687  0.09226  0.49916  1.0000
  C   C367      1.0  0.30854  0.09240  0.53419  1.0000
  C   C368      1.0  0.29246  0.09232  0.54078  1.0000
  C   C369      1.0  0.28484  0.09203  0.51262  1.0000
  H   H357      1.0  0.31567  0.09234  0.44387  1.0000
  H   H358      1.0  0.32933  0.09224  0.49384  1.0000
  H   H359      1.0  0.28590  0.09240  0.56757  1.0000
  H   H360      1.0  0.27239  0.09197  0.51798  1.0000
  H   H361      1.0  0.40775  0.22768  0.18289  1.0000
  H   H362      1.0  0.36203  0.23082  0.01356  1.0000
  C   C370      1.0  0.31617  0.16367  0.20717  1.0000
  H   H363      1.0  0.26377  0.06663  0.70333  1.0000
  H   H364      1.0  0.40387  0.13638  0.80081  1.0000
  C   C371      1.0  0.29463  0.04985  0.65624  1.0000
  C   C372      1.0  0.28323  0.15853  0.73084  1.0000
  N   N30       1.0  0.39804  0.16884  0.26587  1.0000
  H   H365      1.0  0.25674  0.99492  0.17170  1.0000
  C   C373      1.0  0.29582  0.05496  0.58277  1.0000
  C   C374      1.0  0.34925  0.15175  0.24211  1.0000
  C   C375      1.0  0.33730  0.14886  0.27134  1.0000
  C   C376      1.0  0.33320  0.13392  0.28225  1.0000
  C   C377      1.0  0.34122  0.12159  0.26444  1.0000
  C   C378      1.0  0.35350  0.12436  0.23577  1.0000
  C   C379      1.0  0.35743  0.13943  0.22439  1.0000
  H   H366      1.0  0.33103  0.15829  0.28544  1.0000
  H   H367      1.0  0.32390  0.13191  0.30462  1.0000
  H   H368      1.0  0.35981  0.11486  0.22195  1.0000
  H   H369      1.0  0.36673  0.14150  0.20196  1.0000
  H   H370      1.0  0.44413  0.19762  0.23503  1.0000
  C   C380      1.0  0.33548  0.23264  0.83217  1.0000
  H   H371      1.0  0.27540  0.16763  0.78016  1.0000
  C   C381      1.0  0.27267  0.05633  0.75208  1.0000
  C   C382      1.0  0.27085  0.04532  0.78377  1.0000
  C   C383      1.0  0.28591  0.13015  0.51220  1.0000
  H   H372      1.0  0.27432  0.01451  0.15744  1.0000
  H   H373      1.0  0.27856  0.04392  0.80289  1.0000
  H   H374      1.0  0.27332  0.12799  0.42079  1.0000
  H   H375      1.0  0.42190  0.16570  0.23972  1.0000
  C   C384      1.0  0.38468  0.21791  0.02250  1.0000
  C   C385      1.0  0.27059  0.06726  0.24096  1.0000
  C   C386      1.0  0.26636  0.05922  0.27556  1.0000
  C   C387      1.0  0.25603  0.04857  0.28103  1.0000
  C   C388      1.0  0.28204  0.12992  0.47914  1.0000
  H   H376      1.0  0.27863  0.07537  0.23630  1.0000
  C   C389      1.0  0.32641  0.15576  0.18138  1.0000
  H   H377      1.0  0.24179  0.15202  0.75325  1.0000
  H   H378      1.0  0.37950  0.12843  0.74393  1.0000
  H   H379      1.0  0.39019  0.20858  0.92741  1.0000
  N   N31       1.0  0.30771  0.05396  0.63366  1.0000
  C   C390      1.0  0.27024  0.00984  0.18520  1.0000
  H   H380      1.0  0.29916  0.17523  0.26197  1.0000
  H   H381      1.0  0.42390  0.20291  0.94820  1.0000
  C   C391      1.0  0.32711  0.23024  0.80758  1.0000
  H   H382      1.0  0.29406  0.04781  0.68505  1.0000
  H   H383      1.0  0.31772  0.05771  0.67610  1.0000
  H   H384      1.0  0.41913  0.18613  0.98135  1.0000
  H   H385      1.0  0.39095  0.12424  0.79692  1.0000
  H   H386      1.0  0.32700  0.06498  0.63187  1.0000
  C   C392      1.0  0.48175  0.21951  0.47000  1.0000
  C   C393      1.0  0.40333  0.15403  0.73738  1.0000
  C   C394      1.0  0.41482  0.19555  0.95994  1.0000
  N   N32       1.0  0.27003  0.17198  0.68199  1.0000
  C   C395      1.0  0.26497  0.06428  0.21206  1.0000
  C   C396      1.0  0.26105  0.18240  0.70290  1.0000
  H   H387      1.0  0.25214  0.19165  0.69249  1.0000
  H   H388      1.0  0.40456  0.17505  0.69790  1.0000
  H   H389      1.0  0.37392  0.14260  0.27900  1.0000
  H   H390      1.0  0.29136  0.12852  0.45635  1.0000
  C   C397      1.0  0.25858  0.13228  0.53849  1.0000
  C   C398      1.0  0.26265  0.05802  0.72754  1.0000
  H   H391      1.0  0.28327  0.16737  0.25373  1.0000
  C   C399      1.0  0.25511  0.13207  0.50501  1.0000
  C   C400      1.0  0.44066  0.22211  0.23919  1.0000
  C   C401      1.0  0.38453  0.14755  0.27047  1.0000
  H   H392      1.0  0.40730  0.20347  0.02474  1.0000
  H   H393      1.0  0.33430  0.13361  0.16285  1.0000
  H   H394      1.0  0.41093  0.12125  0.77329  1.0000
  H   H395      1.0  0.27692  0.13115  0.56802  1.0000
  H   H396      1.0  0.32986  0.04409  0.64845  1.0000
  C   C402      1.0  0.26276  0.13055  0.44131  1.0000
  H   H397      1.0  0.43820  0.19795  0.70382  1.0000
  C   C403      1.0  0.29531  0.16435  0.26006  1.0000
  H   H398      1.0  0.29713  0.13483  0.25334  1.0000
  H   H399      1.0  0.26876  0.07016  0.18523  1.0000
  H   H400      1.0  0.28836  0.15212  0.67868  1.0000
  H   H401      1.0  0.31900  0.05928  0.57944  1.0000
  C   C404      1.0  0.32125  0.05521  0.64828  1.0000
  H   H402      1.0  0.25648  0.18017  0.64006  1.0000
  C   C405      1.0  0.30854  0.05621  0.59737  1.0000
  C   C406      1.0  0.38753  0.16232  0.69089  1.0000
  C   C407      1.0  0.30525  0.14080  0.23299  1.0000
  C   C408      1.0  0.25894  0.99844  0.25593  1.0000
  C   C409      1.0  0.38464  0.16261  0.27609  1.0000
  H   H403      1.0  0.31532  0.12015  0.20919  1.0000
  H   H404      1.0  0.25516  0.18888  0.75534  1.0000
  H   H405      1.0  0.29643  0.05718  0.55392  1.0000
  H   H406      1.0  0.29806  0.12890  0.51493  1.0000
  C   C410      1.0  0.38052  0.14912  0.70396  1.0000
  C   C411      1.0  0.39913  0.16473  0.70744  1.0000
  C   C412      1.0  0.31540  0.13250  0.20780  1.0000
  H   H407      1.0  0.25267  0.12556  0.36660  1.0000
  H   H408      1.0  0.44991  0.22049  0.25455  1.0000
  C   C413      1.0  0.26026  0.99886  0.19303  1.0000
  C   C414      1.0  0.28111  0.16025  0.69540  1.0000
  N   N33       1.0  0.40027  0.20527  0.97447  1.0000
  H   H409      1.0  0.27134  0.04519  0.66054  1.0000
  H   H410      1.0  0.28339  0.03464  0.17942  1.0000
  C   C415      1.0  0.26832  0.17376  0.64451  1.0000
  C   C416      1.0  0.24318  0.06137  0.86542  1.0000
  C   C417      1.0  0.26909  0.00929  0.24716  1.0000
  C   C418      1.0  0.43509  0.22316  0.69764  1.0000
  H   H411      1.0  0.25262  0.06723  0.86829  1.0000
  N   N34       1.0  0.30590  0.15610  0.23279  1.0000
  H   H412      1.0  0.33494  0.16163  0.16200  1.0000
  H   H413      1.0  0.27233  0.05017  0.59453  1.0000
  C   C419      1.0  0.39786  0.18467  0.27190  1.0000
  H   H414      1.0  0.32559  0.23253  0.21843  1.0000
  C   C420      1.0  0.25119  0.14744  0.32992  1.0000
  N   N35       1.0  0.26680  0.13079  0.47595  1.0000
  H   H415      1.0  0.47956  0.21637  0.49898  1.0000
  C   C421      1.0  0.24666  0.14301  0.70379  1.0000
  H   H416      1.0  0.36366  0.22889  0.75192  1.0000
  H   H417      1.0  0.25271  0.04228  0.30770  1.0000
  C   C422      1.0  0.25479  0.05351  0.21749  1.0000
  H   H418      1.0  0.24304  0.13280  0.50239  1.0000
  C   C423      1.0  0.48693  0.22956  0.39657  1.0000
  H   H419      1.0  0.24306  0.08961  0.75140  1.0000
  H   H420      1.0  0.24231  0.03755  0.25685  1.0000
  H   H421      1.0  0.26973  0.16209  0.63666  1.0000
  H   H422      1.0  0.45932  0.21587  0.46370  1.0000
  C   C424      1.0  0.24968  0.03713  0.76559  1.0000
  H   H423      1.0  0.25425  0.13256  0.71384  1.0000
  S   S133      1.0  0.24996  0.04844  0.17969  1.0000
  C   C425      1.0  0.24392  0.14561  0.66866  1.0000
  H   H424      1.0  0.29788  0.01909  0.19794  1.0000
  H   H425      1.0  0.38309  0.22023  0.04948  1.0000
  H   H426      1.0  0.46398  0.22464  0.39787  1.0000
  C   C426      1.0  0.24355  0.07684  0.80514  1.0000
  H   H427      1.0  0.24935  0.13311  0.56172  1.0000
  C   C427      1.0  0.25460  0.99314  0.22862  1.0000
  H   H428      1.0  0.34841  0.22161  0.17675  1.0000
  H   H429      1.0  0.25578  0.14202  0.43129  1.0000
  C   C428      1.0  0.27409  0.13127  0.54204  1.0000
  C   C429      1.0  0.47298  0.22429  0.41326  1.0000
  C   C430      1.0  0.34129  0.23264  0.16792  1.0000
  H   H430      1.0  0.48876  0.23380  0.36794  1.0000
  S   S134      1.0  0.36190  0.23373  0.10450  1.0000
  H   H431      1.0  0.24842  0.04935  0.85995  1.0000
  Fe  Fe65      1.0  0.27677  0.30187  0.11842  1.0000
  S   S135      1.0  0.26912  0.28086  0.15626  1.0000
  S   S136      1.0  0.28434  0.30308  0.05804  1.0000
  Fe  Fe66      1.0  0.28047  0.31738  0.18009  1.0000
  S   S137      1.0  0.27292  0.29780  0.22246  1.0000
  S   S138      1.0  0.28927  0.33848  0.18834  1.0000
  Fe  Fe67      1.0  0.28791  0.28202  0.18566  1.0000
  S   S139      1.0  0.30308  0.26078  0.21059  1.0000
  Fe  Fe68      1.0  0.25454  0.29821  0.19017  1.0000
  H   H432      1.0  0.45778  0.30561  0.19465  1.0000
  S   S140      1.0  0.29695  0.30147  0.14565  1.0000
  S   S141      1.0  0.26070  0.31946  0.15005  1.0000
  Fe  Fe69      1.0  0.25820  0.30329  0.87955  1.0000
  S   S142      1.0  0.28094  0.31109  0.85480  1.0000
  C   C431      1.0  0.34311  0.47090  0.25083  1.0000
  Fe  Fe70      1.0  0.25890  0.28560  0.81788  1.0000
  S   S143      1.0  0.28215  0.29200  0.78900  1.0000
  H   H433      1.0  0.41632  0.34048  0.18411  1.0000
  Fe  Fe71      1.0  0.28885  0.28669  0.84358  1.0000
  Fe  Fe72      1.0  0.27219  0.31598  0.80270  1.0000
  S   S144      1.0  0.27528  0.33899  0.76564  1.0000
  S   S145      1.0  0.26673  0.27843  0.87165  1.0000
  H   H434      1.0  0.39330  0.33164  0.62795  1.0000
  Fe  Fe73      1.0  0.35973  0.35809  0.37388  1.0000
  S   S146      1.0  0.37155  0.37666  0.33664  1.0000
  S   S147      1.0  0.36771  0.34734  0.42665  1.0000
  Fe  Fe74      1.0  0.33709  0.35827  0.32328  1.0000
  S   S148      1.0  0.34675  0.37754  0.28262  1.0000
  S   S149      1.0  0.31861  0.34418  0.32080  1.0000
  Fe  Fe75      1.0  0.37019  0.36372  0.29376  1.0000
  S   S150      1.0  0.39030  0.35926  0.24906  1.0000
  Fe  Fe76      1.0  0.34728  0.38887  0.32940  1.0000
  S   S151      1.0  0.33906  0.41425  0.33778  1.0000
  S   S152      1.0  0.36066  0.34393  0.33152  1.0000
  S   S153      1.0  0.33538  0.37082  0.36948  1.0000
  C   C432      1.0  0.37208  0.42583  0.40089  1.0000
  C   C433      1.0  0.41280  0.31680  0.20645  1.0000
  H   H435      1.0  0.44536  0.33326  0.17599  1.0000
  S   S154      1.0  0.37854  0.46920  0.28552  1.0000
  H   H436      1.0  0.41373  0.25055  0.20174  1.0000
  S   S155      1.0  0.43719  0.27691  0.31127  1.0000
  S   S156      1.0  0.45468  0.31613  0.27464  1.0000
  Fe  Fe77      1.0  0.45835  0.29043  0.59583  1.0000
  S   S157      1.0  0.44796  0.31403  0.56780  1.0000
  S   S158      1.0  0.43877  0.25927  0.41128  1.0000
  H   H437      1.0  0.38705  0.46407  0.39661  1.0000
  H   H438      1.0  0.33232  0.30492  0.14401  1.0000
  C   C434      1.0  0.35586  0.45772  0.57745  1.0000
  C   C435      1.0  0.38288  0.45332  0.39752  1.0000
  H   H439      1.0  0.29808  0.26882  0.04712  1.0000
  H   H440      1.0  0.28400  0.33950  0.92866  1.0000
  H   H441      1.0  0.28833  0.26596  0.92790  1.0000
  N   N36       1.0  0.38940  0.44395  0.37235  1.0000
  Fe  Fe78      1.0  0.35266  0.37224  0.65832  1.0000
  S   S159      1.0  0.36674  0.38326  0.68475  1.0000
  S   S160      1.0  0.34359  0.34990  0.68677  1.0000
  Fe  Fe79      1.0  0.36433  0.39012  0.58397  1.0000
  S   S161      1.0  0.38004  0.40169  0.60458  1.0000
  S   S162      1.0  0.36046  0.39749  0.52661  1.0000
  Fe  Fe80      1.0  0.38601  0.37822  0.63893  1.0000
  S   S163      1.0  0.40890  0.36608  0.65609  1.0000
  Fe  Fe81      1.0  0.35958  0.40592  0.64841  1.0000
  S   S164      1.0  0.35141  0.43029  0.66310  1.0000
  S   S165      1.0  0.37242  0.36624  0.61376  1.0000
  S   S166      1.0  0.34336  0.39539  0.62620  1.0000
  C   C436      1.0  0.38484  0.46498  0.65160  1.0000
  C   C437      1.0  0.36865  0.46956  0.66122  1.0000
  C   C438      1.0  0.35861  0.45867  0.66580  1.0000
  C   C439      1.0  0.36460  0.44315  0.66042  1.0000
  C   C440      1.0  0.38081  0.43847  0.65166  1.0000
  C   C441      1.0  0.39086  0.44931  0.64757  1.0000
  C   C442      1.0  0.41360  0.29711  0.69054  1.0000
  H   H442      1.0  0.34611  0.46234  0.67305  1.0000
  H   H443      1.0  0.38561  0.42653  0.64784  1.0000
  H   H444      1.0  0.40337  0.44560  0.64047  1.0000
  C   C443      1.0  0.43704  0.32819  0.59311  1.0000
  C   C444      1.0  0.43860  0.32740  0.62861  1.0000
  C   C445      1.0  0.43009  0.33925  0.64765  1.0000
  C   C446      1.0  0.41965  0.35160  0.63160  1.0000
  C   C447      1.0  0.41781  0.35216  0.59645  1.0000
  C   C448      1.0  0.42667  0.34059  0.57707  1.0000
  H   H445      1.0  0.44647  0.31781  0.64124  1.0000
  H   H446      1.0  0.43146  0.33880  0.67493  1.0000
  H   H447      1.0  0.40984  0.36173  0.58391  1.0000
  H   H448      1.0  0.42547  0.34123  0.54958  1.0000
  C   C449      1.0  0.38426  0.43029  0.37395  1.0000
  H   H449      1.0  0.33506  0.32362  0.21910  1.0000
  C   C450      1.0  0.34140  0.25077  0.72881  1.0000
  C   C451      1.0  0.37070  0.44920  0.42489  1.0000
  C   C452      1.0  0.39880  0.32189  0.64581  1.0000
  C   C453      1.0  0.41021  0.28950  0.23286  1.0000
  C   C454      1.0  0.36371  0.38339  0.49863  1.0000
  C   C455      1.0  0.35986  0.38819  0.46429  1.0000
  C   C456      1.0  0.36141  0.37722  0.44180  1.0000
  C   C457      1.0  0.36681  0.36134  0.45360  1.0000
  C   C458      1.0  0.37089  0.35653  0.48778  1.0000
  C   C459      1.0  0.36931  0.36753  0.51033  1.0000
  H   H450      1.0  0.35521  0.40036  0.45546  1.0000
  H   H451      1.0  0.35809  0.38104  0.41564  1.0000
  H   H452      1.0  0.37510  0.34426  0.49699  1.0000
  H   H453      1.0  0.37234  0.36374  0.53673  1.0000
  C   C460      1.0  0.40756  0.34761  0.26160  1.0000
  C   C461      1.0  0.40781  0.33228  0.28066  1.0000
  C   C462      1.0  0.42221  0.32237  0.28519  1.0000
  C   C463      1.0  0.43627  0.32798  0.27145  1.0000
  C   C464      1.0  0.43586  0.34351  0.25403  1.0000
  C   C465      1.0  0.42160  0.35318  0.24858  1.0000
  H   H454      1.0  0.39696  0.32787  0.29046  1.0000
  H   H455      1.0  0.42244  0.31043  0.29902  1.0000
  H   H456      1.0  0.44667  0.34793  0.24355  1.0000
  H   H457      1.0  0.42147  0.36496  0.23363  1.0000
  C   C466      1.0  0.35150  0.42834  0.32641  1.0000
  C   C467      1.0  0.36479  0.42708  0.29975  1.0000
  C   C468      1.0  0.37319  0.43955  0.28807  1.0000
  C   C469      1.0  0.36854  0.45325  0.30332  1.0000
  C   C470      1.0  0.35568  0.45418  0.33111  1.0000
  C   C471      1.0  0.34715  0.44183  0.34240  1.0000
  H   H458      1.0  0.36820  0.41679  0.28708  1.0000
  H   H459      1.0  0.38313  0.43871  0.26653  1.0000
  H   H460      1.0  0.35198  0.46457  0.34323  1.0000
  H   H461      1.0  0.33689  0.44289  0.36307  1.0000
  C   C472      1.0  0.29434  0.34208  0.74436  1.0000
  C   C473      1.0  0.29654  0.35691  0.72466  1.0000
  C   C474      1.0  0.31158  0.35965  0.70733  1.0000
  C   C475      1.0  0.32451  0.34749  0.70934  1.0000
  C   C476      1.0  0.32228  0.33269  0.72907  1.0000
  C   C477      1.0  0.30731  0.33001  0.74672  1.0000
  H   H462      1.0  0.28656  0.36631  0.72274  1.0000
  H   H463      1.0  0.31313  0.37109  0.69225  1.0000
  H   H464      1.0  0.33221  0.32322  0.73074  1.0000
  H   H465      1.0  0.30577  0.31857  0.76186  1.0000
  S   S167      1.0  0.43632  0.25421  0.24105  1.0000
  N   N37       1.0  0.33170  0.36125  0.56564  1.0000
  C   C478      1.0  0.33188  0.30407  0.26140  1.0000
  C   C479      1.0  0.29831  0.33911  0.22454  1.0000
  C   C480      1.0  0.30723  0.35084  0.22119  1.0000
  C   C481      1.0  0.31384  0.35235  0.25008  1.0000
  C   C482      1.0  0.31121  0.34241  0.28299  1.0000
  C   C483      1.0  0.30218  0.33075  0.28637  1.0000
  C   C484      1.0  0.29600  0.32891  0.25715  1.0000
  H   H466      1.0  0.30898  0.35888  0.19615  1.0000
  H   H467      1.0  0.32066  0.36144  0.24716  1.0000
  H   H468      1.0  0.30009  0.32300  0.31174  1.0000
  H   H469      1.0  0.28918  0.31983  0.26010  1.0000
  C   C485      1.0  0.27297  0.30554  0.02413  1.0000
  C   C486      1.0  0.25664  0.30720  0.03144  1.0000
  H   H470      1.0  0.33006  0.28530  0.78097  1.0000
  C   C487      1.0  0.25617  0.30732  0.96846  1.0000
  C   C488      1.0  0.27247  0.30577  0.96120  1.0000
  C   C489      1.0  0.28078  0.30506  0.98880  1.0000
  C   C490      1.0  0.42567  0.23675  0.70840  1.0000
  H   H471      1.0  0.24718  0.24078  0.26791  1.0000
  H   H472      1.0  0.27871  0.30510  0.93433  1.0000
  H   H473      1.0  0.29340  0.30380  0.98288  1.0000
  S   S168      1.0  0.43065  0.25560  0.69180  1.0000
  H   H474      1.0  0.31987  0.26875  0.99565  1.0000
  C   C491      1.0  0.31874  0.25291  0.18005  1.0000
  C   C492      1.0  0.41542  0.29649  0.65425  1.0000
  H   H475      1.0  0.44343  0.29129  0.40065  1.0000
  H   H476      1.0  0.32695  0.37403  0.46633  1.0000
  H   H477      1.0  0.33438  0.34587  0.49111  1.0000
  H   H478      1.0  0.39754  0.29444  0.23822  1.0000
  H   H479      1.0  0.45282  0.31345  0.35650  1.0000
  H   H480      1.0  0.32730  0.28304  0.29820  1.0000
  C   C493      1.0  0.27819  0.34317  0.90552  1.0000
  S   S169      1.0  0.47601  0.24772  0.63394  1.0000
  H   H481      1.0  0.41378  0.44316  0.35456  1.0000
  H   H482      1.0  0.26672  0.26619  0.97997  1.0000
  C   C494      1.0  0.33211  0.35460  0.50838  1.0000
  H   H483      1.0  0.38361  0.47892  0.57274  1.0000
  H   H484      1.0  0.40273  0.44370  0.31975  1.0000
  Fe  Fe82      1.0  0.47293  0.25850  0.57727  1.0000
  H   H485      1.0  0.35594  0.43194  0.44781  1.0000
  H   H486      1.0  0.33717  0.24793  0.86721  1.0000
  C   C495      1.0  0.32796  0.37044  0.49441  1.0000
  Fe  Fe83      1.0  0.48450  0.27003  0.63348  1.0000
  H   H487      1.0  0.47436  0.31092  0.60691  1.0000
  S   S170      1.0  0.47068  0.27340  0.25527  1.0000
  H   H488      1.0  0.32220  0.27033  0.25127  1.0000
  H   H489      1.0  0.33380  0.30990  0.28174  1.0000
  Fe  Fe84      1.0  0.45094  0.26392  0.35403  1.0000
  Fe  Fe85      1.0  0.45169  0.26115  0.64944  1.0000
  H   H490      1.0  0.33036  0.36610  0.61836  1.0000
  H   H491      1.0  0.40979  0.30873  0.60319  1.0000
  C   C496      1.0  0.43818  0.32431  0.18655  1.0000
  C   C497      1.0  0.25661  0.33699  0.28448  1.0000
  C   C498      1.0  0.33262  0.31176  0.22587  1.0000
  H   H492      1.0  0.27029  0.27354  0.06759  1.0000
  N   N38       1.0  0.41975  0.30161  0.21679  1.0000
  C   C499      1.0  0.43570  0.29753  0.21200  1.0000
  H   H493      1.0  0.34329  0.45833  0.58446  1.0000
  C   C500      1.0  0.44515  0.30881  0.19705  1.0000
  S   S171      1.0  0.46953  0.27872  0.33741  1.0000
  H   H494      1.0  0.25583  0.33902  0.93557  1.0000
  H   H495      1.0  0.48555  0.32113  0.56944  1.0000
  H   H496      1.0  0.44120  0.28551  0.22018  1.0000
  C   C501      1.0  0.32527  0.28194  0.24442  1.0000
  C   C502      1.0  0.40435  0.31027  0.70377  1.0000
  C   C503      1.0  0.30828  0.26801  0.99204  1.0000
  C   C504      1.0  0.31308  0.24030  0.80196  1.0000
  H   H497      1.0  0.42264  0.28639  0.64369  1.0000
  C   C505      1.0  0.24187  0.32054  0.26781  1.0000
  H   H498      1.0  0.32377  0.28434  0.18906  1.0000
  H   H499      1.0  0.31916  0.32128  0.16100  1.0000
  H   H500      1.0  0.36784  0.41516  0.40147  1.0000
  H   H501      1.0  0.34623  0.35107  0.60457  1.0000
  C   C506      1.0  0.33042  0.31308  0.16337  1.0000
  C   C507      1.0  0.36532  0.43533  0.42660  1.0000
  H   H502      1.0  0.33818  0.26115  0.09476  1.0000
  C   C508      1.0  0.48082  0.32087  0.59840  1.0000
  H   H503      1.0  0.44846  0.24770  0.53457  1.0000
  C   C509      1.0  0.26304  0.35162  0.84684  1.0000
  H   H504      1.0  0.31496  0.26735  0.93543  1.0000
  C   C510      1.0  0.27900  0.35211  0.84211  1.0000
  C   C511      1.0  0.28661  0.34782  0.87166  1.0000
  C   C512      1.0  0.32382  0.27442  0.74246  1.0000
  C   C513      1.0  0.33821  0.45648  0.25603  1.0000
  H   H505      1.0  0.25733  0.35455  0.82354  1.0000
  H   H506      1.0  0.26266  0.33933  0.30386  1.0000
  H   H507      1.0  0.28548  0.35536  0.81546  1.0000
  H   H508      1.0  0.29905  0.34783  0.86818  1.0000
  H   H509      1.0  0.36386  0.48150  0.66500  1.0000
  C   C514      1.0  0.33036  0.24573  0.84930  1.0000
  H   H510      1.0  0.34491  0.44734  0.24134  1.0000
  H   H511      1.0  0.41212  0.28078  0.21479  1.0000
  H   H512      1.0  0.25703  0.27306  0.03926  1.0000
  C   C515      1.0  0.32209  0.47956  0.29533  1.0000
  H   H513      1.0  0.34008  0.31993  0.15552  1.0000
  N   N39       1.0  0.25486  0.34712  0.88012  1.0000
  C   C516      1.0  0.47494  0.25822  0.46108  1.0000
  H   H514      1.0  0.32022  0.26031  0.70687  1.0000
  H   H515      1.0  0.41937  0.28743  0.70816  1.0000
  H   H516      1.0  0.25048  0.30762  0.05852  1.0000
  S   S172      1.0  0.48161  0.24710  0.52837  1.0000
  H   H517      1.0  0.38895  0.43184  0.55464  1.0000
  C   C517      1.0  0.26222  0.34290  0.90927  1.0000
  C   C518      1.0  0.32506  0.45363  0.28153  1.0000
  H   H518      1.0  0.31312  0.28284  0.73967  1.0000
  H   H519      1.0  0.41532  0.29350  0.42742  1.0000
  H   H520      1.0  0.40016  0.32019  0.21082  1.0000
  C   C519      1.0  0.24969  0.32361  0.29254  1.0000
  C   C520      1.0  0.38149  0.44270  0.56073  1.0000
  H   H521      1.0  0.32642  0.34733  0.61698  1.0000
  C   C521      1.0  0.33339  0.27585  0.76547  1.0000
  H   H522      1.0  0.41370  0.28318  0.25872  1.0000
  C   C522      1.0  0.38808  0.45550  0.56175  1.0000
  S   S173      1.0  0.48306  0.27972  0.57598  1.0000
  H   H523      1.0  0.40155  0.46102  0.33701  1.0000
  C   C523      1.0  0.31690  0.46523  0.30130  1.0000
  H   H524      1.0  0.40069  0.45468  0.55670  1.0000
  C   C524      1.0  0.30775  0.25314  0.81978  1.0000
  N   N40       1.0  0.32996  0.30461  0.20022  1.0000
  S   S174      1.0  0.31154  0.27365  0.85949  1.0000
  H   H525      1.0  0.36005  0.43373  0.56905  1.0000
  H   H526      1.0  0.39678  0.31813  0.41074  1.0000
  H   H527      1.0  0.32334  0.39403  0.50526  1.0000
  S   S175      1.0  0.46041  0.28271  0.65366  1.0000
  H   H528      1.0  0.35402  0.26557  0.78833  1.0000
  C   C525      1.0  0.40257  0.44810  0.34469  1.0000
  C   C526      1.0  0.24842  0.34388  0.22788  1.0000
  C   C527      1.0  0.31667  0.25616  0.84243  1.0000
  C   C528      1.0  0.37832  0.46922  0.57087  1.0000
  C   C529      1.0  0.26842  0.26714  0.04745  1.0000
  C   C530      1.0  0.32214  0.26084  0.14496  1.0000
  H   H529      1.0  0.29696  0.26091  0.81508  1.0000
  C   C531      1.0  0.32795  0.37684  0.55194  1.0000
  C   C532      1.0  0.32589  0.38165  0.51625  1.0000
  H   H530      1.0  0.31465  0.27157  0.13574  1.0000
  C   C533      1.0  0.33539  0.25488  0.12168  1.0000
  H   H531      1.0  0.32686  0.38569  0.56830  1.0000
  S   S176      1.0  0.44804  0.26998  0.59254  1.0000
  H   H532      1.0  0.33735  0.33787  0.55488  1.0000
  C   C534      1.0  0.33392  0.35018  0.54430  1.0000
  C   C535      1.0  0.33378  0.35623  0.60308  1.0000
  H   H533      1.0  0.26768  0.25484  0.06032  1.0000
  Fe  Fe86      1.0  0.45136  0.25918  0.27750  1.0000
  C   C536      1.0  0.45015  0.25809  0.44421  1.0000
  H   H534      1.0  0.36553  0.45678  0.44459  1.0000
  Fe  Fe87      1.0  0.45698  0.29004  0.29176  1.0000
  H   H535      1.0  0.25338  0.37114  0.25340  1.0000
  N   N41       1.0  0.28117  0.26744  0.01657  1.0000
  C   C537      1.0  0.46563  0.26053  0.43471  1.0000
  C   C538      1.0  0.42190  0.32835  0.19110  1.0000
  N   N42       1.0  0.41436  0.32918  0.37428  1.0000
  C   C539      1.0  0.40909  0.31709  0.39872  1.0000
  C   C540      1.0  0.42991  0.32809  0.35979  1.0000
  C   C541      1.0  0.41945  0.30324  0.40843  1.0000
  C   C542      1.0  0.44057  0.31442  0.36883  1.0000
  C   C543      1.0  0.43528  0.30195  0.39334  1.0000
  C   C544      1.0  0.40327  0.34355  0.36463  1.0000
  H   H536      1.0  0.38936  0.42287  0.35395  1.0000
  H   H537      1.0  0.43415  0.33766  0.34048  1.0000
  C   C545      1.0  0.24828  0.30819  0.00361  1.0000
  C   C546      1.0  0.30553  0.26726  0.95835  1.0000
  N   N43       1.0  0.36242  0.47019  0.57863  1.0000
  H   H538      1.0  0.40036  0.35063  0.38642  1.0000
  H   H539      1.0  0.40801  0.35079  0.33925  1.0000
  H   H540      1.0  0.39226  0.34066  0.36055  1.0000
  C   C547      1.0  0.34687  0.26458  0.76970  1.0000
  C   C548      1.0  0.32814  0.28907  0.27067  1.0000
  H   H541      1.0  0.47234  0.33186  0.60201  1.0000
  C   C549      1.0  0.32618  0.28995  0.20915  1.0000
  S   S177      1.0  0.24829  0.31014  0.82820  1.0000
  H   H542      1.0  0.25140  0.26695  0.23437  1.0000
  N   N44       1.0  0.39717  0.32246  0.68143  1.0000
  N   N45       1.0  0.33515  0.48214  0.27064  1.0000
  S   S178      1.0  0.24537  0.30880  0.93392  1.0000
  H   H543      1.0  0.40302  0.31070  0.73199  1.0000
  H   H544      1.0  0.39355  0.34013  0.71353  1.0000
  H   H545      1.0  0.47066  0.26363  0.40704  1.0000
  C   C550      1.0  0.26255  0.36128  0.24517  1.0000
  C   C551      1.0  0.29591  0.26799  0.02109  1.0000
  H   H546      1.0  0.38457  0.34607  0.67494  1.0000
  H   H547      1.0  0.34235  0.48225  0.60900  1.0000
  H   H548      1.0  0.32153  0.44224  0.28679  1.0000
  C   C552      1.0  0.38734  0.33595  0.69625  1.0000
  S   S179      1.0  0.39786  0.47855  0.64229  1.0000
  H   H549      1.0  0.37609  0.33282  0.71178  1.0000
  C   C553      1.0  0.40803  0.30895  0.63166  1.0000
  C   C554      1.0  0.27840  0.26655  0.98368  1.0000
  C   C555      1.0  0.32782  0.26181  0.72397  1.0000
  C   C556      1.0  0.29052  0.26648  0.95410  1.0000
  H   H550      1.0  0.30681  0.46302  0.32156  1.0000
  H   H551      1.0  0.35363  0.47286  0.23173  1.0000
  S   S180      1.0  0.46364  0.24502  0.32249  1.0000
  Fe  Fe88      1.0  0.48178  0.26084  0.30317  1.0000
  C   C557      1.0  0.46887  0.25334  0.49706  1.0000
  H   H552      1.0  0.40458  0.24588  0.74211  1.0000
  N   N46       1.0  0.25597  0.34688  0.25240  1.0000
  C   C558      1.0  0.34505  0.24083  0.13327  1.0000
  C   C559      1.0  0.36528  0.44378  0.56866  1.0000
  H   H553      1.0  0.25043  0.31563  0.31771  1.0000
  S   S181      1.0  0.24843  0.26642  0.80460  1.0000
  H   H554      1.0  0.34417  0.24072  0.71525  1.0000
  H   H555      1.0  0.26735  0.36431  0.21621  1.0000
  H   H556      1.0  0.27246  0.35985  0.25970  1.0000
  C   C560      1.0  0.44384  0.25394  0.48040  1.0000
  N   N47       1.0  0.35062  0.25216  0.75175  1.0000
  C   C561      1.0  0.45319  0.25157  0.50683  1.0000
  H   H557      1.0  0.43186  0.25208  0.48796  1.0000
  C   C562      1.0  0.41185  0.23544  0.73343  1.0000
  H   H558      1.0  0.37505  0.24440  0.73703  1.0000
  H   H559      1.0  0.30647  0.23834  0.78332  1.0000
  C   C563      1.0  0.36488  0.24055  0.75629  1.0000
  C   C564      1.0  0.32828  0.23878  0.19143  1.0000
  H   H560      1.0  0.24808  0.35159  0.20225  1.0000
  H   H561      1.0  0.48304  0.30346  0.66306  1.0000
  H   H562      1.0  0.48705  0.25968  0.45347  1.0000
  H   H563      1.0  0.24165  0.23985  0.78379  1.0000
  C   C565      1.0  0.42031  0.23900  0.20942  1.0000
  C   C566      1.0  0.24121  0.33072  0.23528  1.0000
  C   C567      1.0  0.43225  0.23717  0.22964  1.0000
  C   C568      1.0  0.35228  0.48478  0.58726  1.0000
  H   H564      1.0  0.36725  0.23878  0.78401  1.0000
  Fe  Fe89      1.0  0.30373  0.62075  0.11312  1.0000
  S   S182      1.0  0.30160  0.60940  0.17064  1.0000
  S   S183      1.0  0.32106  0.63640  0.08658  1.0000
  N   N48       1.0  0.27074  0.56856  0.09069  1.0000
  H   H565      1.0  0.39778  0.53217  0.45488  1.0000
  H   H566      1.0  0.25178  0.58425  0.11414  1.0000
  H   H567      1.0  0.42303  0.58794  0.45315  1.0000
  Fe  Fe90      1.0  0.29751  0.58862  0.15208  1.0000
  S   S184      1.0  0.31059  0.56385  0.16480  1.0000
  H   H568      1.0  0.40393  0.55603  0.41256  1.0000
  S   S185      1.0  0.30202  0.59926  0.09390  1.0000
  Fe  Fe91      1.0  0.36690  0.66014  0.19462  1.0000
  S   S186      1.0  0.35183  0.68147  0.16918  1.0000
  S   S187      1.0  0.36426  0.63532  0.19615  1.0000
  Fe  Fe92      1.0  0.38501  0.67890  0.22152  1.0000
  S   S188      1.0  0.37185  0.70205  0.19748  1.0000
  S   S189      1.0  0.40196  0.67784  0.25830  1.0000
  Fe  Fe93      1.0  0.35051  0.69117  0.21883  1.0000
  S   S190      1.0  0.32668  0.70315  0.24304  1.0000
  Fe  Fe94      1.0  0.37423  0.69064  0.14934  1.0000
  S   S191      1.0  0.37715  0.70518  0.09376  1.0000
  S   S192      1.0  0.36336  0.66886  0.24639  1.0000
  S   S193      1.0  0.38959  0.66854  0.17128  1.0000
  Fe  Fe95      1.0  0.28822  0.60941  0.85249  1.0000
  S   S194      1.0  0.28078  0.63522  0.83434  1.0000
  S   S195      1.0  0.29616  0.59727  0.90465  1.0000
  Fe  Fe96      1.0  0.29082  0.60168  0.77786  1.0000
  S   S196      1.0  0.28382  0.62678  0.75325  1.0000
  S   S197      1.0  0.29500  0.58222  0.74562  1.0000
  Fe  Fe97      1.0  0.29937  0.63187  0.78634  1.0000
  S   S198      1.0  0.31657  0.64806  0.76506  1.0000
  Fe  Fe98      1.0  0.26565  0.62806  0.80279  1.0000
  S   S199      1.0  0.30807  0.60669  0.80645  1.0000
  S   S200      1.0  0.27142  0.60235  0.82550  1.0000
  Fe  Fe99      1.0  0.36254  0.70171  0.86113  1.0000
  S   S201      1.0  0.36134  0.68306  0.91028  1.0000
  H   H569      1.0  0.41199  0.69689  0.09662  1.0000
  Fe  Fe100     1.0  0.39268  0.68382  0.82406  1.0000
  S   S202      1.0  0.39372  0.66377  0.86992  1.0000
  S   S203      1.0  0.41013  0.68509  0.77228  1.0000
  Fe  Fe101     1.0  0.36803  0.66633  0.87147  1.0000
  S   S204      1.0  0.35587  0.64563  0.88419  1.0000
  Fe  Fe102     1.0  0.38708  0.68221  0.90498  1.0000
  S   S205      1.0  0.40019  0.67585  0.95170  1.0000
  S   S206      1.0  0.36730  0.68497  0.82269  1.0000
  S   S207      1.0  0.38797  0.70239  0.85879  1.0000
  Fe  Fe103     1.0  0.45640  0.60116  0.41213  1.0000
  S   S208      1.0  0.44418  0.60641  0.46638  1.0000
  Fe  Fe104     1.0  0.46079  0.60595  0.33128  1.0000
  S   S209      1.0  0.47582  0.58211  0.32934  1.0000
  S   S210      1.0  0.45681  0.61942  0.27674  1.0000
  Fe  Fe105     1.0  0.45800  0.57366  0.37548  1.0000
  S   S211      1.0  0.44766  0.55142  0.38949  1.0000
  S   S212      1.0  0.44218  0.59701  0.37462  1.0000
  S   S213      1.0  0.47361  0.61266  0.36864  1.0000
  Fe  Fe106     1.0  0.35177  0.52077  0.32634  1.0000
  S   S214      1.0  0.37160  0.51564  0.28178  1.0000
  S   S215      1.0  0.32880  0.53672  0.31827  1.0000
  S   S216      1.0  0.26174  0.60892  0.05951  1.0000
  Fe  Fe107     1.0  0.38669  0.52002  0.31748  1.0000
  S   S217      1.0  0.40359  0.53697  0.29491  1.0000
  S   S218      1.0  0.36659  0.52666  0.36036  1.0000
  S   S219      1.0  0.36475  0.54688  0.71320  1.0000
  C   C569      1.0  0.29884  0.56231  0.08093  1.0000
  S   S220      1.0  0.37840  0.55017  0.61229  1.0000
  Fe  Fe108     1.0  0.47453  0.61973  0.68836  1.0000
  C   C570      1.0  0.27000  0.60638  0.95360  1.0000
  S   S221      1.0  0.46439  0.62808  0.74120  1.0000
  H   H570      1.0  0.35700  0.71898  0.78656  1.0000
  C   C571      1.0  0.24496  0.70576  0.71308  1.0000
  Fe  Fe109     1.0  0.47690  0.59032  0.65680  1.0000
  S   S222      1.0  0.46715  0.56780  0.66761  1.0000
  H   H571      1.0  0.34219  0.53644  0.78674  1.0000
  S   S223      1.0  0.46192  0.61416  0.64909  1.0000
  C   C572      1.0  0.45489  0.55841  0.50167  1.0000
  C   C573      1.0  0.43278  0.55683  0.60681  1.0000
  C   C574      1.0  0.43902  0.57068  0.59492  1.0000
  C   C575      1.0  0.44925  0.57447  0.61378  1.0000
  C   C576      1.0  0.45355  0.56424  0.64425  1.0000
  C   C577      1.0  0.44720  0.55047  0.65619  1.0000
  C   C578      1.0  0.43676  0.54683  0.63775  1.0000
  H   H572      1.0  0.43604  0.57846  0.57089  1.0000
  H   H573      1.0  0.45409  0.58510  0.60428  1.0000
  H   H574      1.0  0.45050  0.54248  0.67968  1.0000
  H   H575      1.0  0.43214  0.53606  0.64694  1.0000
  C   C579      1.0  0.35762  0.51711  0.46253  1.0000
  C   C580      1.0  0.35429  0.52764  0.48675  1.0000
  H   H576      1.0  0.35204  0.51991  0.43917  1.0000
  H   H577      1.0  0.34631  0.53862  0.48171  1.0000
  C   C581      1.0  0.45544  0.61356  0.48946  1.0000
  C   C582      1.0  0.45166  0.61202  0.52680  1.0000
  C   C583      1.0  0.46069  0.61738  0.54581  1.0000
  C   C584      1.0  0.47324  0.62470  0.52743  1.0000
  C   C585      1.0  0.47707  0.62615  0.49010  1.0000
  C   C586      1.0  0.46831  0.62037  0.47117  1.0000
  H   H578      1.0  0.44178  0.60664  0.54105  1.0000
  H   H579      1.0  0.45768  0.61623  0.57456  1.0000
  C   C587      1.0  0.43518  0.54780  0.36323  1.0000
  C   C588      1.0  0.43282  0.55745  0.33066  1.0000
  C   C589      1.0  0.42306  0.55404  0.31007  1.0000
  C   C590      1.0  0.41532  0.54116  0.32221  1.0000
  C   C591      1.0  0.41732  0.53176  0.35527  1.0000
  C   C592      1.0  0.42736  0.53497  0.37548  1.0000
  H   H580      1.0  0.43880  0.56735  0.32095  1.0000
  H   H581      1.0  0.42165  0.56132  0.28447  1.0000
  H   H582      1.0  0.41147  0.52177  0.36481  1.0000
  H   H583      1.0  0.42915  0.52743  0.40062  1.0000
  C   C593      1.0  0.42327  0.66803  0.76165  1.0000
  C   C594      1.0  0.42552  0.65457  0.78753  1.0000
  C   C595      1.0  0.43778  0.64208  0.78029  1.0000
  C   C596      1.0  0.44759  0.64273  0.74678  1.0000
  C   C597      1.0  0.44484  0.65583  0.72018  1.0000
  C   C598      1.0  0.43278  0.66849  0.72773  1.0000
  H   H584      1.0  0.41828  0.65404  0.81365  1.0000
  H   H585      1.0  0.43984  0.63199  0.80098  1.0000
  H   H586      1.0  0.45242  0.65649  0.69434  1.0000
  H   H587      1.0  0.43108  0.67885  0.70751  1.0000
  H   H588      1.0  0.48678  0.63178  0.47579  1.0000
  C   C599      1.0  0.40416  0.55813  0.49796  1.0000
  H   H589      1.0  0.27343  0.71228  0.31871  1.0000
  S   S224      1.0  0.48832  0.59531  0.69873  1.0000
  C   C600      1.0  0.31470  0.57392  0.73162  1.0000
  C   C601      1.0  0.31816  0.56102  0.71381  1.0000
  C   C602      1.0  0.33369  0.55320  0.70582  1.0000
  C   C603      1.0  0.34578  0.55817  0.71601  1.0000
  C   C604      1.0  0.34239  0.57141  0.73258  1.0000
  C   C605      1.0  0.32692  0.57934  0.74008  1.0000
  H   H590      1.0  0.30878  0.55680  0.70699  1.0000
  H   H591      1.0  0.34769  0.49172  0.56310  1.0000
  H   H592      1.0  0.35170  0.57536  0.74035  1.0000
  H   H593      1.0  0.32447  0.58946  0.75297  1.0000
  C   C606      1.0  0.32860  0.64586  0.79691  1.0000
  C   C607      1.0  0.32469  0.63746  0.83134  1.0000
  C   C608      1.0  0.33347  0.63696  0.85780  1.0000
  C   C609      1.0  0.34613  0.64487  0.84987  1.0000
  C   C610      1.0  0.35045  0.65266  0.81507  1.0000
  C   C611      1.0  0.34162  0.65325  0.78864  1.0000
  H   H594      1.0  0.31463  0.63176  0.83804  1.0000
  H   H595      1.0  0.33014  0.63083  0.88463  1.0000
  H   H596      1.0  0.36068  0.65808  0.80834  1.0000
  H   H597      1.0  0.34487  0.65949  0.76188  1.0000
  H   H598      1.0  0.37412  0.63649  0.95068  1.0000
  C   C612      1.0  0.41619  0.66073  0.26454  1.0000
  C   C613      1.0  0.42260  0.65673  0.29608  1.0000
  C   C614      1.0  0.43462  0.64365  0.30080  1.0000
  C   C615      1.0  0.44062  0.63481  0.27344  1.0000
  C   C616      1.0  0.43426  0.63886  0.24183  1.0000
  C   C617      1.0  0.42191  0.65162  0.23760  1.0000
  H   H599      1.0  0.41826  0.66377  0.31696  1.0000
  H   H600      1.0  0.43951  0.64068  0.32516  1.0000
  H   H601      1.0  0.43890  0.63207  0.22057  1.0000
  H   H602      1.0  0.41710  0.65463  0.21316  1.0000
  C   C618      1.0  0.38254  0.69637  0.05509  1.0000
  C   C619      1.0  0.37904  0.70523  0.02232  1.0000
  C   C620      1.0  0.38397  0.69889  0.99059  1.0000
  C   C621      1.0  0.39278  0.68377  0.99131  1.0000
  C   C622      1.0  0.39625  0.67489  0.02408  1.0000
  C   C623      1.0  0.39095  0.68107  0.05599  1.0000
  H   H603      1.0  0.37261  0.71710  0.02143  1.0000
  H   H604      1.0  0.38132  0.70588  0.96545  1.0000
  H   H605      1.0  0.40311  0.66320  0.02481  1.0000
  H   H606      1.0  0.39375  0.67416  0.08107  1.0000
  C   C624      1.0  0.46871  0.54920  0.55280  1.0000
  C   C625      1.0  0.32563  0.72058  0.25909  1.0000
  C   C626      1.0  0.41194  0.71283  0.22182  1.0000
  C   C627      1.0  0.31634  0.55739  0.20708  1.0000
  C   C628      1.0  0.30773  0.56347  0.23722  1.0000
  C   C629      1.0  0.31174  0.55708  0.27116  1.0000
  C   C630      1.0  0.32460  0.54489  0.27503  1.0000
  C   C631      1.0  0.33363  0.53931  0.24465  1.0000
  C   C632      1.0  0.32933  0.54533  0.21088  1.0000
  H   H607      1.0  0.29767  0.57273  0.23457  1.0000
  H   H608      1.0  0.30474  0.56150  0.29455  1.0000
  H   H609      1.0  0.34376  0.53020  0.24716  1.0000
  H   H610      1.0  0.33610  0.54068  0.18757  1.0000
  H   H611      1.0  0.40023  0.55258  0.52514  1.0000
  C   C633      1.0  0.28635  0.60316  0.94545  1.0000
  C   C634      1.0  0.29513  0.60291  0.97174  1.0000
  C   C635      1.0  0.28766  0.60567  0.00609  1.0000
  H   H612      1.0  0.30778  0.60042  0.96563  1.0000
  H   H613      1.0  0.29459  0.60541  0.02594  1.0000
  C   C636      1.0  0.33501  0.63493  0.11347  1.0000
  C   C637      1.0  0.33809  0.62158  0.13920  1.0000
  C   C638      1.0  0.34774  0.62139  0.16368  1.0000
  C   C639      1.0  0.35448  0.63447  0.16202  1.0000
  C   C640      1.0  0.35233  0.64731  0.13456  1.0000
  C   C641      1.0  0.34245  0.64762  0.11056  1.0000
  H   H614      1.0  0.33298  0.61144  0.14038  1.0000
  H   H615      1.0  0.34969  0.61123  0.18423  1.0000
  H   H616      1.0  0.35818  0.65706  0.13192  1.0000
  H   H617      1.0  0.34019  0.65791  0.09058  1.0000
  H   H618      1.0  0.30105  0.72804  0.25692  1.0000
  C   C642      1.0  0.24531  0.60976  0.68882  1.0000
  H   H619      1.0  0.47130  0.62155  0.44237  1.0000
  S   S225      1.0  0.35317  0.49565  0.35389  1.0000
  H   H620      1.0  0.45766  0.69700  0.77323  1.0000
  S   S226      1.0  0.47126  0.57733  0.41545  1.0000
  H   H621      1.0  0.28993  0.64405  0.16590  1.0000
  H   H622      1.0  0.30967  0.55933  0.09167  1.0000
  C   C643      1.0  0.24812  0.64391  0.22229  1.0000
  H   H623      1.0  0.45437  0.68110  0.75467  1.0000
  H   H624      1.0  0.31025  0.56361  0.02585  1.0000
  C   C644      1.0  0.25360  0.71560  0.68717  1.0000
  C   C645      1.0  0.30543  0.72851  0.37560  1.0000
  H   H625      1.0  0.28525  0.57136  0.00212  1.0000
  H   H626      1.0  0.27955  0.66362  0.16029  1.0000
  H   H627      1.0  0.32939  0.71655  0.37087  1.0000
  H   H628      1.0  0.44897  0.64699  0.86396  1.0000
  H   H629      1.0  0.44873  0.56991  0.48922  1.0000
  N   N49       1.0  0.30100  0.66035  0.17985  1.0000
  C   C646      1.0  0.29915  0.67549  0.18492  1.0000
  C   C647      1.0  0.31219  0.64900  0.19405  1.0000
  C   C648      1.0  0.30835  0.67951  0.20561  1.0000
  C   C649      1.0  0.31955  0.66794  0.22085  1.0000
  H   H630      1.0  0.29054  0.68456  0.17293  1.0000
  C   C650      1.0  0.31111  0.73053  0.26490  1.0000
  H   H631      1.0  0.39806  0.72292  0.11021  1.0000
  C   C651      1.0  0.41692  0.57813  0.45776  1.0000
  N   N50       1.0  0.31426  0.68655  0.79915  1.0000
  C   C652      1.0  0.30435  0.67676  0.81853  1.0000
  C   C653      1.0  0.32465  0.69087  0.81509  1.0000
  C   C654      1.0  0.30458  0.67117  0.85496  1.0000
  C   C655      1.0  0.32506  0.68568  0.85154  1.0000
  C   C656      1.0  0.31505  0.67565  0.87147  1.0000
  C   C657      1.0  0.31452  0.69151  0.76056  1.0000
  H   H632      1.0  0.29662  0.67272  0.80554  1.0000
  H   H633      1.0  0.33286  0.69818  0.79951  1.0000
  H   H634      1.0  0.29707  0.66299  0.86990  1.0000
  H   H635      1.0  0.33331  0.68920  0.86403  1.0000
  H   H636      1.0  0.31569  0.67108  0.89943  1.0000
  H   H637      1.0  0.30265  0.69305  0.75395  1.0000
  H   H638      1.0  0.31864  0.70291  0.75074  1.0000
  H   H639      1.0  0.32242  0.68244  0.74606  1.0000
  N   N51       1.0  0.32923  0.56544  0.83615  1.0000
  C   C658      1.0  0.33949  0.55468  0.81801  1.0000
  H   H640      1.0  0.32536  0.69763  0.33587  1.0000
  C   C659      1.0  0.33528  0.57644  0.85087  1.0000
  H   H641      1.0  0.35201  0.55413  0.81477  1.0000
  C   C660      1.0  0.33520  0.72789  0.81823  1.0000
  H   H642      1.0  0.32645  0.58151  0.87228  1.0000
  H   H643      1.0  0.34580  0.57051  0.86283  1.0000
  H   H644      1.0  0.33839  0.58626  0.82931  1.0000
  H   H645      1.0  0.33622  0.54294  0.69314  1.0000
  H   H646      1.0  0.41463  0.72475  0.21863  1.0000
  H   H647      1.0  0.33610  0.50340  0.28758  1.0000
  C   C661      1.0  0.37493  0.49930  0.49947  1.0000
  C   C662      1.0  0.26252  0.60868  0.98839  1.0000
  C   C663      1.0  0.44897  0.68977  0.77271  1.0000
  C   C664      1.0  0.44960  0.66673  0.82059  1.0000
  H   H648      1.0  0.27067  0.73289  0.31944  1.0000
  Fe  Fe110     1.0  0.37416  0.49078  0.31182  1.0000
  C   C665      1.0  0.33400  0.54459  0.80215  1.0000
  N   N52       1.0  0.37501  0.59008  0.25411  1.0000
  C   C666      1.0  0.37968  0.57435  0.26503  1.0000
  C   C667      1.0  0.35946  0.59631  0.25512  1.0000
  C   C668      1.0  0.36861  0.56451  0.27802  1.0000
  C   C669      1.0  0.34810  0.58678  0.26775  1.0000
  C   C670      1.0  0.35275  0.57079  0.27946  1.0000
  C   C671      1.0  0.38664  0.60031  0.23971  1.0000
  H   H649      1.0  0.39201  0.56927  0.26384  1.0000
  H   H650      1.0  0.35579  0.60874  0.24607  1.0000
  H   H651      1.0  0.37233  0.55206  0.28685  1.0000
  H   H652      1.0  0.33577  0.59170  0.26838  1.0000
  H   H653      1.0  0.34408  0.56327  0.28961  1.0000
  H   H654      1.0  0.38780  0.60323  0.21007  1.0000
  H   H655      1.0  0.38295  0.61149  0.25048  1.0000
  H   H656      1.0  0.39831  0.59476  0.24683  1.0000
  N   N53       1.0  0.40814  0.57724  0.66765  1.0000
  C   C672      1.0  0.40454  0.58783  0.63810  1.0000
  C   C673      1.0  0.41828  0.57978  0.68710  1.0000
  C   C674      1.0  0.41144  0.60123  0.62687  1.0000
  C   C675      1.0  0.42539  0.59306  0.67665  1.0000
  C   C676      1.0  0.42194  0.60382  0.64630  1.0000
  C   C677      1.0  0.40055  0.56345  0.67915  1.0000
  H   H657      1.0  0.39650  0.58577  0.62272  1.0000
  H   H658      1.0  0.42126  0.57135  0.71035  1.0000
  H   H659      1.0  0.40879  0.60946  0.60305  1.0000
  H   H660      1.0  0.43381  0.59476  0.69151  1.0000
  H   H661      1.0  0.42753  0.61405  0.63764  1.0000
  H   H662      1.0  0.39961  0.55856  0.65567  1.0000
  H   H663      1.0  0.40733  0.55388  0.69621  1.0000
  H   H664      1.0  0.38859  0.56668  0.69434  1.0000
  C   C678      1.0  0.27095  0.57093  0.05460  1.0000
  C   C679      1.0  0.30755  0.55693  0.82245  1.0000
  H   H665      1.0  0.48236  0.63450  0.27931  1.0000
  C   C680      1.0  0.41250  0.70026  0.12168  1.0000
  H   H666      1.0  0.33576  0.50496  0.24063  1.0000
  H   H667      1.0  0.24622  0.64882  0.67065  1.0000
  H   H668      1.0  0.48642  0.58690  0.53210  1.0000
  C   C681      1.0  0.31793  0.54584  0.80416  1.0000
  H   H669      1.0  0.38041  0.54479  0.47332  1.0000
  H   H670      1.0  0.30527  0.57536  0.85233  1.0000
  H   H671      1.0  0.26312  0.60648  0.93357  1.0000
  H   H672      1.0  0.25670  0.56582  0.14298  1.0000
  S   S227      1.0  0.39886  0.52153  0.66160  1.0000
  C   C682      1.0  0.27133  0.60813  0.01491  1.0000
  N   N54       1.0  0.35288  0.66122  0.00595  1.0000
  C   C683      1.0  0.36556  0.65396  0.98496  1.0000
  C   C684      1.0  0.33874  0.65649  0.01166  1.0000
  C   C685      1.0  0.35458  0.67427  0.02176  1.0000
  H   H673      1.0  0.37676  0.65771  0.98041  1.0000
  H   H674      1.0  0.32870  0.66203  0.02872  1.0000
  H   H675      1.0  0.34347  0.67927  0.03794  1.0000
  H   H676      1.0  0.36351  0.67026  0.03953  1.0000
  H   H677      1.0  0.35830  0.68384  0.00025  1.0000
  S   S228      1.0  0.48422  0.63211  0.55068  1.0000
  H   H678      1.0  0.44570  0.55181  0.51768  1.0000
  C   C686      1.0  0.29150  0.65643  0.15751  1.0000
  C   C687      1.0  0.27359  0.72100  0.33539  1.0000
  H   H679      1.0  0.24214  0.62939  0.30432  1.0000
  H   H680      1.0  0.42744  0.70249  0.82241  1.0000
  C   C688      1.0  0.32159  0.65261  0.21488  1.0000
  Fe  Fe111     1.0  0.48753  0.58828  0.36943  1.0000
  C   C689      1.0  0.41197  0.57080  0.49257  1.0000
  C   C690      1.0  0.24438  0.64612  0.72782  1.0000
  C   C691      1.0  0.43249  0.69042  0.83171  1.0000
  H   H681      1.0  0.41867  0.69005  0.88481  1.0000
  H   H682      1.0  0.24470  0.70858  0.61264  1.0000
  C   C692      1.0  0.33860  0.72393  0.26926  1.0000
  H   H683      1.0  0.42908  0.66213  0.90554  1.0000
  H   H684      1.0  0.24988  0.61064  0.99490  1.0000
  H   H685      1.0  0.29949  0.69972  0.31964  1.0000
  H   H686      1.0  0.25513  0.65830  0.25240  1.0000
  S   S229      1.0  0.34197  0.72173  0.85933  1.0000
  H   H687      1.0  0.26430  0.71970  0.35938  1.0000
  H   H688      1.0  0.34983  0.71627  0.26507  1.0000
  C   C693      1.0  0.26290  0.72653  0.62460  1.0000
  H   H689      1.0  0.46170  0.55193  0.48011  1.0000
  H   H690      1.0  0.45810  0.66000  0.80250  1.0000
  N   N55       1.0  0.44343  0.68204  0.80906  1.0000
  S   S230      1.0  0.37199  0.48937  0.43963  1.0000
  C   C694      1.0  0.40478  0.71887  0.16230  1.0000
  C   C695      1.0  0.43330  0.66773  0.87857  1.0000
  H   H691      1.0  0.40003  0.71244  0.23788  1.0000
  N   N56       1.0  0.40154  0.55284  0.46937  1.0000
  C   C696      1.0  0.31788  0.71694  0.36497  1.0000
  H   H692      1.0  0.32686  0.67093  0.23671  1.0000
  S   S231      1.0  0.39146  0.49464  0.34255  1.0000
  S   S232      1.0  0.39690  0.51873  0.58021  1.0000
  H   H693      1.0  0.35871  0.49208  0.59697  1.0000
  H   H694      1.0  0.25611  0.63964  0.72780  1.0000
  H   H695      1.0  0.43899  0.69738  0.76078  1.0000
  S   S233      1.0  0.35785  0.53780  0.54598  1.0000
  H   H696      1.0  0.39343  0.53255  0.50191  1.0000
  S   S234      1.0  0.27138  0.59641  0.15862  1.0000
  C   C697      1.0  0.36137  0.52405  0.51723  1.0000
  C   C698      1.0  0.48167  0.57615  0.53794  1.0000
  N   N57       1.0  0.41265  0.70858  0.18687  1.0000
  C   C699      1.0  0.33703  0.64423  0.99601  1.0000
  C   C700      1.0  0.34505  0.72500  0.78625  1.0000
  S   S235      1.0  0.42078  0.55195  0.58131  1.0000
  H   H697      1.0  0.32584  0.64037  0.00113  1.0000
  H   H698      1.0  0.24613  0.64620  0.34449  1.0000
  Fe  Fe112     1.0  0.27583  0.61836  0.17265  1.0000
  C   C701      1.0  0.31343  0.56663  0.83856  1.0000
  H   H699      1.0  0.27431  0.71952  0.61453  1.0000
  S   S236      1.0  0.26628  0.63107  0.21971  1.0000
  Fe  Fe113     1.0  0.37220  0.53142  0.58998  1.0000
  Fe  Fe114     1.0  0.40276  0.53634  0.60712  1.0000
  C   C702      1.0  0.36420  0.64184  0.96843  1.0000
  H   H700      1.0  0.31393  0.63709  0.18917  1.0000
  C   C703      1.0  0.47201  0.57370  0.51613  1.0000
  H   H701      1.0  0.26285  0.59651  0.76189  1.0000
  C   C704      1.0  0.28444  0.56437  0.10397  1.0000
  C   C705      1.0  0.34983  0.63697  0.97405  1.0000
  H   H702      1.0  0.30694  0.69155  0.20946  1.0000
  C   C706      1.0  0.24496  0.70774  0.64081  1.0000
  C   C707      1.0  0.48485  0.56482  0.56762  1.0000
  Fe  Fe115     1.0  0.37404  0.53467  0.66540  1.0000
  C   C708      1.0  0.44448  0.65928  0.85534  1.0000
  C   C709      1.0  0.30090  0.70759  0.33626  1.0000
  H   H703      1.0  0.48060  0.54248  0.59846  1.0000
  H   H704      1.0  0.24667  0.56670  0.10672  1.0000
  C   C710      1.0  0.34030  0.49727  0.26411  1.0000
  H   H705      1.0  0.46968  0.58250  0.49299  1.0000
  H   H706      1.0  0.26866  0.59765  0.69638  1.0000
  H   H707      1.0  0.41785  0.57822  0.40165  1.0000
  H   H708      1.0  0.35330  0.49563  0.25890  1.0000
  H   H709      1.0  0.42636  0.68585  0.19933  1.0000
  C   C711      1.0  0.33953  0.73009  0.75366  1.0000
  H   H710      1.0  0.31355  0.53865  0.79038  1.0000
  H   H711      1.0  0.34857  0.62775  0.96087  1.0000
  H   H712      1.0  0.41416  0.57488  0.51527  1.0000
  S   S237      1.0  0.27833  0.63118  0.11603  1.0000
  H   H713      1.0  0.26016  0.57511  0.04392  1.0000
  N   N58       1.0  0.25342  0.71657  0.65157  1.0000
  C   C712      1.0  0.31561  0.70631  0.34542  1.0000
  C   C713      1.0  0.42737  0.68343  0.86685  1.0000
  H   H714      1.0  0.24791  0.61026  0.66005  1.0000
  H   H715      1.0  0.42631  0.67826  0.14159  1.0000
  H   H716      1.0  0.38312  0.48845  0.50397  1.0000
  C   C714      1.0  0.39289  0.53995  0.47515  1.0000
  C   C715      1.0  0.47849  0.55116  0.57492  1.0000
  C   C716      1.0  0.24562  0.65621  0.24160  1.0000
  S   S238      1.0  0.36520  0.51711  0.64381  1.0000
  C   C717      1.0  0.29916  0.56468  0.04410  1.0000
  N   N59       1.0  0.46535  0.56055  0.52426  1.0000
  Fe  Fe116     1.0  0.27630  0.60866  0.10119  1.0000
  C   C718      1.0  0.36790  0.50290  0.46899  1.0000
  Fe  Fe117     1.0  0.37016  0.50097  0.38304  1.0000
  C   C719      1.0  0.40467  0.71492  0.12930  1.0000
  H   H717      1.0  0.29506  0.55840  0.82299  1.0000
  C   C720      1.0  0.41394  0.57279  0.42890  1.0000
  H   H718      1.0  0.34728  0.72794  0.72896  1.0000
  C   C721      1.0  0.28514  0.56891  0.03079  1.0000
  H   H719      1.0  0.37727  0.50708  0.54680  1.0000
  C   C722      1.0  0.25382  0.60197  0.74602  1.0000
  H   H720      1.0  0.29731  0.65813  0.12903  1.0000
  H   H721      1.0  0.33056  0.64363  0.22582  1.0000
  C   C723      1.0  0.25705  0.60261  0.70907  1.0000
  C   C724      1.0  0.40616  0.56010  0.43522  1.0000
  Fe  Fe118     1.0  0.39035  0.50510  0.63541  1.0000
  C   C725      1.0  0.37172  0.50988  0.52350  1.0000
  C   C726      1.0  0.42045  0.69420  0.17953  1.0000
  C   C727      1.0  0.42049  0.68983  0.14687  1.0000
  Fe  Fe119     1.0  0.48273  0.62048  0.60817  1.0000
  N   N60       1.0  0.28881  0.71914  0.34635  1.0000
  H   H722      1.0  0.46336  0.53881  0.55936  1.0000
  H   H723      1.0  0.24485  0.70535  0.74129  1.0000
  S   S239      1.0  0.24068  0.64061  0.80162  1.0000
  H   H724      1.0  0.28436  0.56286  0.13250  1.0000
  C   C728      1.0  0.29086  0.72939  0.36615  1.0000
  C   C729      1.0  0.25575  0.57142  0.11491  1.0000
  H   H725      1.0  0.25670  0.73226  0.60187  1.0000
  H   H726      1.0  0.42036  0.70447  0.23741  1.0000
  H   H727      1.0  0.26014  0.72273  0.69582  1.0000
  H   H728      1.0  0.39818  0.73006  0.16851  1.0000
  H   H729      1.0  0.31573  0.48852  0.31087  1.0000
  H   H730      1.0  0.25376  0.84550  0.73532  1.0000
  H   H731      1.0  0.28135  0.84355  0.27668  1.0000
  S   S240      1.0  0.32003  0.76159  0.31831  1.0000
  C   C730      1.0  0.32984  0.77226  0.77165  1.0000
  H   H732      1.0  0.26823  0.75922  0.52632  1.0000
  H   H733      1.0  0.28832  0.81184  0.76923  1.0000
  C   C731      1.0  0.24500  0.83110  0.26751  1.0000
  Fe  Fe120     1.0  0.26220  0.77129  0.36557  1.0000
  Fe  Fe121     1.0  0.29569  0.77462  0.33569  1.0000
  N   N61       1.0  0.30636  0.79156  0.76844  1.0000
  H   H734      1.0  0.28249  0.79363  0.79260  1.0000
  Fe  Fe122     1.0  0.26899  0.80104  0.31584  1.0000
  C   C732      1.0  0.33272  0.77363  0.73448  1.0000
  C   C733      1.0  0.27616  0.79239  0.54407  1.0000
  Fe  Fe123     1.0  0.27603  0.79409  0.39176  1.0000
  S   S241      1.0  0.29063  0.80035  0.33791  1.0000
  S   S242      1.0  0.27523  0.77574  0.30940  1.0000
  Fe  Fe124     1.0  0.27321  0.79147  0.70207  1.0000
  S   S243      1.0  0.29308  0.78146  0.66168  1.0000
  H   H735      1.0  0.29394  0.80330  0.81169  1.0000
  H   H736      1.0  0.27792  0.79726  0.56598  1.0000
  C   C734      1.0  0.30905  0.79288  0.73197  1.0000
  H   H737      1.0  0.30085  0.80072  0.71623  1.0000
  Fe  Fe125     1.0  0.29453  0.75995  0.70447  1.0000
  H   H738      1.0  0.25549  0.79626  0.77466  1.0000
  Fe  Fe126     1.0  0.27484  0.77199  0.64414  1.0000
  S   S244      1.0  0.27175  0.76534  0.59298  1.0000
  S   S245      1.0  0.27581  0.77046  0.74583  1.0000
  C   C735      1.0  0.32225  0.78394  0.71447  1.0000
  H   H739      1.0  0.31400  0.77969  0.81732  1.0000
  S   S246      1.0  0.27804  0.74972  0.68391  1.0000
  H   H740      1.0  0.33762  0.76380  0.78749  1.0000
  S   S247      1.0  0.28312  0.76832  0.39171  1.0000
  S   S248      1.0  0.25391  0.79671  0.36989  1.0000
  C   C736      1.0  0.27716  0.80128  0.50929  1.0000
  H   H741      1.0  0.34268  0.76619  0.72130  1.0000
  C   C737      1.0  0.27505  0.79497  0.48063  1.0000
  H   H742      1.0  0.32413  0.78463  0.68567  1.0000
  C   C738      1.0  0.27298  0.77718  0.55026  1.0000
  C   C739      1.0  0.27069  0.77098  0.52166  1.0000
  C   C740      1.0  0.27172  0.77982  0.48699  1.0000
  C   C741      1.0  0.31642  0.78123  0.78834  1.0000
  Fe  Fe127     1.0  0.25905  0.76232  0.72055  1.0000
  H   H743      1.0  0.30235  0.74717  0.78422  1.0000
  H   H744      1.0  0.26994  0.77491  0.46523  1.0000
  C   C742      1.0  0.29210  0.80049  0.78644  1.0000
  S   S249      1.0  0.26401  0.82031  0.26914  1.0000
  C   C743      1.0  0.29748  0.83814  0.35142  1.0000
  C   C744      1.0  0.28375  0.83794  0.37680  1.0000
  C   C745      1.0  0.26865  0.84180  0.33087  1.0000
  C   C746      1.0  0.32416  0.73815  0.75273  1.0000
  C   C747      1.0  0.28213  0.84224  0.30475  1.0000
  C   C748      1.0  0.29663  0.84032  0.31515  1.0000
  S   S250      1.0  0.27653  0.80624  0.43718  1.0000
  H   H745      1.0  0.26127  0.80540  0.20122  1.0000
  S   S251      1.0  0.31824  0.74519  0.71085  1.0000
  S   S252      1.0  0.26920  0.81630  0.71225  1.0000
  H   H746      1.0  0.27971  0.81300  0.50457  1.0000
  C   C749      1.0  0.25597  0.82044  0.75129  1.0000
  C   C750      1.0  0.25129  0.80830  0.77802  1.0000
  H   H747      1.0  0.25749  0.84278  0.32256  1.0000
  H   H748      1.0  0.30872  0.83625  0.35996  1.0000
  C   C751      1.0  0.25531  0.83885  0.39317  1.0000
  H   H749      1.0  0.25266  0.84706  0.22015  1.0000
  C   C752      1.0  0.24606  0.82342  0.17123  1.0000
  C   C753      1.0  0.30939  0.74341  0.28205  1.0000
  C   C754      1.0  0.24927  0.81085  0.19879  1.0000
  C   C755      1.0  0.24122  0.81171  0.80953  1.0000
  S   S253      1.0  0.24776  0.75234  0.38424  1.0000
  H   H750      1.0  0.30723  0.73712  0.38984  1.0000
  H   H751      1.0  0.29809  0.75076  0.28704  1.0000
  H   H752      1.0  0.25709  0.84009  0.41993  1.0000
  S   S254      1.0  0.25496  0.78423  0.68035  1.0000
  H   H753      1.0  0.25574  0.82749  0.15208  1.0000
  H   H754      1.0  0.30721  0.84018  0.29519  1.0000
  C   C756      1.0  0.25017  0.83604  0.75590  1.0000
  C   C757      1.0  0.32220  0.74650  0.29337  1.0000
  H   H755      1.0  0.28457  0.83590  0.40498  1.0000
  H   H756      1.0  0.28127  0.73856  0.37390  1.0000
  N   N62       1.0  0.26956  0.83980  0.36635  1.0000
  C   C758      1.0  0.24272  0.84374  0.23944  1.0000
  H   H757      1.0  0.31211  0.73815  0.84212  1.0000
  C   C759      1.0  0.31422  0.74095  0.78472  1.0000
  H   H758      1.0  0.24648  0.75879  0.66935  1.0000
  H   H759      1.0  0.34684  0.73922  0.29500  1.0000
  H   H760      1.0  0.24314  0.77148  0.31560  1.0000
  H   H761      1.0  0.25196  0.82721  0.39607  1.0000
  H   H762      1.0  0.24553  0.84821  0.38526  1.0000
  H   H763      1.0  0.26519  0.73621  0.63579  1.0000
  C   C760      1.0  0.33688  0.73688  0.28635  1.0000
  C   C761      1.0  0.31978  0.73590  0.81740  1.0000
  H   H764      1.0  0.24664  0.98480  0.23489  1.0000
  H   H765      1.0  0.68708  0.17234  0.09492  1.0000
  C   C762      1.0  0.68364  0.21968  0.95836  1.0000
  S   S255      1.0  0.70100  0.23166  0.15078  1.0000
  C   C763      1.0  0.69077  0.21469  0.98884  1.0000
  H   H766      1.0  0.68633  0.17749  0.99835  1.0000
  C   C764      1.0  0.65265  0.23445  0.19272  1.0000
  H   H767      1.0  0.67048  0.19025  0.13482  1.0000
  H   H768      1.0  0.71030  0.20173  0.23988  1.0000
  C   C765      1.0  0.68536  0.17220  0.02720  1.0000
  C   C766      1.0  0.66476  0.19503  0.03699  1.0000
  C   C767      1.0  0.62592  0.23058  0.71371  1.0000
  N   N63       1.0  0.67603  0.18336  0.04995  1.0000
  Fe  Fe128     1.0  0.71955  0.21114  0.13810  1.0000
  Fe  Fe129     1.0  0.69618  0.21762  0.83456  1.0000
  S   S256      1.0  0.68143  0.22067  0.88866  1.0000
  Fe  Fe130     1.0  0.69473  0.22188  0.75526  1.0000
  Fe  Fe131     1.0  0.70683  0.20934  0.07242  1.0000
  S   S257      1.0  0.71266  0.19562  0.02708  1.0000
  H   H769      1.0  0.64685  0.21500  0.04808  1.0000
  S   S258      1.0  0.70262  0.19734  0.12986  1.0000
  C   C768      1.0  0.65552  0.20555  0.05867  1.0000
  C   C769      1.0  0.67811  0.18155  0.08465  1.0000
  S   S259      1.0  0.69507  0.20076  0.79928  1.0000
  H   H770      1.0  0.73522  0.21976  0.93298  1.0000
  Fe  Fe132     1.0  0.68442  0.21884  0.13801  1.0000
  H   H771      1.0  0.72754  0.17541  0.16495  1.0000
  Fe  Fe133     1.0  0.72132  0.19865  0.78572  1.0000
  C   C770      1.0  0.69020  0.21351  0.92693  1.0000
  C   C771      1.0  0.65762  0.20383  0.09404  1.0000
  H   H772      1.0  0.62027  0.23244  0.74051  1.0000
  S   S260      1.0  0.72095  0.21835  0.73902  1.0000
  C   C772      1.0  0.49551  0.22496  0.45250  1.0000
  H   H773      1.0  0.68576  0.21967  0.01274  1.0000
  S   S261      1.0  0.72236  0.21376  0.82487  1.0000
  C   C773      1.0  0.73597  0.17199  0.18282  1.0000
  C   C774      1.0  0.70413  0.20301  0.98854  1.0000
  H   H774      1.0  0.66309  0.19646  0.00947  1.0000
  C   C775      1.0  0.66886  0.19167  0.10726  1.0000
  H   H775      1.0  0.72078  0.18745  0.95710  1.0000
  C   C776      1.0  0.70368  0.20197  0.92647  1.0000
  C   C777      1.0  0.71048  0.19657  0.95741  1.0000
  H   H776      1.0  0.70874  0.19705  0.90243  1.0000
  H   H777      1.0  0.67314  0.22853  0.95891  1.0000
  H   H778      1.0  0.69755  0.16873  0.03275  1.0000
  H   H779      1.0  0.67999  0.16158  0.03203  1.0000
  S   S262      1.0  0.66144  0.21717  0.17531  1.0000
  Fe  Fe134     1.0  0.71975  0.23356  0.77908  1.0000
  S   S263      1.0  0.72539  0.22142  0.08002  1.0000
  C   C778      1.0  0.68884  0.21877  0.24227  1.0000
  H   H780      1.0  0.65948  0.21186  0.66975  1.0000
  H   H781      1.0  0.73485  0.14733  0.19132  1.0000
  H   H782      1.0  0.68137  0.21026  0.24454  1.0000
  H   H783      1.0  0.72708  0.22157  0.23298  1.0000
  C   C779      1.0  0.64113  0.23390  0.22366  1.0000
  S   S264      1.0  0.68706  0.22963  0.07975  1.0000
  C   C780      1.0  0.64032  0.22055  0.70840  1.0000
  S   S265      1.0  0.73799  0.20342  0.17330  1.0000
  S   S266      1.0  0.73932  0.17626  0.78462  1.0000
  H   H784      1.0  0.73429  0.14030  0.72217  1.0000
  H   H785      1.0  0.62043  0.22528  0.46775  1.0000
  H   H786      1.0  0.65950  0.21624  0.60734  1.0000
  C   C781      1.0  0.64789  0.21900  0.67353  1.0000
  C   C782      1.0  0.70501  0.21399  0.23969  1.0000
  N   N64       1.0  0.49793  0.22992  0.41622  1.0000
  H   H787      1.0  0.65062  0.21192  0.11126  1.0000
  H   H788      1.0  0.64603  0.21466  0.73100  1.0000
  H   H789      1.0  0.71685  0.23282  0.89150  1.0000
  H   H790      1.0  0.63755  0.22285  0.23649  1.0000
  S   S267      1.0  0.68065  0.22668  0.71060  1.0000
  C   C783      1.0  0.64964  0.22634  0.60822  1.0000
  H   H791      1.0  0.50382  0.22592  0.46850  1.0000
  N   N65       1.0  0.64120  0.22712  0.64475  1.0000
  H   H792      1.0  0.62905  0.22936  0.52118  1.0000
  H   H793      1.0  0.73002  0.18473  0.71455  1.0000
  C   C784      1.0  0.71447  0.22515  0.23575  1.0000
  H   H794      1.0  0.64164  0.22512  0.59078  1.0000
  H   H795      1.0  0.73748  0.11753  0.66809  1.0000
  H   H796      1.0  0.51725  0.23164  0.37360  1.0000
  H   H797      1.0  0.73204  0.22819  0.99166  1.0000
  C   C785      1.0  0.72611  0.22947  0.93995  1.0000
  H   H798      1.0  0.52082  0.23435  0.41565  1.0000
  C   C786      1.0  0.72435  0.23426  0.97285  1.0000
  C   C787      1.0  0.68239  0.23471  0.24048  1.0000
  Fe  Fe135     1.0  0.69004  0.38722  0.36398  1.0000
  S   S268      1.0  0.70996  0.37453  0.39176  1.0000
  S   S269      1.0  0.67932  0.41268  0.36644  1.0000
  Fe  Fe136     1.0  0.68545  0.35724  0.34270  1.0000
  S   S270      1.0  0.70498  0.34209  0.36919  1.0000
  S   S271      1.0  0.67371  0.34663  0.30959  1.0000
  Fe  Fe137     1.0  0.69524  0.35597  0.41369  1.0000
  S   S272      1.0  0.69045  0.34523  0.47185  1.0000
  Fe  Fe138     1.0  0.71794  0.36186  0.34469  1.0000
  Fe  Fe139     1.0  0.70535  0.24068  0.09204  1.0000
  S   S273      1.0  0.67449  0.36946  0.38927  1.0000
  S   S274      1.0  0.69918  0.37622  0.31469  1.0000
  Fe  Fe140     1.0  0.60522  0.30135  0.34821  1.0000
  S   S275      1.0  0.62317  0.27973  0.34123  1.0000
  S   S276      1.0  0.61044  0.32068  0.37179  1.0000
  Fe  Fe141     1.0  0.57966  0.28804  0.32636  1.0000
  S   S277      1.0  0.59585  0.26546  0.31741  1.0000
  S   S278      1.0  0.55421  0.29486  0.31824  1.0000
  Fe  Fe142     1.0  0.60354  0.26692  0.36825  1.0000
  S   S279      1.0  0.60673  0.24625  0.41208  1.0000
  Fe  Fe143     1.0  0.61395  0.28045  0.29108  1.0000
  S   S280      1.0  0.63021  0.27950  0.23784  1.0000
  S   S281      1.0  0.58612  0.28836  0.37917  1.0000
  S   S282      1.0  0.59721  0.30322  0.29603  1.0000
  H   H799      1.0  0.69638  0.29318  0.10912  1.0000
  N   N66       1.0  0.73792  0.33482  0.19529  1.0000
  S   S283      1.0  0.50757  0.25118  0.30590  1.0000
  H   H800      1.0  0.67229  0.44445  0.37968  1.0000
  H   H801      1.0  0.70216  0.29897  0.16458  1.0000
  C   C788      1.0  0.66097  0.24941  0.67454  1.0000
  N   N67       1.0  0.49338  0.31899  0.61901  1.0000
  Fe  Fe144     1.0  0.61303  0.28741  0.64559  1.0000
  S   S284      1.0  0.59914  0.31132  0.62831  1.0000
  S   S285      1.0  0.62028  0.27920  0.70003  1.0000
  Fe  Fe145     1.0  0.61785  0.27826  0.57281  1.0000
  S   S286      1.0  0.60550  0.30148  0.54842  1.0000
  S   S287      1.0  0.62857  0.25663  0.54910  1.0000
  Fe  Fe146     1.0  0.61801  0.31209  0.57971  1.0000
  S   S288      1.0  0.63191  0.33161  0.55635  1.0000
  Fe  Fe147     1.0  0.58749  0.29880  0.59876  1.0000
  S   S289      1.0  0.56280  0.30437  0.58580  1.0000
  S   S290      1.0  0.63227  0.28899  0.59840  1.0000
  S   S291      1.0  0.59942  0.27488  0.62142  1.0000
  H   H802      1.0  0.68130  0.25126  0.91291  1.0000
  Fe  Fe148     1.0  0.70745  0.37636  0.62128  1.0000
  S   S292      1.0  0.68429  0.39245  0.61917  1.0000
  S   S293      1.0  0.72319  0.37243  0.56943  1.0000
  Fe  Fe149     1.0  0.70203  0.36836  0.70176  1.0000
  S   S294      1.0  0.67839  0.38380  0.70570  1.0000
  S   S295      1.0  0.70740  0.35397  0.75449  1.0000
  Fe  Fe150     1.0  0.67490  0.37335  0.66053  1.0000
  S   S296      1.0  0.65260  0.36354  0.66743  1.0000
  Fe  Fe151     1.0  0.69014  0.40141  0.66431  1.0000
  S   S297      1.0  0.68367  0.42730  0.66937  1.0000
  S   S298      1.0  0.69778  0.35667  0.65964  1.0000
  S   S299      1.0  0.71412  0.38660  0.66339  1.0000
  C   C789      1.0  0.73142  0.25850  0.81139  1.0000
  H   H803      1.0  0.72953  0.29061  0.75729  1.0000
  S   S300      1.0  0.70708  0.26598  0.07459  1.0000
  H   H804      1.0  0.55087  0.29310  0.24001  1.0000
  C   C790      1.0  0.65732  0.24874  0.17648  1.0000
  C   C791      1.0  0.71888  0.27036  0.82047  1.0000
  C   C792      1.0  0.58103  0.26270  0.22981  1.0000
  S   S301      1.0  0.72319  0.46153  0.36252  1.0000
  H   H805      1.0  0.67619  0.43547  0.75474  1.0000
  C   C793      1.0  0.66023  0.39804  0.31074  1.0000
  C   C794      1.0  0.68500  0.26235  0.23040  1.0000
  C   C795      1.0  0.71416  0.46002  0.68771  1.0000
  C   C796      1.0  0.72093  0.44460  0.68252  1.0000
  C   C797      1.0  0.71191  0.43451  0.67596  1.0000
  C   C798      1.0  0.69596  0.43974  0.67473  1.0000
  C   C799      1.0  0.68927  0.45521  0.67948  1.0000
  C   C800      1.0  0.69829  0.46529  0.68592  1.0000
  H   H806      1.0  0.71723  0.42265  0.67232  1.0000
  H   H807      1.0  0.67695  0.45938  0.67857  1.0000
  N   N68       1.0  0.73909  0.31006  0.72496  1.0000
  C   C801      1.0  0.63819  0.26600  0.70246  1.0000
  C   C802      1.0  0.64733  0.26066  0.67191  1.0000
  N   N69       1.0  0.71016  0.40060  0.76862  1.0000
  C   C803      1.0  0.64311  0.26028  0.73563  1.0000
  H   H808      1.0  0.64361  0.26460  0.64641  1.0000
  H   H809      1.0  0.71095  0.25052  0.00714  1.0000
  H   H810      1.0  0.63611  0.26431  0.75947  1.0000
  C   C804      1.0  0.63732  0.34099  0.58684  1.0000
  C   C805      1.0  0.64917  0.35011  0.57511  1.0000
  C   C806      1.0  0.65396  0.35726  0.59930  1.0000
  C   C807      1.0  0.64664  0.35563  0.63520  1.0000
  C   C808      1.0  0.63452  0.34687  0.64657  1.0000
  C   C809      1.0  0.63004  0.33940  0.62269  1.0000
  H   H811      1.0  0.65476  0.35150  0.54733  1.0000
  H   H812      1.0  0.66323  0.36406  0.59021  1.0000
  H   H813      1.0  0.62871  0.34565  0.67420  1.0000
  H   H814      1.0  0.62081  0.33257  0.63201  1.0000
  C   C810      1.0  0.52235  0.27760  0.63578  1.0000
  C   C811      1.0  0.52272  0.28687  0.60178  1.0000
  C   C812      1.0  0.53546  0.29458  0.58631  1.0000
  C   C813      1.0  0.54805  0.29292  0.60438  1.0000
  C   C814      1.0  0.54803  0.28309  0.63763  1.0000
  C   C815      1.0  0.53517  0.27559  0.65336  1.0000
  H   H815      1.0  0.53533  0.30222  0.56065  1.0000
  H   H816      1.0  0.55761  0.28177  0.65190  1.0000
  H   H817      1.0  0.53496  0.26846  0.67971  1.0000
  C   C816      1.0  0.49260  0.30985  0.65222  1.0000
  C   C817      1.0  0.68343  0.41040  0.76117  1.0000
  C   C818      1.0  0.71772  0.27655  0.85156  1.0000
  C   C819      1.0  0.71731  0.43339  0.35472  1.0000
  C   C820      1.0  0.63890  0.26187  0.22177  1.0000
  H   H818      1.0  0.55591  0.26449  0.24148  1.0000
  C   C821      1.0  0.58014  0.26703  0.55193  1.0000
  H   H819      1.0  0.72850  0.24945  0.12144  1.0000
  H   H820      1.0  0.60540  0.26479  0.21888  1.0000
  C   C822      1.0  0.65037  0.26240  0.19080  1.0000
  H   H821      1.0  0.62561  0.24700  0.26243  1.0000
  S   S302      1.0  0.50553  0.26975  0.65878  1.0000
  H   H822      1.0  0.58457  0.24574  0.50920  1.0000
  H   H823      1.0  0.65388  0.27345  0.17770  1.0000
  C   C823      1.0  0.61314  0.24986  0.44899  1.0000
  C   C824      1.0  0.71242  0.24663  0.98168  1.0000
  H   H824      1.0  0.56272  0.29250  0.52122  1.0000
  C   C825      1.0  0.62247  0.25449  0.51040  1.0000
  C   C826      1.0  0.61607  0.26740  0.48692  1.0000
  C   C827      1.0  0.61162  0.26511  0.45584  1.0000
  C   C828      1.0  0.71217  0.33353  0.25004  1.0000
  H   H825      1.0  0.67228  0.40832  0.75763  1.0000
  H   H826      1.0  0.61478  0.27910  0.49243  1.0000
  H   H827      1.0  0.60678  0.27505  0.43756  1.0000
  C   C829      1.0  0.54131  0.28225  0.31700  1.0000
  C   C830      1.0  0.52596  0.28892  0.31152  1.0000
  C   C831      1.0  0.51551  0.27955  0.30844  1.0000
  C   C832      1.0  0.52031  0.26334  0.31052  1.0000
  C   C833      1.0  0.53566  0.25662  0.31616  1.0000
  C   C834      1.0  0.54610  0.26600  0.31957  1.0000
  H   H828      1.0  0.52212  0.30147  0.30944  1.0000
  H   H829      1.0  0.50377  0.28492  0.30400  1.0000
  H   H830      1.0  0.71037  0.27509  0.80293  1.0000
  H   H831      1.0  0.55789  0.26070  0.32366  1.0000
  C   C835      1.0  0.70023  0.35190  0.49918  1.0000
  C   C836      1.0  0.71408  0.35775  0.48510  1.0000
  C   C837      1.0  0.72131  0.36368  0.50704  1.0000
  C   C838      1.0  0.71461  0.36396  0.54300  1.0000
  C   C839      1.0  0.70076  0.35807  0.55708  1.0000
  C   C840      1.0  0.69373  0.35185  0.53533  1.0000
  H   H832      1.0  0.71940  0.35749  0.45749  1.0000
  C   C841      1.0  0.73031  0.32233  0.20249  1.0000
  H   H833      1.0  0.69541  0.35837  0.58467  1.0000
  H   H834      1.0  0.68306  0.34730  0.54631  1.0000
  C   C842      1.0  0.65667  0.33867  0.32865  1.0000
  C   C843      1.0  0.65170  0.32922  0.30993  1.0000
  C   C844      1.0  0.63772  0.32335  0.32334  1.0000
  C   C845      1.0  0.62841  0.32723  0.35514  1.0000
  C   C846      1.0  0.63335  0.33674  0.37384  1.0000
  C   C847      1.0  0.64755  0.34226  0.36093  1.0000
  H   H835      1.0  0.65866  0.32643  0.28488  1.0000
  H   H836      1.0  0.63400  0.31606  0.30870  1.0000
  H   H837      1.0  0.62613  0.33983  0.39838  1.0000
  H   H838      1.0  0.65123  0.34961  0.37544  1.0000
  C   C848      1.0  0.69156  0.42636  0.36430  1.0000
  C   C849      1.0  0.70784  0.42243  0.35541  1.0000
  H   H839      1.0  0.71317  0.41098  0.34884  1.0000
  C   C850      1.0  0.69436  0.45225  0.37223  1.0000
  N   N70       1.0  0.64845  0.32184  0.45718  1.0000
  C   C851      1.0  0.65785  0.31334  0.43256  1.0000
  C   C852      1.0  0.63325  0.31991  0.46930  1.0000
  C   C853      1.0  0.65193  0.30290  0.41862  1.0000
  C   C854      1.0  0.62693  0.30966  0.45570  1.0000
  C   C855      1.0  0.63635  0.30111  0.43025  1.0000
  C   C856      1.0  0.65492  0.33267  0.47146  1.0000
  H   H840      1.0  0.66994  0.31480  0.42317  1.0000
  H   H841      1.0  0.62586  0.32645  0.48927  1.0000
  H   H842      1.0  0.65926  0.29647  0.39841  1.0000
  H   H843      1.0  0.61473  0.30856  0.46431  1.0000
  H   H844      1.0  0.63147  0.29337  0.41899  1.0000
  H   H845      1.0  0.66351  0.33843  0.45061  1.0000
  H   H846      1.0  0.64563  0.34213  0.48134  1.0000
  H   H847      1.0  0.66083  0.32625  0.49423  1.0000
  H   H848      1.0  0.57069  0.26465  0.57505  1.0000
  C   C857      1.0  0.62702  0.23688  0.64973  1.0000
  H   H849      1.0  0.68470  0.38136  0.45895  1.0000
  H   H850      1.0  0.66305  0.30169  0.59671  1.0000
  S   S303      1.0  0.69365  0.23887  0.79146  1.0000
  H   H851      1.0  0.66990  0.39816  0.46838  1.0000
  H   H852      1.0  0.59038  0.25734  0.55377  1.0000
  C   C858      1.0  0.50564  0.32679  0.60524  1.0000
  H   H853      1.0  0.71592  0.35574  0.25773  1.0000
  H   H854      1.0  0.73222  0.38991  0.78462  1.0000
  C   C859      1.0  0.68560  0.42566  0.75968  1.0000
  C   C860      1.0  0.69233  0.25587  0.90211  1.0000
  H   H855      1.0  0.72392  0.41780  0.76749  1.0000
  C   C861      1.0  0.72894  0.27066  0.87373  1.0000
  H   H856      1.0  0.69419  0.38610  0.76641  1.0000
  C   C862      1.0  0.71976  0.34640  0.24200  1.0000
  H   H857      1.0  0.71152  0.31142  0.23603  1.0000
  H   H858      1.0  0.70213  0.44019  0.76015  1.0000
  C   C863      1.0  0.51779  0.32513  0.62439  1.0000
  H   H859      1.0  0.58210  0.31741  0.21507  1.0000
  C   C864      1.0  0.71223  0.27104  0.11133  1.0000
  C   C865      1.0  0.71247  0.41557  0.76661  1.0000
  H   H860      1.0  0.59989  0.29333  0.21774  1.0000
  C   C866      1.0  0.72684  0.26405  0.16040  1.0000
  H   H861      1.0  0.57445  0.24886  0.45301  1.0000
  H   H862      1.0  0.52785  0.33077  0.61281  1.0000
  H   H863      1.0  0.70923  0.40636  0.54322  1.0000
  C   C867      1.0  0.71917  0.27781  0.17316  1.0000
  H   H864      1.0  0.71499  0.31928  0.73953  1.0000
  C   C868      1.0  0.69591  0.39793  0.76573  1.0000
  H   H865      1.0  0.70849  0.28627  0.85768  1.0000
  C   C869      1.0  0.50451  0.30799  0.67215  1.0000
  N   N71       1.0  0.69178  0.24560  0.23597  1.0000
  C   C870      1.0  0.67987  0.38963  0.47814  1.0000
  C   C871      1.0  0.57177  0.31186  0.22808  1.0000
  C   C872      1.0  0.66369  0.32158  0.67572  1.0000
  C   C873      1.0  0.67393  0.32477  0.64346  1.0000
  C   C874      1.0  0.67371  0.31759  0.61484  1.0000
  H   H866      1.0  0.66347  0.32779  0.69721  1.0000
  H   H867      1.0  0.68142  0.33333  0.64018  1.0000
  H   H868      1.0  0.68120  0.32040  0.58930  1.0000
  N   N72       1.0  0.57427  0.26896  0.51837  1.0000
  C   C875      1.0  0.56524  0.28287  0.50639  1.0000
  C   C876      1.0  0.57732  0.25675  0.49994  1.0000
  C   C877      1.0  0.55926  0.28492  0.47477  1.0000
  C   C878      1.0  0.57156  0.25842  0.46817  1.0000
  C   C879      1.0  0.56247  0.27260  0.45557  1.0000
  H   H869      1.0  0.52687  0.31373  0.67248  1.0000
  H   H870      1.0  0.55227  0.29603  0.46507  1.0000
  H   H871      1.0  0.71473  0.46761  0.61200  1.0000
  N   N73       1.0  0.70386  0.24887  0.92566  1.0000
  H   H872      1.0  0.69294  0.26339  0.96466  1.0000
  H   H873      1.0  0.55809  0.27408  0.43072  1.0000
  C   C880      1.0  0.71739  0.32145  0.23007  1.0000
  H   H874      1.0  0.73322  0.44042  0.68367  1.0000
  H   H875      1.0  0.68989  0.26884  0.89966  1.0000
  N   N74       1.0  0.63571  0.38166  0.32182  1.0000
  C   C881      1.0  0.64788  0.37952  0.29410  1.0000
  C   C882      1.0  0.62242  0.37358  0.32677  1.0000
  H   H876      1.0  0.64823  0.37124  0.27679  1.0000
  H   H877      1.0  0.61278  0.38145  0.31425  1.0000
  H   H878      1.0  0.62580  0.36276  0.31459  1.0000
  H   H879      1.0  0.61806  0.36982  0.35568  1.0000
  H   H880      1.0  0.67019  0.38551  0.26689  1.0000
  C   C883      1.0  0.72328  0.38743  0.77140  1.0000
  S   S304      1.0  0.72586  0.47219  0.69674  1.0000
  C   C884      1.0  0.59338  0.27092  0.22303  1.0000
  H   H881      1.0  0.51294  0.28855  0.58800  1.0000
  C   C885      1.0  0.63547  0.39192  0.34396  1.0000
  C   C886      1.0  0.66036  0.38758  0.28829  1.0000
  H   H882      1.0  0.62579  0.39372  0.36582  1.0000
  H   H883      1.0  0.65435  0.23733  0.59685  1.0000
  H   H884      1.0  0.63055  0.30942  0.70703  1.0000
  C   C887      1.0  0.70494  0.28510  0.12332  1.0000
  C   C888      1.0  0.64776  0.40021  0.33884  1.0000
  C   C889      1.0  0.68487  0.44131  0.37266  1.0000
  N   N75       1.0  0.65352  0.31151  0.67929  1.0000
  C   C890      1.0  0.66350  0.30713  0.61897  1.0000
  H   H885      1.0  0.72024  0.31162  0.69787  1.0000
  C   C891      1.0  0.59017  0.28712  0.22231  1.0000
  H   H886      1.0  0.71296  0.46568  0.55002  1.0000
  C   C892      1.0  0.64254  0.30840  0.71276  1.0000
  C   C893      1.0  0.66550  0.24314  0.70782  1.0000
  H   H887      1.0  0.66986  0.40435  0.30663  1.0000
  C   C894      1.0  0.65352  0.30411  0.65169  1.0000
  C   C895      1.0  0.70018  0.42829  0.76260  1.0000
  N   N76       1.0  0.57504  0.29496  0.22772  1.0000
  C   C896      1.0  0.56564  0.27077  0.23547  1.0000
  H   H888      1.0  0.50420  0.30008  0.69765  1.0000
  H   H889      1.0  0.66008  0.24397  0.76424  1.0000
  H   H890      1.0  0.64184  0.31688  0.73072  1.0000
  H   H891      1.0  0.64773  0.40821  0.35663  1.0000
  H   H892      1.0  0.64615  0.29630  0.72695  1.0000
  C   C897      1.0  0.56286  0.28699  0.23440  1.0000
  H   H893      1.0  0.58338  0.25008  0.23112  1.0000
  H   H894      1.0  0.56848  0.31396  0.25618  1.0000
  C   C898      1.0  0.69501  0.39845  0.51413  1.0000
  C   C899      1.0  0.71919  0.47597  0.58956  1.0000
  N   N77       1.0  0.69201  0.39793  0.48126  1.0000
  H   H895      1.0  0.68524  0.26676  0.20130  1.0000
  H   H896      1.0  0.53952  0.24410  0.31775  1.0000
  H   H897      1.0  0.66617  0.24932  0.15260  1.0000
  H   H898      1.0  0.64551  0.29608  0.65478  1.0000
  H   H899      1.0  0.56193  0.31775  0.21369  1.0000
  H   H900      1.0  0.67266  0.26454  0.24445  1.0000
  C   C900      1.0  0.63439  0.24755  0.23842  1.0000
  C   C901      1.0  0.61917  0.23878  0.68424  1.0000
  H   H901      1.0  0.68910  0.46370  0.37879  1.0000
  H   H902      1.0  0.67547  0.38256  0.50410  1.0000
  H   H903      1.0  0.71751  0.33041  0.81101  1.0000
  H   H904      1.0  0.69761  0.40507  0.42493  1.0000
  C   C902      1.0  0.72303  0.26046  0.13019  1.0000
  C   C903      1.0  0.72630  0.34592  0.76397  1.0000
  H   H905      1.0  0.71788  0.41969  0.42864  1.0000
  H   H906      1.0  0.68875  0.39240  0.53829  1.0000
  C   C904      1.0  0.70006  0.40546  0.45088  1.0000
  H   H907      1.0  0.69171  0.26922  0.24057  1.0000
  C   C905      1.0  0.71156  0.41368  0.45285  1.0000
  H   H908      1.0  0.71920  0.37667  0.78757  1.0000
  H   H909      1.0  0.70230  0.33287  0.27179  1.0000
  C   C906      1.0  0.71488  0.41406  0.48623  1.0000
  S   S305      1.0  0.72294  0.28155  0.21286  1.0000
  C   C907      1.0  0.71065  0.44834  0.36318  1.0000
  C   C908      1.0  0.70657  0.40641  0.51711  1.0000
  H   H910      1.0  0.72989  0.43029  0.34757  1.0000
  C   C909      1.0  0.72781  0.33433  0.79433  1.0000
  S   S306      1.0  0.72912  0.27982  0.90926  1.0000
  C   C910      1.0  0.70816  0.28833  0.15471  1.0000
  H   H911      1.0  0.69655  0.25302  0.87472  1.0000
  H   H912      1.0  0.73202  0.36822  0.49603  1.0000
  H   H913      1.0  0.58408  0.27787  0.55377  1.0000
  H   H914      1.0  0.73424  0.31286  0.18712  1.0000
  C   C911      1.0  0.65674  0.24884  0.73836  1.0000
  H   H915      1.0  0.50623  0.33408  0.57899  1.0000
  H   H916      1.0  0.72453  0.33033  0.70046  1.0000
  C   C912      1.0  0.70222  0.25384  0.95759  1.0000
  H   H917      1.0  0.72884  0.38497  0.74424  1.0000
  H   H918      1.0  0.72392  0.42021  0.48812  1.0000
  H   H919      1.0  0.73862  0.35980  0.71896  1.0000
  H   H920      1.0  0.71509  0.24961  0.23009  1.0000
  S   S307      1.0  0.73413  0.25225  0.77037  1.0000
  C   C913      1.0  0.51723  0.31559  0.65796  1.0000
  C   C914      1.0  0.70763  0.24100  0.23383  1.0000
  C   C915      1.0  0.72400  0.31819  0.71504  1.0000
  H   H921      1.0  0.73530  0.25582  0.17456  1.0000
  C   C916      1.0  0.62411  0.23937  0.50318  1.0000
  H   H922      1.0  0.50842  0.24957  0.39034  1.0000
  C   C917      1.0  0.73266  0.34689  0.21427  1.0000
  H   H923      1.0  0.62196  0.24362  0.62684  1.0000
  H   H924      1.0  0.66769  0.24503  0.65086  1.0000
  C   C918      1.0  0.71829  0.47481  0.55477  1.0000
  H   H925      1.0  0.69287  0.47708  0.68992  1.0000
  C   C919      1.0  0.61926  0.23705  0.47290  1.0000
  C   C920      1.0  0.51183  0.23666  0.39826  1.0000
  H   H926      1.0  0.73872  0.35677  0.20877  1.0000
  C   C921      1.0  0.71565  0.23689  0.91662  1.0000
  H   H927      1.0  0.60826  0.24703  0.68808  1.0000
  H   H928      1.0  0.73572  0.29448  0.96560  1.0000
  H   H929      1.0  0.72963  0.30425  0.00359  1.0000
  H   H930      1.0  0.66986  0.23835  0.24208  1.0000
  H   H931      1.0  0.73755  0.32938  0.30771  1.0000
  H   H932      1.0  0.72303  0.48485  0.49922  1.0000
  C   C922      1.0  0.73950  0.29652  0.98957  1.0000
  C   C923      1.0  0.73967  0.35093  0.74256  1.0000
  C   C924      1.0  0.73988  0.29590  0.74738  1.0000
  S   S308      1.0  0.68004  0.69980  0.14800  1.0000
  Fe  Fe152     1.0  0.70426  0.69071  0.15981  1.0000
  S   S309      1.0  0.71586  0.66732  0.14467  1.0000
  Fe  Fe153     1.0  0.67152  0.70496  0.82195  1.0000
  S   S310      1.0  0.68784  0.68735  0.85322  1.0000
  S   S311      1.0  0.64961  0.69573  0.82089  1.0000
  Fe  Fe154     1.0  0.70677  0.69478  0.80927  1.0000
  Fe  Fe155     1.0  0.50672  0.60391  0.65437  1.0000
  S   S312      1.0  0.69036  0.71113  0.77589  1.0000
  H   H933      1.0  0.66084  0.50600  0.45123  1.0000
  S   S313      1.0  0.72009  0.50805  0.33719  1.0000
  C   C925      1.0  0.62699  0.65661  0.45875  1.0000
  Fe  Fe156     1.0  0.70038  0.50402  0.43712  1.0000
  S   S314      1.0  0.69036  0.49648  0.39624  1.0000
  S   S315      1.0  0.68848  0.50037  0.49482  1.0000
  H   H934      1.0  0.52917  0.63508  0.29253  1.0000
  H   H935      1.0  0.66908  0.67938  0.93091  1.0000
  Fe  Fe157     1.0  0.69599  0.51892  0.36150  1.0000
  S   S316      1.0  0.68004  0.53609  0.32755  1.0000
  S   S317      1.0  0.72494  0.49213  0.41960  1.0000
  S   S318      1.0  0.70395  0.52723  0.40405  1.0000
  C   C926      1.0  0.65137  0.67097  0.18833  1.0000
  H   H936      1.0  0.65042  0.63591  0.81785  1.0000
  S   S319      1.0  0.51388  0.58138  0.36681  1.0000
  Fe  Fe158     1.0  0.58434  0.62267  0.37004  1.0000
  S   S320      1.0  0.58799  0.60931  0.42427  1.0000
  S   S321      1.0  0.55956  0.62885  0.35764  1.0000
  Fe  Fe159     1.0  0.61776  0.63028  0.35099  1.0000
  S   S322      1.0  0.62349  0.61753  0.40433  1.0000
  S   S323      1.0  0.63930  0.63881  0.31564  1.0000
  Fe  Fe160     1.0  0.61160  0.59905  0.39628  1.0000
  S   S324      1.0  0.62204  0.57410  0.41630  1.0000
  Fe  Fe161     1.0  0.59963  0.62880  0.42756  1.0000
  S   S325      1.0  0.59367  0.63982  0.47701  1.0000
  S   S326      1.0  0.60726  0.61077  0.34108  1.0000
  S   S327      1.0  0.59458  0.64319  0.37510  1.0000
  C   C927      1.0  0.71011  0.56499  0.76701  1.0000
  S   S328      1.0  0.71591  0.51039  0.74516  1.0000
  Fe  Fe162     1.0  0.69338  0.72887  0.80670  1.0000
  Fe  Fe163     1.0  0.70886  0.52895  0.64878  1.0000
  S   S329      1.0  0.69496  0.51128  0.68294  1.0000
  S   S330      1.0  0.70515  0.54092  0.59321  1.0000
  Fe  Fe164     1.0  0.69400  0.52468  0.72662  1.0000
  S   S331      1.0  0.67234  0.52964  0.76718  1.0000
  Fe  Fe165     1.0  0.71797  0.49841  0.69775  1.0000
  S   S332      1.0  0.70574  0.54357  0.69124  1.0000
  H   H937      1.0  0.72488  0.56712  0.83958  1.0000
  Fe  Fe166     1.0  0.62852  0.64792  0.69058  1.0000
  S   S333      1.0  0.64395  0.62477  0.68272  1.0000
  S   S334      1.0  0.64146  0.66782  0.68830  1.0000
  Fe  Fe167     1.0  0.59849  0.63463  0.69526  1.0000
  S   S335      1.0  0.61188  0.61049  0.68985  1.0000
  S   S336      1.0  0.57191  0.64028  0.70041  1.0000
  Fe  Fe168     1.0  0.62647  0.61456  0.72663  1.0000
  S   S337      1.0  0.63336  0.59786  0.77522  1.0000
  Fe  Fe169     1.0  0.62794  0.62313  0.64625  1.0000
  S   S338      1.0  0.63670  0.61322  0.59498  1.0000
  S   S339      1.0  0.61167  0.63771  0.73656  1.0000
  S   S340      1.0  0.61400  0.64724  0.64981  1.0000
  C   C928      1.0  0.68655  0.72529  0.03156  1.0000
  S   S341      1.0  0.53284  0.59771  0.65483  1.0000
  C   C929      1.0  0.56174  0.62940  0.68251  1.0000
  C   C930      1.0  0.54574  0.63474  0.68123  1.0000
  C   C931      1.0  0.53683  0.62545  0.67139  1.0000
  C   C932      1.0  0.54386  0.61066  0.66298  1.0000
  C   C933      1.0  0.55998  0.60562  0.66272  1.0000
  C   C934      1.0  0.56890  0.61495  0.67235  1.0000
  H   H938      1.0  0.54014  0.64598  0.68871  1.0000
  H   H939      1.0  0.52449  0.62959  0.67116  1.0000
  H   H940      1.0  0.56556  0.59427  0.65587  1.0000
  H   H941      1.0  0.58120  0.61073  0.67289  1.0000
  C   C935      1.0  0.66222  0.54898  0.76789  1.0000
  C   C936      1.0  0.66515  0.56141  0.73986  1.0000
  C   C937      1.0  0.65613  0.57653  0.74118  1.0000
  C   C938      1.0  0.64454  0.57921  0.77102  1.0000
  C   C939      1.0  0.64204  0.56685  0.79927  1.0000
  C   C940      1.0  0.65066  0.55178  0.79748  1.0000
  H   H942      1.0  0.67400  0.55935  0.71677  1.0000
  H   H943      1.0  0.65821  0.58610  0.71943  1.0000
  H   H944      1.0  0.63318  0.56890  0.82248  1.0000
  H   H945      1.0  0.64834  0.54226  0.81922  1.0000
  H   H946      1.0  0.65721  0.63109  0.49130  1.0000
  C   C941      1.0  0.60473  0.63098  0.51101  1.0000
  C   C942      1.0  0.60116  0.63687  0.54311  1.0000
  C   C943      1.0  0.61056  0.63100  0.56952  1.0000
  C   C944      1.0  0.62381  0.61943  0.56376  1.0000
  C   C945      1.0  0.62716  0.61320  0.53205  1.0000
  C   C946      1.0  0.61754  0.61886  0.50585  1.0000
  H   H947      1.0  0.59120  0.64616  0.54746  1.0000
  H   H948      1.0  0.60763  0.63565  0.59409  1.0000
  H   H949      1.0  0.63728  0.60412  0.52753  1.0000
  H   H950      1.0  0.62030  0.61408  0.48140  1.0000
  H   H951      1.0  0.68258  0.66502  0.17461  1.0000
  C   C947      1.0  0.55491  0.62757  0.49784  1.0000
  C   C948      1.0  0.54694  0.61512  0.36452  1.0000
  C   C949      1.0  0.55274  0.59922  0.36370  1.0000
  C   C950      1.0  0.54240  0.58893  0.36549  1.0000
  C   C951      1.0  0.52618  0.59439  0.36865  1.0000
  C   C952      1.0  0.52032  0.61016  0.37101  1.0000
  C   C953      1.0  0.53069  0.62050  0.36862  1.0000
  H   H952      1.0  0.56523  0.59494  0.36052  1.0000
  H   H953      1.0  0.54702  0.57673  0.36380  1.0000
  H   H954      1.0  0.50786  0.61450  0.37359  1.0000
  H   H955      1.0  0.52610  0.63278  0.36937  1.0000
  C   C954      1.0  0.69198  0.51238  0.52207  1.0000
  C   C955      1.0  0.68927  0.50781  0.55936  1.0000
  C   C956      1.0  0.69322  0.51650  0.58150  1.0000
  C   C957      1.0  0.69957  0.53002  0.56646  1.0000
  C   C958      1.0  0.70169  0.53494  0.52931  1.0000
  C   C959      1.0  0.69807  0.52605  0.50713  1.0000
  C   C960      1.0  0.73984  0.64463  0.16485  1.0000
  H   H956      1.0  0.69142  0.51265  0.61008  1.0000
  H   H957      1.0  0.68193  0.67478  0.79014  1.0000
  H   H958      1.0  0.70005  0.52978  0.47850  1.0000
  C   C961      1.0  0.66506  0.54828  0.35173  1.0000
  C   C962      1.0  0.66343  0.54649  0.38890  1.0000
  C   C963      1.0  0.65069  0.55528  0.40829  1.0000
  C   C964      1.0  0.63950  0.56595  0.39069  1.0000
  C   C965      1.0  0.64145  0.56829  0.35333  1.0000
  C   C966      1.0  0.65420  0.55940  0.33389  1.0000
  H   H959      1.0  0.67162  0.53791  0.40300  1.0000
  H   H960      1.0  0.64928  0.55351  0.43715  1.0000
  H   H961      1.0  0.63280  0.57645  0.33958  1.0000
  H   H962      1.0  0.65543  0.56086  0.30510  1.0000
  S   S342      1.0  0.71140  0.71276  0.83674  1.0000
  H   H963      1.0  0.49195  0.56673  0.58542  1.0000
  H   H964      1.0  0.71229  0.66487  0.22157  1.0000
  Fe  Fe170     1.0  0.69085  0.70686  0.87869  1.0000
  H   H965      1.0  0.54333  0.61653  0.44410  1.0000
  C   C967      1.0  0.64715  0.68841  0.78357  1.0000
  C   C968      1.0  0.63608  0.67862  0.78816  1.0000
  C   C969      1.0  0.63414  0.67224  0.75929  1.0000
  C   C970      1.0  0.64306  0.67583  0.72538  1.0000
  C   C971      1.0  0.65392  0.68585  0.72070  1.0000
  C   C972      1.0  0.65605  0.69201  0.74967  1.0000
  H   H966      1.0  0.62903  0.67586  0.81419  1.0000
  H   H967      1.0  0.62566  0.66464  0.76318  1.0000
  H   H968      1.0  0.66077  0.68882  0.69450  1.0000
  H   H969      1.0  0.66444  0.69971  0.74560  1.0000
  S   S343      1.0  0.68257  0.73226  0.17319  1.0000
  H   H970      1.0  0.54493  0.62285  0.58848  1.0000
  H   H971      1.0  0.70015  0.64093  0.19643  1.0000
  H   H972      1.0  0.63058  0.71725  0.87132  1.0000
  H   H973      1.0  0.69613  0.52683  0.85922  1.0000
  C   C973      1.0  0.72124  0.54847  0.28562  1.0000
  C   C974      1.0  0.64497  0.72703  0.93674  1.0000
  Fe  Fe171     1.0  0.72797  0.52870  0.70685  1.0000
  C   C975      1.0  0.64359  0.70104  0.90904  1.0000
  H   H974      1.0  0.71930  0.67438  0.86151  1.0000
  C   C976      1.0  0.52807  0.62546  0.51587  1.0000
  H   H975      1.0  0.63315  0.64938  0.51152  1.0000
  C   C977      1.0  0.55165  0.60175  0.75698  1.0000
  H   H976      1.0  0.51926  0.62244  0.57274  1.0000
  H   H977      1.0  0.71052  0.54523  0.86538  1.0000
  C   C978      1.0  0.63038  0.67092  0.29447  1.0000
  C   C979      1.0  0.64264  0.65817  0.29831  1.0000
  C   C980      1.0  0.65811  0.66049  0.28519  1.0000
  C   C981      1.0  0.66133  0.67522  0.26691  1.0000
  H   H978      1.0  0.69889  0.65982  0.78096  1.0000
  H   H979      1.0  0.66769  0.65072  0.28823  1.0000
  H   H980      1.0  0.67328  0.67675  0.25621  1.0000
  Fe  Fe172     1.0  0.70685  0.72083  0.18366  1.0000
  C   C982      1.0  0.63362  0.68575  0.27662  1.0000
  C   C983      1.0  0.65536  0.64415  0.22218  1.0000
  H   H981      1.0  0.65012  0.67120  0.16036  1.0000
  H   H982      1.0  0.62407  0.69552  0.27310  1.0000
  N   N78       1.0  0.51387  0.60522  0.27985  1.0000
  C   C984      1.0  0.65895  0.63609  0.76164  1.0000
  H   H983      1.0  0.73238  0.65159  0.01544  1.0000
  H   H984      1.0  0.52862  0.58284  0.28931  1.0000
  H   H985      1.0  0.54688  0.63637  0.43375  1.0000
  H   H986      1.0  0.70648  0.54547  0.51754  1.0000
  H   H987      1.0  0.66907  0.63939  0.70566  1.0000
  C   C985      1.0  0.52825  0.62138  0.76331  1.0000
  H   H988      1.0  0.69683  0.52372  0.81463  1.0000
  C   C986      1.0  0.65400  0.63635  0.43608  1.0000
  Fe  Fe173     1.0  0.67574  0.70881  0.19980  1.0000
  C   C987      1.0  0.64907  0.68789  0.26215  1.0000
  S   S344      1.0  0.69954  0.69806  0.21365  1.0000
  N   N79       1.0  0.65953  0.56357  0.63466  1.0000
  C   C988      1.0  0.64690  0.57260  0.65199  1.0000
  C   C989      1.0  0.66412  0.54820  0.64906  1.0000
  C   C990      1.0  0.63828  0.56618  0.68415  1.0000
  C   C991      1.0  0.65583  0.54143  0.68131  1.0000
  C   C992      1.0  0.64278  0.55048  0.69881  1.0000
  C   C993      1.0  0.66874  0.57049  0.60147  1.0000
  H   H989      1.0  0.64346  0.58488  0.64117  1.0000
  H   H990      1.0  0.67434  0.54115  0.63572  1.0000
  H   H991      1.0  0.62844  0.57347  0.69809  1.0000
  H   H992      1.0  0.65969  0.52935  0.69313  1.0000
  H   H993      1.0  0.63653  0.54548  0.72434  1.0000
  H   H994      1.0  0.67197  0.56234  0.58175  1.0000
  H   H995      1.0  0.66213  0.58169  0.58874  1.0000
  H   H996      1.0  0.67971  0.57281  0.60717  1.0000
  C   C994      1.0  0.69362  0.53273  0.83231  1.0000
  H   H997      1.0  0.69164  0.67432  0.74525  1.0000
  N   N80       1.0  0.51994  0.61183  0.75447  1.0000
  H   H998      1.0  0.56789  0.62630  0.53996  1.0000
  N   N81       1.0  0.70228  0.54562  0.81718  1.0000
  C   C995      1.0  0.54375  0.62415  0.56067  1.0000
  H   H999      1.0  0.52129  0.58761  0.24729  1.0000
  C   C996      1.0  0.55662  0.62604  0.53352  1.0000
  N   N82       1.0  0.63085  0.65479  0.42363  1.0000
  Fe  Fe174     1.0  0.68893  0.72196  0.12231  1.0000
  H   H1000     1.0  0.55095  0.62433  0.77022  1.0000
  H   H1001     1.0  0.56500  0.62894  0.47694  1.0000
  S   S345      1.0  0.65257  0.70628  0.23689  1.0000
  C   C997      1.0  0.66910  0.64203  0.73174  1.0000
  H   H1002     1.0  0.66441  0.62828  0.42693  1.0000
  N   N83       1.0  0.62497  0.53223  0.41408  1.0000
  C   C998      1.0  0.62637  0.53159  0.44887  1.0000
  C   C999      1.0  0.63615  0.52360  0.39241  1.0000
  C   C1000     1.0  0.63924  0.52207  0.46278  1.0000
  C   C1001     1.0  0.64909  0.51390  0.40549  1.0000
  C   C1002     1.0  0.65065  0.51317  0.44091  1.0000
  C   C1003     1.0  0.61145  0.54208  0.39956  1.0000
  H   H1003     1.0  0.61780  0.53886  0.46570  1.0000
  H   H1004     1.0  0.63530  0.52446  0.36454  1.0000
  H   H1005     1.0  0.64057  0.52187  0.49006  1.0000
  H   H1006     1.0  0.65117  0.62859  0.75905  1.0000
  S   S346      1.0  0.72635  0.73117  0.19605  1.0000
  H   H1007     1.0  0.60404  0.54959  0.41865  1.0000
  H   H1008     1.0  0.61548  0.55018  0.37496  1.0000
  H   H1009     1.0  0.60413  0.53469  0.39319  1.0000
  H   H1010     1.0  0.54893  0.58099  0.73989  1.0000
  C   C1004     1.0  0.50526  0.63672  0.28617  1.0000
  C   C1005     1.0  0.72687  0.65561  0.17618  1.0000
  N   N84       1.0  0.73012  0.49769  0.53199  1.0000
  C   C1006     1.0  0.68127  0.62925  0.22617  1.0000
  H   H1011     1.0  0.65079  0.67520  0.95861  1.0000
  C   C1007     1.0  0.65911  0.68354  0.95134  1.0000
  H   H1012     1.0  0.68451  0.49726  0.57108  1.0000
  C   C1008     1.0  0.72400  0.48573  0.52611  1.0000
  C   C1009     1.0  0.68757  0.64171  0.20386  1.0000
  C   C1010     1.0  0.66506  0.63042  0.23533  1.0000
  S   S347      1.0  0.72511  0.67664  0.78484  1.0000
  C   C1011     1.0  0.65204  0.71198  0.95101  1.0000
  C   C1012     1.0  0.73267  0.55276  0.25667  1.0000
  Fe  Fe175     1.0  0.72775  0.51489  0.38245  1.0000
  H   H1013     1.0  0.72755  0.64724  0.26572  1.0000
  H   H1014     1.0  0.66754  0.65386  0.82279  1.0000
  H   H1015     1.0  0.62342  0.67589  0.38947  1.0000
  C   C1013     1.0  0.53945  0.62832  0.45188  1.0000
  H   H1016     1.0  0.71035  0.57012  0.73898  1.0000
  H   H1017     1.0  0.56416  0.59814  0.75648  1.0000
  H   H1018     1.0  0.65998  0.62100  0.25345  1.0000
  C   C1014     1.0  0.54420  0.61646  0.76488  1.0000
  C   C1015     1.0  0.54312  0.59213  0.74775  1.0000
  H   H1019     1.0  0.64744  0.64367  0.38403  1.0000
  C   C1016     1.0  0.72245  0.65660  0.21256  1.0000
  C   C1017     1.0  0.68616  0.72586  0.96825  1.0000
  C   C1018     1.0  0.63653  0.64829  0.48344  1.0000
  H   H1020     1.0  0.73593  0.50838  0.57082  1.0000
  H   H1021     1.0  0.51682  0.62519  0.50938  1.0000
  H   H1022     1.0  0.64279  0.64509  0.23037  1.0000
  H   H1023     1.0  0.69578  0.54848  0.76610  1.0000
  C   C1019     1.0  0.71021  0.55081  0.83780  1.0000
  H   H1024     1.0  0.68894  0.61878  0.23660  1.0000
  H   H1025     1.0  0.73509  0.54721  0.23322  1.0000
  H   H1026     1.0  0.65620  0.68141  0.18943  1.0000
  C   C1020     1.0  0.71862  0.55533  0.31606  1.0000
  H   H1027     1.0  0.61840  0.66929  0.30421  1.0000
  S   S348      1.0  0.69188  0.69877  0.93816  1.0000
  N   N85       1.0  0.54075  0.62737  0.48939  1.0000
  C   C1021     1.0  0.67865  0.65210  0.73527  1.0000
  C   C1022     1.0  0.65852  0.64022  0.79467  1.0000
  H   H1028     1.0  0.68617  0.65698  0.71166  1.0000
  C   C1023     1.0  0.72750  0.56644  0.31715  1.0000
  C   C1024     1.0  0.52719  0.59742  0.74643  1.0000
  C   C1025     1.0  0.69030  0.70951  0.97299  1.0000
  H   H1029     1.0  0.69569  0.68849  0.01108  1.0000
  H   H1030     1.0  0.50259  0.62203  0.72225  1.0000
  N   N86       1.0  0.66165  0.65650  0.20121  1.0000
  H   H1031     1.0  0.52274  0.63310  0.76797  1.0000
  C   C1026     1.0  0.64431  0.64503  0.41198  1.0000
  H   H1032     1.0  0.61620  0.66416  0.46812  1.0000
  C   C1027     1.0  0.69254  0.70114  0.00708  1.0000
  C   C1028     1.0  0.52937  0.62388  0.55185  1.0000
  S   S349      1.0  0.71356  0.71226  0.13068  1.0000
  C   C1029     1.0  0.62079  0.66384  0.39819  1.0000
  H   H1033     1.0  0.52723  0.63285  0.44723  1.0000
  C   C1030     1.0  0.52473  0.61315  0.28450  1.0000
  C   C1031     1.0  0.69077  0.70897  0.03615  1.0000
  H   H1034     1.0  0.69261  0.70234  0.06217  1.0000
  N   N87       1.0  0.67799  0.65627  0.76768  1.0000
  C   C1032     1.0  0.66821  0.65036  0.79724  1.0000
  H   H1035     1.0  0.60823  0.66446  0.41064  1.0000
  C   C1033     1.0  0.68814  0.66674  0.77116  1.0000
  H   H1036     1.0  0.63961  0.67218  0.20554  1.0000
  S   S350      1.0  0.49683  0.59623  0.61343  1.0000
  H   H1037     1.0  0.62259  0.65830  0.37409  1.0000
  C   C1034     1.0  0.65002  0.63797  0.47206  1.0000
  C   C1035     1.0  0.52060  0.62900  0.28777  1.0000
  H   H1038     1.0  0.65805  0.50740  0.38782  1.0000
  C   C1036     1.0  0.73078  0.66153  0.81892  1.0000
  C   C1037     1.0  0.67754  0.65533  0.19153  1.0000
  C   C1038     1.0  0.73116  0.49886  0.56604  1.0000
  C   C1039     1.0  0.72625  0.66349  0.85471  1.0000
  H   H1039     1.0  0.53657  0.60712  0.28687  1.0000
  C   C1040     1.0  0.70208  0.55260  0.78232  1.0000
  H   H1040     1.0  0.50879  0.58215  0.28950  1.0000
  H   H1041     1.0  0.72766  0.65308  0.90955  1.0000
  C   C1041     1.0  0.63631  0.71589  0.89422  1.0000
  H   H1042     1.0  0.70983  0.55195  0.33875  1.0000
  C   C1042     1.0  0.71818  0.57039  0.78783  1.0000
  H   H1043     1.0  0.72625  0.73194  0.77050  1.0000
  C   C1043     1.0  0.71826  0.56328  0.82347  1.0000
  C   C1044     1.0  0.73113  0.65148  0.88191  1.0000
  H   H1044     1.0  0.71446  0.53975  0.28468  1.0000
  H   H1045     1.0  0.65837  0.71062  0.97286  1.0000
  H   H1046     1.0  0.72473  0.57978  0.77610  1.0000
  H   H1047     1.0  0.52083  0.59021  0.73746  1.0000
  N   N88       1.0  0.65129  0.69924  0.93709  1.0000
  S   S351      1.0  0.73215  0.51552  0.66068  1.0000
  H   H1048     1.0  0.72556  0.57153  0.34116  1.0000
  C   C1045     1.0  0.73100  0.64654  0.23756  1.0000
  S   S352      1.0  0.67287  0.72422  0.85075  1.0000
  Fe  Fe176     1.0  0.71516  0.48610  0.37603  1.0000
  C   C1046     1.0  0.50349  0.61746  0.75081  1.0000
  H   H1049     1.0  0.64327  0.69099  0.89749  1.0000
  C   C1047     1.0  0.51841  0.58867  0.27602  1.0000
  H   H1050     1.0  0.68083  0.53724  0.83438  1.0000
  H   H1051     1.0  0.72640  0.48903  0.62234  1.0000
  C   C1048     1.0  0.49435  0.62864  0.28064  1.0000
  H   H1052     1.0  0.66403  0.68352  0.97549  1.0000
  H   H1053     1.0  0.49788  0.62697  0.76646  1.0000
  C   C1049     1.0  0.63704  0.72896  0.90817  1.0000
  S   S353      1.0  0.49384  0.62862  0.64650  1.0000
  H   H1054     1.0  0.68434  0.73244  0.94219  1.0000
  H   H1055     1.0  0.49656  0.60788  0.76057  1.0000
  C   C1050     1.0  0.72572  0.48802  0.59531  1.0000
  H   H1056     1.0  0.73500  0.52060  0.50900  1.0000
  H   H1057     1.0  0.72965  0.51070  0.47907  1.0000
  H   H1058     1.0  0.50179  0.64892  0.28941  1.0000
  C   C1051     1.0  0.49892  0.61283  0.27723  1.0000
  C   C1052     1.0  0.73623  0.50890  0.50150  1.0000
  C   C1053     1.0  0.68426  0.73370  0.99747  1.0000
  N   N89       1.0  0.73864  0.57066  0.28857  1.0000
  H   H1059     1.0  0.49035  0.60667  0.27282  1.0000
  C   C1054     1.0  0.73917  0.64035  0.02518  1.0000
  H   H1060     1.0  0.73970  0.64650  0.07580  1.0000
  C   C1055     1.0  0.72779  0.80021  0.45551  1.0000
  C   C1056     1.0  0.71749  0.77011  0.73173  1.0000
  H   H1061     1.0  0.73218  0.76629  0.79701  1.0000
  N   N90       1.0  0.72730  0.79077  0.42900  1.0000
  C   C1057     1.0  0.71930  0.76597  0.14311  1.0000
  C   C1058     1.0  0.73327  0.79554  0.76894  1.0000
  H   H1062     1.0  0.70406  0.77190  0.27204  1.0000
  C   C1059     1.0  0.69673  0.76326  0.10618  1.0000
  C   C1060     1.0  0.71460  0.76524  0.25900  1.0000
  H   H1063     1.0  0.71581  0.80392  0.46996  1.0000
  H   H1064     1.0  0.70207  0.75140  0.23883  1.0000
  H   H1065     1.0  0.71696  0.73785  0.06960  1.0000
  C   C1061     1.0  0.72633  0.77320  0.37812  1.0000
  C   C1062     1.0  0.69218  0.77002  0.13715  1.0000
  C   C1063     1.0  0.72696  0.74501  0.22289  1.0000
  H   H1066     1.0  0.72621  0.76645  0.35782  1.0000
  H   H1067     1.0  0.70025  0.77635  0.18007  1.0000
  S   S354      1.0  0.69659  0.75340  0.77854  1.0000
  H   H1068     1.0  0.70764  0.77967  0.72988  1.0000
  H   H1069     1.0  0.68778  0.76205  0.09223  1.0000
  C   C1064     1.0  0.73371  0.77516  0.43325  1.0000
  C   C1065     1.0  0.72019  0.79772  0.40013  1.0000
  C   C1066     1.0  0.71956  0.78904  0.37434  1.0000
  C   C1067     1.0  0.72928  0.76833  0.26103  1.0000
  H   H1070     1.0  0.70831  0.75543  0.04316  1.0000
  H   H1071     1.0  0.72821  0.76657  0.15789  1.0000
  C   C1068     1.0  0.71517  0.75556  0.75278  1.0000
  C   C1069     1.0  0.72790  0.74322  0.75470  1.0000
  N   N91       1.0  0.71221  0.75802  0.09400  1.0000
  H   H1072     1.0  0.67988  0.77387  0.14710  1.0000
  S   S355      1.0  0.68395  0.73547  0.06787  1.0000
  C   C1070     1.0  0.71343  0.75361  0.24020  1.0000
  C   C1071     1.0  0.72341  0.75896  0.11252  1.0000
  C   C1072     1.0  0.73254  0.77242  0.71351  1.0000
  H   H1073     1.0  0.68098  0.74634  0.99366  1.0000
  C   C1073     1.0  0.73527  0.81034  0.74927  1.0000
  H   H1074     1.0  0.71421  0.79462  0.35103  1.0000
  C   C1074     1.0  0.70358  0.77141  0.15563  1.0000
  H   H1075     1.0  0.73430  0.78372  0.69791  1.0000
  S   S356      1.0  0.73018  0.78335  0.28436  1.0000
  H   H1076     1.0  0.73958  0.76966  0.45579  1.0000
  H   H1077     1.0  0.71517  0.81011  0.39662  1.0000
  H   H1078     1.0  0.73295  0.81076  0.44210  1.0000
  H   H1079     1.0  0.73517  0.79362  0.47561  1.0000
  C   C1075     1.0  0.73347  0.76618  0.40773  1.0000
  C   C1076     1.0  0.71677  0.75067  0.06193  1.0000
  H   H1080     1.0  0.63177  0.74058  0.89632  1.0000
  H   H1081     1.0  0.72151  0.79300  0.77800  1.0000
  H   H1082     1.0  0.73559  0.75409  0.10406  1.0000
  H   H1083     1.0  0.72522  0.81914  0.74310  1.0000
  H   H1084     1.0  0.73904  0.75395  0.41059  1.0000
  H   H1085     1.0  0.72850  0.75271  0.04724  1.0000
  H   H1086     1.0  0.64592  0.73711  0.94738  1.0000
  Fe  Fe177     1.0  0.95703  0.09818  0.19562  1.0000
  S   S357      1.0  0.94923  0.11900  0.15583  1.0000
  S   S358      1.0  0.94207  0.07921  0.21593  1.0000
  Fe  Fe178     1.0  0.95612  0.13301  0.19015  1.0000
  S   S359      1.0  0.93871  0.15501  0.19950  1.0000
  S   S360      1.0  0.96243  0.11231  0.23225  1.0000
  Fe  Fe179     1.0  0.89140  0.03776  0.12510  1.0000
  S   S361      1.0  0.86824  0.05207  0.11436  1.0000
  S   S362      1.0  0.91129  0.05176  0.11378  1.0000
  S   S363      1.0  0.85613  0.01910  0.11644  1.0000
  Fe  Fe180     1.0  0.86900  0.03605  0.07623  1.0000
  S   S364      1.0  0.86619  0.04733  0.01990  1.0000
  Fe  Fe181     1.0  0.85758  0.03394  0.15592  1.0000
  S   S365      1.0  0.83557  0.04092  0.19470  1.0000
  S   S366      1.0  0.89269  0.02265  0.08422  1.0000
  S   S367      1.0  0.88069  0.02043  0.17012  1.0000
  Fe  Fe182     1.0  0.85787  0.01275  0.86745  1.0000
  H   H1087     1.0  0.83592  0.20719  0.45139  1.0000
  S   S368      1.0  0.84184  0.01279  0.92090  1.0000
  Fe  Fe183     1.0  0.86783  0.02213  0.78787  1.0000
  S   S369      1.0  0.89167  0.00674  0.78783  1.0000
  S   S370      1.0  0.86401  0.03657  0.73404  1.0000
  H   H1088     1.0  0.96871  0.16117  0.86894  1.0000
  Fe  Fe184     1.0  0.89171  0.01612  0.83744  1.0000
  S   S371      1.0  0.91160  0.02097  0.85977  1.0000
  S   S372      1.0  0.85437  0.00351  0.82028  1.0000
  S   S373      1.0  0.86900  0.03287  0.83478  1.0000
  S   S374      1.0  0.93376  0.10966  0.89191  1.0000
  Fe  Fe185     1.0  0.80826  0.11487  0.28133  1.0000
  S   S375      1.0  0.78572  0.10620  0.30532  1.0000
  S   S376      1.0  0.83169  0.10177  0.25895  1.0000
  Fe  Fe186     1.0  0.79447  0.14813  0.29301  1.0000
  S   S377      1.0  0.77090  0.14250  0.31861  1.0000
  S   S378      1.0  0.80002  0.17216  0.28516  1.0000
  Fe  Fe187     1.0  0.78420  0.12076  0.34766  1.0000
  S   S379      1.0  0.77653  0.11316  0.40708  1.0000
  Fe  Fe188     1.0  0.77457  0.12878  0.27415  1.0000
  H   H1089     1.0  0.90109  0.01274  0.95142  1.0000
  S   S380      1.0  0.80754  0.12765  0.32595  1.0000
  S   S381      1.0  0.79732  0.13604  0.24655  1.0000
  Fe  Fe189     1.0  0.86772  0.17071  0.36068  1.0000
  H   H1090     1.0  0.95675  0.04107  0.17776  1.0000
  S   S382      1.0  0.86436  0.15180  0.33467  1.0000
  C   C1077     1.0  0.74773  0.17117  0.68025  1.0000
  C   C1078     1.0  0.95744  0.10646  0.06462  1.0000
  Fe  Fe190     1.0  0.89482  0.18463  0.36519  1.0000
  S   S383      1.0  0.92097  0.17811  0.34947  1.0000
  C   C1079     1.0  0.91686  0.06592  0.81624  1.0000
  S   S384      1.0  0.88385  0.16498  0.40035  1.0000
  Fe  Fe191     1.0  0.80441  0.09964  0.65306  1.0000
  S   S385      1.0  0.82672  0.10149  0.61418  1.0000
  S   S386      1.0  0.80029  0.07904  0.69704  1.0000
  Fe  Fe192     1.0  0.79062  0.13406  0.63161  1.0000
  S   S387      1.0  0.81212  0.13881  0.59173  1.0000
  S   S388      1.0  0.76908  0.15295  0.63723  1.0000
  Fe  Fe193     1.0  0.81162  0.11614  0.57519  1.0000
  S   S389      1.0  0.82005  0.11512  0.51629  1.0000
  Fe  Fe194     1.0  0.82534  0.12376  0.63352  1.0000
  S   S390      1.0  0.84757  0.12733  0.64657  1.0000
  S   S391      1.0  0.78912  0.11223  0.61232  1.0000
  S   S392      1.0  0.80396  0.12118  0.67512  1.0000
  Fe  Fe195     1.0  0.88974  0.19122  0.70649  1.0000
  S   S393      1.0  0.86907  0.19822  0.74803  1.0000
  S   S394      1.0  0.91081  0.17222  0.71378  1.0000
  Fe  Fe196     1.0  0.87462  0.21067  0.64383  1.0000
  C   C1080     1.0  0.94818  0.10122  0.04598  1.0000
  Fe  Fe197     1.0  0.85483  0.19499  0.70979  1.0000
  S   S395      1.0  0.83350  0.18398  0.72900  1.0000
  S   S396      1.0  0.87542  0.18577  0.67090  1.0000
  C   C1081     1.0  0.84319  0.14210  0.67248  1.0000
  C   C1082     1.0  0.82811  0.15099  0.67752  1.0000
  C   C1083     1.0  0.82491  0.16346  0.69649  1.0000
  C   C1084     1.0  0.83688  0.16716  0.70979  1.0000
  C   C1085     1.0  0.85186  0.15801  0.70555  1.0000
  C   C1086     1.0  0.85502  0.14545  0.68691  1.0000
  H   H1091     1.0  0.81900  0.14860  0.66592  1.0000
  H   H1092     1.0  0.81335  0.17060  0.69954  1.0000
  H   H1093     1.0  0.86100  0.16068  0.71656  1.0000
  H   H1094     1.0  0.86667  0.13852  0.68311  1.0000
  C   C1087     1.0  0.76174  0.16023  0.67763  1.0000
  H   H1095     1.0  0.89223  0.00854  0.01341  1.0000
  C   C1088     1.0  0.76226  0.16003  0.74009  1.0000
  C   C1089     1.0  0.76913  0.15484  0.70752  1.0000
  N   N92       1.0  0.80286  0.10149  0.17609  1.0000
  H   H1096     1.0  0.76789  0.15562  0.76331  1.0000
  H   H1097     1.0  0.77997  0.14649  0.70576  1.0000
  C   C1090     1.0  0.93667  0.14970  0.78948  1.0000
  C   C1091     1.0  0.83256  0.06495  0.32359  1.0000
  H   H1098     1.0  0.80253  0.08870  0.38850  1.0000
  H   H1099     1.0  0.84088  0.05831  0.30501  1.0000
  C   C1092     1.0  0.81091  0.08200  0.37016  1.0000
  C   C1093     1.0  0.78867  0.11363  0.43749  1.0000
  C   C1094     1.0  0.80454  0.11433  0.42590  1.0000
  C   C1095     1.0  0.81404  0.11437  0.45057  1.0000
  C   C1096     1.0  0.80772  0.11407  0.48697  1.0000
  C   C1097     1.0  0.79181  0.11353  0.49865  1.0000
  C   C1098     1.0  0.78235  0.11316  0.47397  1.0000
  H   H1100     1.0  0.80957  0.11467  0.39805  1.0000
  H   H1101     1.0  0.82634  0.11483  0.44139  1.0000
  H   H1102     1.0  0.78683  0.11329  0.52666  1.0000
  H   H1103     1.0  0.77008  0.11256  0.48317  1.0000
  C   C1099     1.0  0.81970  0.16868  0.28915  1.0000
  C   C1100     1.0  0.82903  0.15434  0.28286  1.0000
  C   C1101     1.0  0.84331  0.14944  0.29515  1.0000
  C   C1102     1.0  0.84842  0.15914  0.31265  1.0000
  C   C1103     1.0  0.83990  0.17420  0.31535  1.0000
  C   C1104     1.0  0.82538  0.17891  0.30406  1.0000
  H   H1104     1.0  0.82493  0.14668  0.26998  1.0000
  H   H1105     1.0  0.85002  0.13789  0.29243  1.0000
  H   H1106     1.0  0.84409  0.18197  0.32760  1.0000
  H   H1107     1.0  0.81821  0.18998  0.30912  1.0000
  H   H1108     1.0  0.77267  0.21459  0.24936  1.0000
  C   C1105     1.0  0.82305  0.22032  0.33586  1.0000
  C   C1106     1.0  0.96018  0.04756  0.15127  1.0000
  S   S397      1.0  0.98434  0.11550  0.07110  1.0000
  H   H1109     1.0  0.80184  0.20455  0.26680  1.0000
  C   C1107     1.0  0.78001  0.20894  0.22695  1.0000
  H   H1110     1.0  0.76657  0.15955  0.24632  1.0000
  C   C1108     1.0  0.93130  0.15843  0.81713  1.0000
  C   C1109     1.0  0.93063  0.15442  0.75751  1.0000
  C   C1110     1.0  0.91895  0.16775  0.75315  1.0000
  C   C1111     1.0  0.91357  0.17659  0.78068  1.0000
  C   C1112     1.0  0.91985  0.17200  0.81253  1.0000
  H   H1111     1.0  0.93489  0.14759  0.73624  1.0000
  H   H1112     1.0  0.90459  0.18691  0.77742  1.0000
  H   H1113     1.0  0.91570  0.17884  0.83379  1.0000
  C   C1113     1.0  0.84570  0.04706  0.72440  1.0000
  C   C1114     1.0  0.83215  0.04801  0.75049  1.0000
  C   C1115     1.0  0.81810  0.05757  0.74184  1.0000
  C   C1116     1.0  0.81762  0.06631  0.70728  1.0000
  C   C1117     1.0  0.83111  0.06504  0.68125  1.0000
  C   C1118     1.0  0.84504  0.05545  0.68974  1.0000
  H   H1114     1.0  0.83254  0.04150  0.77728  1.0000
  H   H1115     1.0  0.80767  0.05835  0.76206  1.0000
  H   H1116     1.0  0.83076  0.07119  0.65428  1.0000
  H   H1117     1.0  0.85539  0.05458  0.66928  1.0000
  C   C1119     1.0  0.91804  0.03920  0.84866  1.0000
  C   C1120     1.0  0.91145  0.05155  0.82437  1.0000
  C   C1121     1.0  0.92872  0.06813  0.83268  1.0000
  C   C1122     1.0  0.93515  0.05587  0.85737  1.0000
  C   C1123     1.0  0.92990  0.04142  0.86509  1.0000
  H   H1118     1.0  0.90233  0.04995  0.81154  1.0000
  H   H1119     1.0  0.94438  0.05739  0.86996  1.0000
  H   H1120     1.0  0.93510  0.03189  0.88380  1.0000
  C   C1124     1.0  0.83481  0.05728  0.21425  1.0000
  C   C1125     1.0  0.82050  0.06412  0.23275  1.0000
  C   C1126     1.0  0.81935  0.07788  0.24640  1.0000
  C   C1127     1.0  0.83262  0.08461  0.24224  1.0000
  C   C1128     1.0  0.84703  0.07751  0.22469  1.0000
  C   C1129     1.0  0.84811  0.06393  0.21045  1.0000
  H   H1121     1.0  0.81021  0.05895  0.23576  1.0000
  H   H1122     1.0  0.80824  0.08323  0.26018  1.0000
  H   H1123     1.0  0.85734  0.08266  0.22152  1.0000
  H   H1124     1.0  0.85920  0.05865  0.19636  1.0000
  C   C1130     1.0  0.85873  0.03783  0.99348  1.0000
  C   C1131     1.0  0.86200  0.04216  0.95626  1.0000
  C   C1132     1.0  0.85667  0.03462  0.93406  1.0000
  C   C1133     1.0  0.84775  0.02290  0.94886  1.0000
  C   C1134     1.0  0.84399  0.01891  0.98620  1.0000
  C   C1135     1.0  0.84968  0.02620  0.00855  1.0000
  H   H1125     1.0  0.86873  0.05135  0.94445  1.0000
  H   H1126     1.0  0.85933  0.03803  0.90545  1.0000
  H   H1127     1.0  0.80128  0.19435  0.74302  1.0000
  H   H1128     1.0  0.84693  0.02296  0.03732  1.0000
  C   C1136     1.0  0.93477  0.16151  0.24097  1.0000
  C   C1137     1.0  0.92303  0.17461  0.24592  1.0000
  C   C1138     1.0  0.91886  0.17973  0.27905  1.0000
  C   C1139     1.0  0.92654  0.17194  0.30746  1.0000
  C   C1140     1.0  0.93864  0.15908  0.30230  1.0000
  C   C1141     1.0  0.94266  0.15377  0.26918  1.0000
  H   H1129     1.0  0.91710  0.18083  0.22402  1.0000
  H   H1130     1.0  0.90997  0.19001  0.28227  1.0000
  H   H1131     1.0  0.94474  0.15310  0.32407  1.0000
  H   H1132     1.0  0.95183  0.14374  0.26550  1.0000
  S   S398      1.0  0.94249  0.09174  0.98804  1.0000
  H   H1133     1.0  0.93899  0.08905  0.14040  1.0000
  H   H1134     1.0  0.95247  0.10963  0.09046  1.0000
  H   H1135     1.0  0.93615  0.10039  0.05766  1.0000
  C   C1142     1.0  0.93164  0.07323  0.18819  1.0000
  C   C1143     1.0  0.92311  0.06101  0.20247  1.0000
  C   C1144     1.0  0.91594  0.05492  0.18049  1.0000
  C   C1145     1.0  0.91733  0.06093  0.14386  1.0000
  C   C1146     1.0  0.92543  0.07348  0.12981  1.0000
  C   C1147     1.0  0.93247  0.07967  0.15183  1.0000
  H   H1136     1.0  0.92239  0.05595  0.23055  1.0000
  H   H1137     1.0  0.90987  0.04516  0.19163  1.0000
  H   H1138     1.0  0.92664  0.07816  0.10150  1.0000
  H   H1139     1.0  0.74281  0.13496  0.78084  1.0000
  N   N93       1.0  0.84485  0.22705  0.45500  1.0000
  H   H1140     1.0  0.75916  0.20149  0.73762  1.0000
  H   H1141     1.0  0.96145  0.04320  0.04325  1.0000
  C   C1148     1.0  0.80823  0.22250  0.32617  1.0000
  C   C1149     1.0  0.83726  0.23234  0.78386  1.0000
  C   C1150     1.0  0.95484  0.04506  0.12180  1.0000
  S   S399      1.0  0.87984  0.20304  0.39621  1.0000
  C   C1151     1.0  0.89301  0.00614  0.94511  1.0000
  H   H1142     1.0  0.86316  0.15534  0.61161  1.0000
  H   H1143     1.0  0.94966  0.06265  0.03983  1.0000
  C   C1152     1.0  0.76877  0.10679  0.74119  1.0000
  C   C1153     1.0  0.89639  0.16456  0.55775  1.0000
  N   N94       1.0  0.88358  0.99869  0.97727  1.0000
  H   H1144     1.0  0.97058  0.07182  0.05763  1.0000
  N   N95       1.0  0.90740  0.07089  0.99312  1.0000
  C   C1154     1.0  0.90194  0.05733  0.99575  1.0000
  C   C1155     1.0  0.91223  0.07926  0.96022  1.0000
  C   C1156     1.0  0.90064  0.05213  0.96499  1.0000
  C   C1157     1.0  0.91119  0.07434  0.92888  1.0000
  C   C1158     1.0  0.90517  0.06078  0.93141  1.0000
  C   C1159     1.0  0.90872  0.07601  0.02580  1.0000
  H   H1145     1.0  0.89823  0.05063  0.02181  1.0000
  H   H1146     1.0  0.91685  0.08984  0.95806  1.0000
  H   H1147     1.0  0.89585  0.04163  0.96729  1.0000
  H   H1148     1.0  0.91506  0.08095  0.90279  1.0000
  H   H1149     1.0  0.90400  0.05697  0.90741  1.0000
  H   H1150     1.0  0.90859  0.08883  0.02135  1.0000
  H   H1151     1.0  0.89887  0.07338  0.04777  1.0000
  H   H1152     1.0  0.91986  0.06985  0.03479  1.0000
  N   N96       1.0  0.79995  0.15454  0.40918  1.0000
  C   C1160     1.0  0.81506  0.15339  0.39138  1.0000
  C   C1161     1.0  0.79676  0.15340  0.44561  1.0000
  C   C1162     1.0  0.82743  0.15161  0.40994  1.0000
  C   C1163     1.0  0.80884  0.15170  0.46501  1.0000
  C   C1164     1.0  0.82426  0.15079  0.44700  1.0000
  C   C1165     1.0  0.78718  0.15604  0.38939  1.0000
  H   H1153     1.0  0.81765  0.15370  0.36270  1.0000
  H   H1154     1.0  0.78489  0.15343  0.45999  1.0000
  H   H1155     1.0  0.83940  0.15061  0.39574  1.0000
  H   H1156     1.0  0.80635  0.15036  0.49400  1.0000
  H   H1157     1.0  0.83375  0.14900  0.46190  1.0000
  H   H1158     1.0  0.78506  0.14424  0.38860  1.0000
  H   H1159     1.0  0.77618  0.16285  0.40213  1.0000
  H   H1160     1.0  0.79001  0.16226  0.36147  1.0000
  N   N97       1.0  0.77863  0.20859  0.75050  1.0000
  C   C1166     1.0  0.77000  0.22253  0.75870  1.0000
  C   C1167     1.0  0.79450  0.20554  0.74881  1.0000
  C   C1168     1.0  0.77734  0.23404  0.76454  1.0000
  C   C1169     1.0  0.80223  0.21676  0.75459  1.0000
  C   C1170     1.0  0.79356  0.23110  0.76250  1.0000
  C   C1171     1.0  0.95249  0.05139  0.05819  1.0000
  H   H1161     1.0  0.94643  0.16325  0.91925  1.0000
  C   C1172     1.0  0.97497  0.14175  0.96484  1.0000
  H   H1162     1.0  0.85059  0.23200  0.53527  1.0000
  H   H1163     1.0  0.82698  0.21413  0.25119  1.0000
  C   C1173     1.0  0.85208  0.23294  0.50642  1.0000
  Fe  Fe198     1.0  0.86741  0.18363  0.42757  1.0000
  C   C1174     1.0  0.74385  0.13070  0.72748  1.0000
  H   H1164     1.0  0.88530  0.01447  0.92780  1.0000
  H   H1165     1.0  0.85990  0.07462  0.34312  1.0000
  S   S400      1.0  0.84985  0.18726  0.39135  1.0000
  C   C1175     1.0  0.82605  0.08531  0.35826  1.0000
  S   S401      1.0  0.98067  0.13238  0.15922  1.0000
  H   H1166     1.0  0.85201  0.09346  0.31856  1.0000
  C   C1176     1.0  0.81916  0.21674  0.23179  1.0000
  H   H1167     1.0  0.77775  0.10626  0.18645  1.0000
  C   C1177     1.0  0.80499  0.21121  0.24042  1.0000
  C   C1178     1.0  0.96991  0.09865  0.99692  1.0000
  H   H1168     1.0  0.84267  0.08068  0.13083  1.0000
  C   C1179     1.0  0.85239  0.08058  0.32294  1.0000
  H   H1169     1.0  0.76961  0.10298  0.68796  1.0000
  C   C1180     1.0  0.75380  0.17873  0.21406  1.0000
  S   S402      1.0  0.96482  0.11243  0.82823  1.0000
  C   C1181     1.0  0.86148  0.19816  0.57121  1.0000
  N   N98       1.0  0.89978  0.13593  0.76155  1.0000
  C   C1182     1.0  0.89041  0.14797  0.77715  1.0000
  C   C1183     1.0  0.90962  0.12473  0.78033  1.0000
  C   C1184     1.0  0.89084  0.14906  0.81240  1.0000
  C   C1185     1.0  0.91030  0.12546  0.81559  1.0000
  C   C1186     1.0  0.90095  0.13777  0.83160  1.0000
  C   C1187     1.0  0.90015  0.13552  0.72380  1.0000
  H   H1170     1.0  0.88310  0.15723  0.76184  1.0000
  H   H1171     1.0  0.91736  0.11536  0.76788  1.0000
  H   H1172     1.0  0.88389  0.15896  0.82412  1.0000
  H   H1173     1.0  0.91844  0.11681  0.82987  1.0000
  H   H1174     1.0  0.90195  0.13881  0.85840  1.0000
  H   H1175     1.0  0.91100  0.13936  0.70757  1.0000
  H   H1176     1.0  0.89990  0.12350  0.72007  1.0000
  H   H1177     1.0  0.89003  0.14358  0.71343  1.0000
  N   N99       1.0  0.90296  0.14413  0.26674  1.0000
  C   C1188     1.0  0.91028  0.13324  0.24548  1.0000
  C   C1189     1.0  0.90573  0.14227  0.30090  1.0000
  C   C1190     1.0  0.92087  0.12017  0.25813  1.0000
  C   C1191     1.0  0.91642  0.12946  0.31425  1.0000
  C   C1192     1.0  0.92404  0.11837  0.29264  1.0000
  C   C1193     1.0  0.89165  0.15751  0.25308  1.0000
  H   H1178     1.0  0.90822  0.13479  0.21828  1.0000
  H   H1179     1.0  0.89989  0.15088  0.31782  1.0000
  H   H1180     1.0  0.92674  0.11161  0.24106  1.0000
  H   H1181     1.0  0.91891  0.12833  0.34096  1.0000
  H   H1182     1.0  0.93249  0.10845  0.30242  1.0000
  H   H1183     1.0  0.88024  0.15384  0.25529  1.0000
  H   H1184     1.0  0.88972  0.16720  0.26853  1.0000
  H   H1185     1.0  0.89604  0.16228  0.22476  1.0000
  H   H1186     1.0  0.79342  0.08261  0.16764  1.0000
  H   H1187     1.0  0.81882  0.06925  0.13817  1.0000
  N   N100      1.0  0.86560  0.07709  0.72013  1.0000
  C   C1194     1.0  0.86026  0.07165  0.75533  1.0000
  C   C1195     1.0  0.85613  0.08824  0.70031  1.0000
  C   C1196     1.0  0.84506  0.07734  0.77150  1.0000
  C   C1197     1.0  0.84089  0.09422  0.71568  1.0000
  C   C1198     1.0  0.83531  0.08865  0.75141  1.0000
  C   C1199     1.0  0.88110  0.07018  0.70271  1.0000
  H   H1188     1.0  0.86750  0.06229  0.77061  1.0000
  H   H1189     1.0  0.86016  0.09233  0.67218  1.0000
  H   H1190     1.0  0.84070  0.07252  0.79897  1.0000
  H   H1191     1.0  0.83336  0.10281  0.69962  1.0000
  H   H1192     1.0  0.82333  0.09281  0.76317  1.0000
  H   H1193     1.0  0.88870  0.06392  0.72259  1.0000
  H   H1194     1.0  0.87982  0.06145  0.68713  1.0000
  H   H1195     1.0  0.88710  0.07934  0.68447  1.0000
  H   H1196     1.0  0.82929  0.09470  0.36755  1.0000
  C   C1200     1.0  0.88208  0.20526  0.52258  1.0000
  H   H1197     1.0  0.74066  0.13762  0.66019  1.0000
  C   C1201     1.0  0.88191  0.15267  0.52786  1.0000
  C   C1202     1.0  0.97917  0.10381  0.01567  1.0000
  N   N101      1.0  0.87054  0.15158  0.55767  1.0000
  Fe  Fe199     1.0  0.86304  0.20569  0.35819  1.0000
  C   C1203     1.0  0.98513  0.14760  0.90280  1.0000
  C   C1204     1.0  0.74016  0.15608  0.19768  1.0000
  H   H1198     1.0  0.85541  0.19853  0.59839  1.0000
  H   H1199     1.0  0.88059  0.14905  0.50376  1.0000
  S   S403      1.0  0.87931  0.18939  0.32414  1.0000
  C   C1205     1.0  0.74807  0.17072  0.74287  1.0000
  N   N102      1.0  0.75149  0.12204  0.70156  1.0000
  H   H1200     1.0  0.84644  0.14996  0.57602  1.0000
  C   C1206     1.0  0.80659  0.07007  0.35805  1.0000
  S   S404      1.0  0.93852  0.15235  0.85777  1.0000
  S   S405      1.0  0.93521  0.08635  0.82123  1.0000
  C   C1207     1.0  0.89492  0.15931  0.52731  1.0000
  Fe  Fe200     1.0  0.87985  0.00658  0.12777  1.0000
  C   C1208     1.0  0.95432  0.09758  0.01185  1.0000
  H   H1201     1.0  0.90356  0.16077  0.50311  1.0000
  N   N103      1.0  0.83657  0.07695  0.33488  1.0000
  H   H1202     1.0  0.78711  0.10496  0.22423  1.0000
  Fe  Fe201     1.0  0.95067  0.09883  0.92922  1.0000
  Fe  Fe202     1.0  0.94980  0.12682  0.86821  1.0000
  Fe  Fe203     1.0  0.94930  0.09455  0.85415  1.0000
  H   H1203     1.0  0.94556  0.13934  0.79255  1.0000
  N   N104      1.0  0.79491  0.21465  0.21650  1.0000
  H   H1204     1.0  0.80059  0.21412  0.33831  1.0000
  C   C1209     1.0  0.77079  0.19644  0.74551  1.0000
  H   H1205     1.0  0.79480  0.06759  0.36673  1.0000
  H   H1206     1.0  0.76518  0.11343  0.79308  1.0000
  C   C1210     1.0  0.80373  0.08788  0.16379  1.0000
  C   C1211     1.0  0.81801  0.08032  0.14687  1.0000
  H   H1207     1.0  0.94732  0.03644  0.12583  1.0000
  C   C1212     1.0  0.97300  0.06790  0.11280  1.0000
  H   H1208     1.0  0.81424  0.05219  0.32482  1.0000
  H   H1209     1.0  0.81486  0.21427  0.75302  1.0000
  C   C1213     1.0  0.81748  0.06142  0.33470  1.0000
  H   H1210     1.0  0.91187  0.07533  0.79701  1.0000
  C   C1214     1.0  0.87362  0.98948  0.97378  1.0000
  C   C1215     1.0  0.87436  0.20568  0.55791  1.0000
  H   H1211     1.0  0.83693  0.00997  0.99782  1.0000
  H   H1212     1.0  0.88598  0.16710  0.61205  1.0000
  C   C1216     1.0  0.78795  0.10898  0.19492  1.0000
  H   H1213     1.0  0.78677  0.12197  0.18932  1.0000
  S   S406      1.0  0.96526  0.11751  0.90960  1.0000
  H   H1214     1.0  0.76900  0.18797  0.77088  1.0000
  C   C1217     1.0  0.75802  0.16289  0.22874  1.0000
  C   C1218     1.0  0.87687  0.19751  0.50044  1.0000
  H   H1215     1.0  0.97489  0.09532  0.97107  1.0000
  C   C1219     1.0  0.76367  0.11006  0.70822  1.0000
  C   C1220     1.0  0.83145  0.08671  0.14287  1.0000
  S   S407      1.0  0.85693  0.18058  0.48631  1.0000
  H   H1216     1.0  0.78219  0.19602  0.23606  1.0000
  H   H1217     1.0  0.75737  0.22482  0.76079  1.0000
  C   C1221     1.0  0.96758  0.06498  0.08390  1.0000
  C   C1222     1.0  0.75120  0.15150  0.22071  1.0000
  S   S408      1.0  0.89039  0.21575  0.67676  1.0000
  C   C1223     1.0  0.81605  0.10766  0.17292  1.0000
  C   C1224     1.0  0.96016  0.15003  0.95905  1.0000
  C   C1225     1.0  0.87214  0.15625  0.58798  1.0000
  C   C1226     1.0  0.86384  0.19023  0.51352  1.0000
  H   H1218     1.0  0.85777  0.07687  0.29674  1.0000
  C   C1227     1.0  0.83051  0.10044  0.15603  1.0000
  H   H1219     1.0  0.81554  0.11800  0.18427  1.0000
  C   C1228     1.0  0.85617  0.19053  0.54894  1.0000
  H   H1220     1.0  0.84608  0.18489  0.55920  1.0000
  C   C1229     1.0  0.85675  0.14502  0.55738  1.0000
  S   S409      1.0  0.96504  0.08214  0.89389  1.0000
  Fe  Fe204     1.0  0.97441  0.11611  0.12934  1.0000
  H   H1221     1.0  0.77336  0.21146  0.20447  1.0000
  H   H1222     1.0  0.84101  0.10513  0.15444  1.0000
  S   S410      1.0  0.88018  0.21688  0.58351  1.0000
  C   C1230     1.0  0.97049  0.15602  0.89609  1.0000
  H   H1223     1.0  0.85344  0.14792  0.53035  1.0000
  Fe  Fe205     1.0  0.98671  0.11069  0.19897  1.0000
  H   H1224     1.0  0.85914  0.13209  0.56578  1.0000
  C   C1231     1.0  0.97287  0.10800  0.04928  1.0000
  Fe  Fe206     1.0  0.86819  0.22240  0.71500  1.0000
  H   H1225     1.0  0.88295  0.19720  0.47331  1.0000
  H   H1226     1.0  0.89203  0.21109  0.51220  1.0000
  C   C1232     1.0  0.96917  0.05918  0.14675  1.0000
  C   C1233     1.0  0.88503  0.16288  0.58843  1.0000
  H   H1227     1.0  0.90616  0.17018  0.55743  1.0000
  S   S411      1.0  0.98191  0.09429  0.16704  1.0000
  S   S412      1.0  0.75654  0.13158  0.23923  1.0000
  H   H1228     1.0  0.75605  0.12285  0.64510  1.0000
  H   H1229     1.0  0.81910  0.22267  0.82264  1.0000
  C   C1234     1.0  0.95794  0.15716  0.92441  1.0000
  C   C1235     1.0  0.79849  0.22367  0.18374  1.0000
  C   C1236     1.0  0.74282  0.18335  0.19102  1.0000
  H   H1230     1.0  0.77856  0.09738  0.74609  1.0000
  C   C1237     1.0  0.74608  0.12509  0.66715  1.0000
  H   H1231     1.0  0.94151  0.04648  0.06700  1.0000
  H   H1232     1.0  0.84310  0.22113  0.77672  1.0000
  H   H1233     1.0  0.95042  0.15060  0.98120  1.0000
  H   H1234     1.0  0.77783  0.18998  0.72409  1.0000
  H   H1235     1.0  0.82669  0.21034  0.35546  1.0000
  H   H1236     1.0  0.75908  0.18742  0.22064  1.0000
  S   S413      1.0  0.85250  0.21952  0.67938  1.0000
  C   C1238     1.0  0.76122  0.11573  0.76755  1.0000
  N   N105      1.0  0.95831  0.05396  0.08880  1.0000
  S   S414      1.0  0.88055  0.99657  0.87227  1.0000
  Fe  Fe207     1.0  0.97912  0.10158  0.87193  1.0000
  C   C1239     1.0  0.83287  0.23128  0.32093  1.0000
  H   H1237     1.0  0.97278  0.06167  0.16975  1.0000
  N   N106      1.0  0.98720  0.14062  0.93685  1.0000
  C   C1240     1.0  0.87576  0.99377  0.04114  1.0000
  H   H1238     1.0  0.85213  0.22980  0.85691  1.0000
  H   H1239     1.0  0.97985  0.07708  0.10892  1.0000
  H   H1240     1.0  0.97652  0.13607  0.99181  1.0000
  C   C1241     1.0  0.88464  0.00099  0.01043  1.0000
  H   H1241     1.0  0.82237  0.22564  0.44654  1.0000
  H   H1242     1.0  0.74199  0.17544  0.65717  1.0000
  C   C1242     1.0  0.74861  0.12771  0.76081  1.0000
  C   C1243     1.0  0.74095  0.17647  0.71270  1.0000
  H   H1243     1.0  0.83793  0.22105  0.41046  1.0000
  H   H1244     1.0  0.83388  0.22008  0.50877  1.0000
  H   H1245     1.0  0.87234  0.98808  0.94754  1.0000
  H   H1246     1.0  0.87655  0.99569  0.06732  1.0000
  Fe  Fe208     1.0  0.87817  0.98872  0.82278  1.0000
  H   H1247     1.0  0.79045  0.22656  0.16480  1.0000
  C   C1244     1.0  0.82287  0.22604  0.19856  1.0000
  C   C1245     1.0  0.82365  0.23323  0.80984  1.0000
  H   H1248     1.0  0.90026  0.99717  0.92940  1.0000
  H   H1249     1.0  0.83369  0.23065  0.19180  1.0000
  C   C1246     1.0  0.83477  0.21991  0.44007  1.0000
  C   C1247     1.0  0.81250  0.22953  0.17431  1.0000
  C   C1248     1.0  0.84268  0.22625  0.49127  1.0000
  S   S415      1.0  0.85096  0.22966  0.33479  1.0000
  C   C1249     1.0  0.85629  0.23439  0.43298  1.0000
  Fe  Fe209     1.0  0.77560  0.29087  0.21063  1.0000
  S   S416      1.0  0.76005  0.27874  0.25589  1.0000
  S   S417      1.0  0.78180  0.31379  0.21333  1.0000
  Fe  Fe210     1.0  0.77954  0.26610  0.16403  1.0000
  S   S418      1.0  0.76415  0.25195  0.20594  1.0000
  S   S419      1.0  0.78929  0.25616  0.11320  1.0000
  C   C1250     1.0  0.75448  0.34450  0.75207  1.0000
  H   H1250     1.0  0.75632  0.30919  0.37560  1.0000
  Fe  Fe211     1.0  0.77722  0.25696  0.24485  1.0000
  H   H1251     1.0  0.80272  0.31168  0.28006  1.0000
  S   S420      1.0  0.76308  0.28888  0.16773  1.0000
  S   S421      1.0  0.79385  0.26936  0.20250  1.0000
  C   C1251     1.0  0.74428  0.26771  0.00429  1.0000
  H   H1252     1.0  0.86973  0.25942  0.79377  1.0000
  H   H1253     1.0  0.87545  0.24635  0.42987  1.0000
  Fe  Fe212     1.0  0.77417  0.30552  0.84239  1.0000
  S   S422      1.0  0.75884  0.30865  0.89512  1.0000
  S   S423      1.0  0.77461  0.32421  0.79289  1.0000
  Fe  Fe213     1.0  0.78680  0.27124  0.86846  1.0000
  S   S424      1.0  0.77260  0.27131  0.92367  1.0000
  S   S425      1.0  0.79988  0.24797  0.85458  1.0000
  Fe  Fe214     1.0  0.75331  0.28521  0.89541  1.0000
  H   H1254     1.0  0.79575  0.28763  0.26458  1.0000
  Fe  Fe215     1.0  0.77948  0.29459  0.91943  1.0000
  S   S426      1.0  0.78418  0.30293  0.96656  1.0000
  S   S427      1.0  0.76678  0.28320  0.84047  1.0000
  S   S428      1.0  0.79560  0.29344  0.86640  1.0000
  H   H1255     1.0  0.77680  0.31465  0.71347  1.0000
  C   C1252     1.0  0.84964  0.26862  0.85039  1.0000
  C   C1253     1.0  0.74754  0.33265  0.28851  1.0000
  C   C1254     1.0  0.84358  0.24582  0.76819  1.0000
  C   C1255     1.0  0.81608  0.24766  0.81973  1.0000
  H   H1256     1.0  0.79938  0.23988  0.76725  1.0000
  C   C1256     1.0  0.75597  0.33280  0.78240  1.0000
  C   C1257     1.0  0.83403  0.24453  0.88699  1.0000
  C   C1258     1.0  0.83586  0.26031  0.77764  1.0000
  C   C1259     1.0  0.82203  0.26127  0.80316  1.0000
  H   H1257     1.0  0.76761  0.33358  0.35744  1.0000
  N   N107      1.0  0.78640  0.29760  0.31156  1.0000
  H   H1258     1.0  0.84067  0.27079  0.76541  1.0000
  H   H1259     1.0  0.81622  0.27244  0.81063  1.0000
  C   C1260     1.0  0.75135  0.33561  0.16606  1.0000
  C   C1261     1.0  0.79278  0.31093  0.30167  1.0000
  H   H1260     1.0  0.74114  0.26721  0.97902  1.0000
  H   H1261     1.0  0.78407  0.34404  0.22163  1.0000
  S   S429      1.0  0.74327  0.35937  0.31881  1.0000
  S   S430      1.0  0.86169  0.24449  0.73908  1.0000
  H   H1262     1.0  0.80519  0.27874  0.30283  1.0000
  C   C1262     1.0  0.86612  0.24092  0.44732  1.0000
  S   S431      1.0  0.78450  0.23788  0.28977  1.0000
  C   C1263     1.0  0.75287  0.25425  0.05953  1.0000
  C   C1264     1.0  0.76522  0.35097  0.26313  1.0000
  H   H1263     1.0  0.75449  0.27702  0.77654  1.0000
  H   H1264     1.0  0.76892  0.36192  0.26252  1.0000
  C   C1265     1.0  0.76670  0.30967  0.35517  1.0000
  C   C1266     1.0  0.78840  0.26922  0.07237  1.0000
  C   C1267     1.0  0.78518  0.28544  0.07131  1.0000
  C   C1268     1.0  0.78404  0.29564  0.03861  1.0000
  C   C1269     1.0  0.78582  0.28970  0.00690  1.0000
  C   C1270     1.0  0.78895  0.27348  0.00795  1.0000
  C   C1271     1.0  0.79043  0.26327  0.04057  1.0000
  H   H1265     1.0  0.78380  0.29014  0.09557  1.0000
  H   H1266     1.0  0.78176  0.30818  0.03786  1.0000
  H   H1267     1.0  0.79049  0.26880  0.98361  1.0000
  H   H1268     1.0  0.79292  0.25073  0.04126  1.0000
  H   H1269     1.0  0.83117  0.28388  0.87923  1.0000
  H   H1270     1.0  0.77045  0.24512  0.77076  1.0000
  C   C1272     1.0  0.74115  0.25844  0.86522  1.0000
  C   C1273     1.0  0.76962  0.32639  0.24136  1.0000
  H   H1271     1.0  0.85561  0.27814  0.83594  1.0000
  C   C1274     1.0  0.81328  0.24613  0.28507  1.0000
  H   H1272     1.0  0.74935  0.24250  0.01939  1.0000
  H   H1273     1.0  0.76849  0.28625  0.34585  1.0000
  H   H1274     1.0  0.83551  0.25265  0.28365  1.0000
  H   H1275     1.0  0.80974  0.25593  0.26499  1.0000
  C   C1275     1.0  0.74888  0.25370  0.02696  1.0000
  H   H1276     1.0  0.81706  0.26226  0.91138  1.0000
  H   H1277     1.0  0.78638  0.27478  0.30076  1.0000
  C   C1276     1.0  0.79376  0.28401  0.29417  1.0000
  C   C1277     1.0  0.83587  0.27194  0.87485  1.0000
  C   C1278     1.0  0.77383  0.34082  0.24004  1.0000
  H   H1278     1.0  0.77827  0.28927  0.75526  1.0000
  H   H1279     1.0  0.75292  0.31124  0.26646  1.0000
  H   H1280     1.0  0.74730  0.34118  0.14041  1.0000
  C   C1279     1.0  0.77311  0.32332  0.34521  1.0000
  C   C1280     1.0  0.77358  0.29680  0.33806  1.0000
  C   C1281     1.0  0.75400  0.28810  0.75822  1.0000
  N   N108      1.0  0.74383  0.28185  0.01377  1.0000
  H   H1281     1.0  0.76483  0.34845  0.73571  1.0000
  C   C1282     1.0  0.78626  0.32396  0.31839  1.0000
  H   H1282     1.0  0.85804  0.23504  0.40416  1.0000
  C   C1283     1.0  0.82800  0.25980  0.89311  1.0000
  C   C1284     1.0  0.86399  0.24015  0.48430  1.0000
  H   H1283     1.0  0.79103  0.33470  0.30975  1.0000
  H   H1284     1.0  0.75525  0.26925  0.09444  1.0000
  C   C1285     1.0  0.75632  0.32234  0.26535  1.0000
  H   H1285     1.0  0.74758  0.29368  0.05297  1.0000
  C   C1286     1.0  0.80326  0.23546  0.30090  1.0000
  Fe  Fe216     1.0  0.74876  0.27506  0.21251  1.0000
  C   C1287     1.0  0.76737  0.29487  0.74597  1.0000
  H   H1286     1.0  0.74362  0.31859  0.82657  1.0000
  C   C1288     1.0  0.74773  0.28248  0.04567  1.0000
  C   C1289     1.0  0.82792  0.24419  0.29550  1.0000
  N   N109      1.0  0.85536  0.25364  0.84418  1.0000
  C   C1290     1.0  0.75227  0.31652  0.71178  1.0000
  H   H1287     1.0  0.88013  0.25058  0.83069  1.0000
  H   H1288     1.0  0.75197  0.24302  0.82745  1.0000
  H   H1289     1.0  0.87132  0.23897  0.81001  1.0000
  C   C1291     1.0  0.76656  0.30909  0.72233  1.0000
  C   C1292     1.0  0.75215  0.34694  0.28760  1.0000
  H   H1290     1.0  0.74996  0.25399  0.88215  1.0000
  H   H1291     1.0  0.75821  0.32373  0.16348  1.0000
  H   H1292     1.0  0.81515  0.23689  0.14848  1.0000
  H   H1293     1.0  0.87173  0.24482  0.49601  1.0000
  H   H1294     1.0  0.75647  0.24352  0.07747  1.0000
  H   H1295     1.0  0.82767  0.23513  0.90015  1.0000
  C   C1293     1.0  0.75218  0.26872  0.06911  1.0000
  C   C1294     1.0  0.74236  0.25230  0.83415  1.0000
  C   C1295     1.0  0.86988  0.25049  0.81863  1.0000
  C   C1296     1.0  0.74259  0.32767  0.80332  1.0000
  H   H1296     1.0  0.74971  0.30263  0.98024  1.0000
  H   H1297     1.0  0.75171  0.32775  0.69400  1.0000
  C   C1297     1.0  0.84781  0.24163  0.86230  1.0000
  H   H1298     1.0  0.75962  0.34236  0.17127  1.0000
  Fe  Fe217     1.0  0.85929  0.69766  0.35385  1.0000
  S   S432      1.0  0.84985  0.67616  0.38121  1.0000
  S   S433      1.0  0.74771  0.62327  0.90747  1.0000
  Fe  Fe218     1.0  0.88793  0.67937  0.31572  1.0000
  S   S434      1.0  0.88081  0.65584  0.34125  1.0000
  S   S435      1.0  0.90985  0.68216  0.27431  1.0000
  Fe  Fe219     1.0  0.85699  0.66759  0.32869  1.0000
  S   S436      1.0  0.83697  0.65819  0.31656  1.0000
  Fe  Fe220     1.0  0.87404  0.66617  0.39220  1.0000
  S   S437      1.0  0.87218  0.65344  0.44989  1.0000
  S   S438      1.0  0.86445  0.69031  0.30004  1.0000
  S   S439      1.0  0.88316  0.68843  0.36775  1.0000
  Fe  Fe221     1.0  0.77608  0.60977  0.22725  1.0000
  S   S440      1.0  0.79418  0.62112  0.18706  1.0000
  S   S441      1.0  0.75479  0.62306  0.25710  1.0000
  Fe  Fe222     1.0  0.79196  0.57709  0.21818  1.0000
  S   S442      1.0  0.81182  0.58546  0.17711  1.0000
  S   S443      1.0  0.78775  0.55212  0.23131  1.0000
  Fe  Fe223     1.0  0.81141  0.60242  0.21386  1.0000
  S   S444      1.0  0.83423  0.60801  0.22238  1.0000
  Fe  Fe224     1.0  0.79318  0.60357  0.15336  1.0000
  S   S445      1.0  0.79198  0.61314  0.09441  1.0000
  S   S446      1.0  0.79321  0.59225  0.25688  1.0000
  S   S447      1.0  0.77344  0.59400  0.19164  1.0000
  Fe  Fe225     1.0  0.88500  0.67473  0.63026  1.0000
  S   S448      1.0  0.86221  0.66672  0.65566  1.0000
  S   S449      1.0  0.89807  0.67227  0.57397  1.0000
  Fe  Fe226     1.0  0.88397  0.69391  0.68949  1.0000
  S   S450      1.0  0.86084  0.68765  0.71790  1.0000
  S   S451      1.0  0.89083  0.71363  0.70926  1.0000
  Fe  Fe227     1.0  0.87095  0.66323  0.70777  1.0000
  S   S452      1.0  0.86662  0.64509  0.75788  1.0000
  Fe  Fe228     1.0  0.85413  0.69161  0.66400  1.0000
  S   S453      1.0  0.89482  0.66915  0.68201  1.0000
  S   S454      1.0  0.87622  0.69993  0.63603  1.0000
  Fe  Fe229     1.0  0.79344  0.58236  0.91703  1.0000
  S   S455      1.0  0.79147  0.60725  0.88809  1.0000
  S   S456      1.0  0.80299  0.57342  0.96905  1.0000
  Fe  Fe230     1.0  0.77642  0.57241  0.86540  1.0000
  S   S457      1.0  0.77276  0.59668  0.83396  1.0000
  S   S458      1.0  0.76700  0.55192  0.85524  1.0000
  Fe  Fe231     1.0  0.79768  0.59697  0.83755  1.0000
  S   S459      1.0  0.81095  0.60686  0.78370  1.0000
  Fe  Fe232     1.0  0.76701  0.60481  0.88700  1.0000
  H   H1299     1.0  0.86027  0.68905  0.44236  1.0000
  S   S460      1.0  0.80184  0.57192  0.86633  1.0000
  S   S461      1.0  0.76852  0.58057  0.91860  1.0000
  C   C1298     1.0  0.75939  0.55061  0.81734  1.0000
  C   C1299     1.0  0.76066  0.56174  0.78600  1.0000
  H   H1300     1.0  0.75284  0.62514  0.83063  1.0000
  C   C1300     1.0  0.74725  0.58290  0.28964  1.0000
  H   H1301     1.0  0.83868  0.64518  0.39625  1.0000
  H   H1302     1.0  0.76576  0.57190  0.78506  1.0000
  C   C1301     1.0  0.75651  0.61154  0.04929  1.0000
  H   H1303     1.0  0.79145  0.65684  0.72238  1.0000
  C   C1302     1.0  0.90662  0.71430  0.73018  1.0000
  H   H1304     1.0  0.82542  0.60841  0.33940  1.0000
  C   C1303     1.0  0.90841  0.70755  0.17988  1.0000
  H   H1305     1.0  0.87359  0.62025  0.36451  1.0000
  H   H1306     1.0  0.87557  0.60263  0.32129  1.0000
  C   C1304     1.0  0.85071  0.63502  0.76510  1.0000
  C   C1305     1.0  0.84518  0.62761  0.79982  1.0000
  C   C1306     1.0  0.83284  0.61914  0.80615  1.0000
  C   C1307     1.0  0.82619  0.61770  0.77760  1.0000
  C   C1308     1.0  0.83173  0.62508  0.74292  1.0000
  C   C1309     1.0  0.84378  0.63388  0.73674  1.0000
  H   H1307     1.0  0.85053  0.62836  0.82188  1.0000
  H   H1308     1.0  0.82875  0.61344  0.83296  1.0000
  H   H1309     1.0  0.82675  0.62396  0.72061  1.0000
  H   H1310     1.0  0.84802  0.63938  0.70986  1.0000
  C   C1310     1.0  0.77672  0.54545  0.27307  1.0000
  C   C1311     1.0  0.76869  0.53306  0.27628  1.0000
  N   N110      1.0  0.84862  0.62406  0.37611  1.0000
  C   C1312     1.0  0.76647  0.54710  0.33562  1.0000
  C   C1313     1.0  0.77561  0.55244  0.30288  1.0000
  H   H1311     1.0  0.80995  0.71340  0.35982  1.0000
  H   H1312     1.0  0.93838  0.69177  0.76339  1.0000
  H   H1313     1.0  0.78196  0.56180  0.30085  1.0000
  C   C1314     1.0  0.79525  0.60180  0.06009  1.0000
  C   C1315     1.0  0.79391  0.60952  0.02503  1.0000
  C   C1316     1.0  0.79609  0.60099  0.99700  1.0000
  C   C1317     1.0  0.79989  0.58461  0.00365  1.0000
  C   C1318     1.0  0.80153  0.57692  0.03860  1.0000
  C   C1319     1.0  0.79912  0.58544  0.06678  1.0000
  H   H1314     1.0  0.79103  0.62219  0.01954  1.0000
  H   H1315     1.0  0.79508  0.60707  0.97012  1.0000
  H   H1316     1.0  0.80454  0.56425  0.04396  1.0000
  H   H1317     1.0  0.80023  0.57934  0.09362  1.0000
  C   C1320     1.0  0.91641  0.70037  0.26396  1.0000
  C   C1321     1.0  0.93001  0.70219  0.23851  1.0000
  C   C1322     1.0  0.75925  0.52797  0.30882  1.0000
  C   C1323     1.0  0.90774  0.71333  0.27879  1.0000
  C   C1324     1.0  0.76613  0.66429  0.84074  1.0000
  H   H1318     1.0  0.77822  0.64319  0.86914  1.0000
  H   H1319     1.0  0.89732  0.71207  0.29861  1.0000
  C   C1325     1.0  0.87920  0.65923  0.48393  1.0000
  C   C1326     1.0  0.89190  0.66710  0.47611  1.0000
  C   C1327     1.0  0.89760  0.67086  0.50400  1.0000
  C   C1328     1.0  0.89044  0.66718  0.53991  1.0000
  C   C1329     1.0  0.87753  0.65960  0.54766  1.0000
  C   C1330     1.0  0.87209  0.65546  0.51984  1.0000
  H   H1320     1.0  0.89764  0.66987  0.44867  1.0000
  H   H1321     1.0  0.90768  0.67660  0.49773  1.0000
  H   H1322     1.0  0.87199  0.65658  0.57516  1.0000
  H   H1323     1.0  0.86236  0.64925  0.52624  1.0000
  C   C1331     1.0  0.83660  0.64507  0.28792  1.0000
  C   C1332     1.0  0.85023  0.63751  0.26856  1.0000
  C   C1333     1.0  0.84930  0.62639  0.24810  1.0000
  C   C1334     1.0  0.83478  0.62276  0.24668  1.0000
  C   C1335     1.0  0.82117  0.63056  0.26547  1.0000
  C   C1336     1.0  0.82209  0.64163  0.28595  1.0000
  H   H1324     1.0  0.86147  0.64003  0.26979  1.0000
  H   H1325     1.0  0.85991  0.62045  0.23361  1.0000
  H   H1326     1.0  0.80991  0.62792  0.26461  1.0000
  H   H1327     1.0  0.81147  0.64740  0.30076  1.0000
  H   H1328     1.0  0.85870  0.63806  0.40108  1.0000
  H   H1329     1.0  0.83420  0.68497  0.56171  1.0000
  C   C1337     1.0  0.93445  0.71702  0.22658  1.0000
  N   N111      1.0  0.86046  0.69730  0.49009  1.0000
  C   C1338     1.0  0.86987  0.70251  0.50712  1.0000
  C   C1339     1.0  0.84766  0.69125  0.50916  1.0000
  C   C1340     1.0  0.86678  0.70137  0.54433  1.0000
  C   C1341     1.0  0.84418  0.69001  0.54644  1.0000
  C   C1342     1.0  0.85386  0.69506  0.56405  1.0000
  C   C1343     1.0  0.86371  0.69883  0.45104  1.0000
  H   H1330     1.0  0.88014  0.70712  0.49210  1.0000
  H   H1331     1.0  0.84026  0.68708  0.49560  1.0000
  H   H1332     1.0  0.92359  0.68739  0.16074  1.0000
  S   S462      1.0  0.94274  0.71565  0.79871  1.0000
  H   H1333     1.0  0.85147  0.69384  0.59297  1.0000
  H   H1334     1.0  0.75307  0.51846  0.31098  1.0000
  C   C1344     1.0  0.92928  0.72507  0.13434  1.0000
  N   N112      1.0  0.75254  0.61451  0.01595  1.0000
  N   N113      1.0  0.89542  0.67806  0.80186  1.0000
  C   C1345     1.0  0.90832  0.67391  0.81817  1.0000
  C   C1346     1.0  0.88687  0.69292  0.80027  1.0000
  C   C1347     1.0  0.91277  0.68469  0.83411  1.0000
  C   C1348     1.0  0.89095  0.70397  0.81605  1.0000
  C   C1349     1.0  0.90400  0.69980  0.83303  1.0000
  C   C1350     1.0  0.89150  0.66684  0.78373  1.0000
  H   H1335     1.0  0.91547  0.66234  0.81815  1.0000
  H   H1336     1.0  0.87718  0.69650  0.78559  1.0000
  H   H1337     1.0  0.92334  0.68163  0.84583  1.0000
  H   H1338     1.0  0.90781  0.70847  0.84373  1.0000
  H   H1339     1.0  0.88453  0.71591  0.81353  1.0000
  H   H1340     1.0  0.89909  0.66671  0.75710  1.0000
  H   H1341     1.0  0.89307  0.65480  0.79960  1.0000
  H   H1342     1.0  0.87908  0.66984  0.77984  1.0000
  H   H1343     1.0  0.74876  0.50453  0.49165  1.0000
  C   C1351     1.0  0.92545  0.73008  0.24056  1.0000
  H   H1344     1.0  0.90057  0.70051  0.19837  1.0000
  N   N114      1.0  0.90605  0.72341  0.17871  1.0000
  H   H1345     1.0  0.75557  0.68381  0.80488  1.0000
  H   H1346     1.0  0.78945  0.52802  0.81396  1.0000
  H   H1347     1.0  0.80749  0.58589  0.72906  1.0000
  C   C1352     1.0  0.75275  0.53746  0.81800  1.0000
  H   H1348     1.0  0.74334  0.64389  0.13680  1.0000
  C   C1353     1.0  0.83570  0.73237  0.33875  1.0000
  H   H1349     1.0  0.81235  0.57315  0.78965  1.0000
  C   C1354     1.0  0.81579  0.73481  0.64420  1.0000
  H   H1350     1.0  0.79613  0.57200  0.69364  1.0000
  H   H1351     1.0  0.76963  0.52750  0.25342  1.0000
  H   H1352     1.0  0.83267  0.72664  0.71816  1.0000
  H   H1353     1.0  0.76580  0.55243  0.35870  1.0000
  C   C1355     1.0  0.91820  0.70122  0.73754  1.0000
  H   H1354     1.0  0.80507  0.54713  0.81586  1.0000
  S   S463      1.0  0.74482  0.54331  0.71554  1.0000
  C   C1356     1.0  0.91232  0.72807  0.26734  1.0000
  C   C1357     1.0  0.84740  0.63435  0.40205  1.0000
  C   C1358     1.0  0.81701  0.69897  0.31887  1.0000
  C   C1359     1.0  0.80327  0.55246  0.78883  1.0000
  C   C1360     1.0  0.82951  0.72415  0.63586  1.0000
  S   S464      1.0  0.84499  0.71955  0.37186  1.0000
  C   C1361     1.0  0.79564  0.65038  0.74737  1.0000
  H   H1355     1.0  0.77284  0.67567  0.75075  1.0000
  H   H1356     1.0  0.75563  0.62074  0.09724  1.0000
  C   C1362     1.0  0.80528  0.70895  0.26597  1.0000
  H   H1357     1.0  0.82494  0.69019  0.33361  1.0000
  N   N115      1.0  0.83164  0.61480  0.10069  1.0000
  C   C1363     1.0  0.83924  0.61085  0.12942  1.0000
  C   C1364     1.0  0.83185  0.60385  0.08028  1.0000
  C   C1365     1.0  0.84742  0.59563  0.13823  1.0000
  C   C1366     1.0  0.83977  0.58847  0.08856  1.0000
  C   C1367     1.0  0.84762  0.58437  0.11771  1.0000
  C   C1368     1.0  0.82280  0.63073  0.09283  1.0000
  H   H1358     1.0  0.83873  0.61941  0.14618  1.0000
  H   H1359     1.0  0.82562  0.60687  0.05786  1.0000
  H   H1360     1.0  0.85309  0.59250  0.16163  1.0000
  H   H1361     1.0  0.83953  0.57976  0.07282  1.0000
  H   H1362     1.0  0.85356  0.57241  0.12489  1.0000
  H   H1363     1.0  0.81237  0.63250  0.11412  1.0000
  H   H1364     1.0  0.83020  0.63954  0.09146  1.0000
  H   H1365     1.0  0.81846  0.63286  0.06704  1.0000
  H   H1366     1.0  0.85132  0.59662  0.30865  1.0000
  C   C1369     1.0  0.83526  0.62072  0.36948  1.0000
  H   H1367     1.0  0.75029  0.56713  0.23609  1.0000
  C   C1370     1.0  0.85061  0.60405  0.32816  1.0000
  C   C1371     1.0  0.79467  0.55168  0.73532  1.0000
  C   C1372     1.0  0.76458  0.67338  0.80726  1.0000
  H   H1368     1.0  0.93691  0.69218  0.22725  1.0000
  C   C1373     1.0  0.86298  0.61756  0.35939  1.0000
  C   C1374     1.0  0.74399  0.62869  0.00379  1.0000
  H   H1369     1.0  0.80565  0.73073  0.66133  1.0000
  C   C1375     1.0  0.79845  0.72324  0.31409  1.0000
  H   H1370     1.0  0.75874  0.62663  0.18052  1.0000
  C   C1376     1.0  0.79828  0.56655  0.72033  1.0000
  C   C1377     1.0  0.77725  0.65054  0.84328  1.0000
  C   C1378     1.0  0.75596  0.55938  0.75527  1.0000
  C   C1379     1.0  0.81537  0.69740  0.28489  1.0000
  C   C1380     1.0  0.90693  0.72827  0.74158  1.0000
  H   H1371     1.0  0.82195  0.68727  0.27334  1.0000
  C   C1381     1.0  0.74855  0.63482  0.18967  1.0000
  C   C1382     1.0  0.84039  0.73094  0.30265  1.0000
  H   H1372     1.0  0.94470  0.71837  0.20629  1.0000
  H   H1373     1.0  0.82388  0.62616  0.38209  1.0000
  C   C1383     1.0  0.83605  0.61066  0.34548  1.0000
  C   C1384     1.0  0.92965  0.70203  0.75716  1.0000
  C   C1385     1.0  0.75816  0.53495  0.33863  1.0000
  S   S465      1.0  0.74662  0.52880  0.38006  1.0000
  C   C1386     1.0  0.92966  0.71588  0.76954  1.0000
  C   C1387     1.0  0.80461  0.57433  0.74011  1.0000
  H   H1374     1.0  0.76390  0.59144  0.00588  1.0000
  H   H1375     1.0  0.87469  0.70485  0.55780  1.0000
  H   H1376     1.0  0.76342  0.60037  0.05892  1.0000
  C   C1388     1.0  0.86419  0.60751  0.33508  1.0000
  C   C1389     1.0  0.78681  0.64613  0.81215  1.0000
  H   H1377     1.0  0.91821  0.69043  0.72868  1.0000
  S   S466      1.0  0.83025  0.70434  0.65504  1.0000
  H   H1378     1.0  0.84378  0.62822  0.42963  1.0000
  H   H1379     1.0  0.86029  0.72352  0.68826  1.0000
  C   C1390     1.0  0.74410  0.63569  0.22607  1.0000
  N   N116      1.0  0.78519  0.65509  0.77940  1.0000
  C   C1391     1.0  0.77427  0.66859  0.77666  1.0000
  N   N117      1.0  0.79702  0.72169  0.28059  1.0000
  C   C1392     1.0  0.75207  0.62301  0.07121  1.0000
  C   C1393     1.0  0.75772  0.60271  0.99246  1.0000
  H   H1380     1.0  0.85301  0.72137  0.60621  1.0000
  H   H1381     1.0  0.96665  0.72515  0.99172  1.0000
  H   H1382     1.0  0.85045  0.72241  0.29454  1.0000
  C   C1394     1.0  0.79338  0.52926  0.78446  1.0000
  C   C1395     1.0  0.93195  0.70889  0.13582  1.0000
  H   H1383     1.0  0.87642  0.69832  0.44052  1.0000
  C   C1396     1.0  0.74034  0.64765  0.81028  1.0000
  H   H1384     1.0  0.80390  0.52022  0.77865  1.0000
  C   C1397     1.0  0.80848  0.71193  0.33368  1.0000
  H   H1385     1.0  0.75839  0.66767  0.86456  1.0000
  H   H1386     1.0  0.74288  0.52498  0.78822  1.0000
  H   H1387     1.0  0.79642  0.63766  0.74766  1.0000
  H   H1388     1.0  0.75848  0.58212  0.27045  1.0000
  H   H1389     1.0  0.94224  0.70327  0.11949  1.0000
  C   C1398     1.0  0.74771  0.53528  0.78750  1.0000
  H   H1390     1.0  0.80412  0.70770  0.23947  1.0000
  C   C1399     1.0  0.92146  0.70003  0.15870  1.0000
  N   N118      1.0  0.79698  0.54494  0.76937  1.0000
  C   C1400     1.0  0.80726  0.56720  0.77440  1.0000
  H   H1391     1.0  0.79547  0.63542  0.81427  1.0000
  H   H1392     1.0  0.85719  0.71012  0.43875  1.0000
  H   H1393     1.0  0.80756  0.65264  0.74661  1.0000
  H   H1394     1.0  0.74395  0.64617  0.78259  1.0000
  H   H1395     1.0  0.78365  0.52706  0.77326  1.0000
  C   C1401     1.0  0.91619  0.73219  0.15609  1.0000
  H   H1396     1.0  0.78964  0.54573  0.71989  1.0000
  C   C1402     1.0  0.84256  0.72953  0.61368  1.0000
  H   H1397     1.0  0.93745  0.73198  0.11678  1.0000
  H   H1398     1.0  0.75178  0.52874  0.84209  1.0000
  C   C1403     1.0  0.91838  0.72908  0.76110  1.0000
  H   H1399     1.0  0.74755  0.60030  0.98330  1.0000
  C   C1404     1.0  0.74953  0.54612  0.75576  1.0000
  H   H1400     1.0  0.74012  0.59469  0.28277  1.0000
  H   H1401     1.0  0.75739  0.56784  0.73084  1.0000
  C   C1405     1.0  0.89227  0.73119  0.20075  1.0000
  C   C1406     1.0  0.74539  0.63573  0.83748  1.0000
  C   C1407     1.0  0.74124  0.56404  0.25849  1.0000
  H   H1402     1.0  0.76593  0.60708  0.96847  1.0000
  H   H1403     1.0  0.75027  0.58169  0.31660  1.0000
  H   H1404     1.0  0.74089  0.63105  0.97730  1.0000
  C   C1408     1.0  0.74081  0.63764  0.87329  1.0000
  C   C1409     1.0  0.78672  0.73370  0.25982  1.0000
  H   H1405     1.0  0.79211  0.73344  0.32555  1.0000
  H   H1406     1.0  0.88825  0.72303  0.22529  1.0000
  C   C1410     1.0  0.74328  0.63748  0.05908  1.0000
  H   H1407     1.0  0.77745  0.72854  0.25363  1.0000
  H   H1408     1.0  0.87972  0.73430  0.64234  1.0000
  H   H1409     1.0  0.98953  0.73480  0.91788  1.0000
  Fe  Fe233     1.0  0.78787  0.77857  0.28424  1.0000
  S   S467      1.0  0.80798  0.76333  0.25577  1.0000
  Fe  Fe234     1.0  0.77433  0.80687  0.59001  1.0000
  S   S468      1.0  0.77217  0.79721  0.25321  1.0000
  S   S469      1.0  0.79132  0.79380  0.32009  1.0000
  C   C1411     1.0  0.97135  0.78083  0.95219  1.0000
  H   H1410     1.0  0.75215  0.74160  0.21150  1.0000
  Fe  Fe235     1.0  0.78438  0.81452  0.65512  1.0000
  S   S470      1.0  0.79587  0.81456  0.59763  1.0000
  S   S471      1.0  0.78366  0.83266  0.68977  1.0000
  Fe  Fe236     1.0  0.80400  0.78892  0.61528  1.0000
  S   S472      1.0  0.82813  0.77646  0.59650  1.0000
  H   H1411     1.0  0.80429  0.76165  0.33184  1.0000
  S   S473      1.0  0.79439  0.78937  0.67310  1.0000
  Fe  Fe237     1.0  0.94724  0.75639  0.17501  1.0000
  S   S474      1.0  0.95878  0.77739  0.16992  1.0000
  H   H1412     1.0  0.75416  0.76190  0.24514  1.0000
  Fe  Fe238     1.0  0.96107  0.75166  0.09847  1.0000
  S   S475      1.0  0.97347  0.77209  0.08690  1.0000
  C   C1412     1.0  0.97653  0.77112  0.92631  1.0000
  C   C1413     1.0  0.95884  0.73637  0.99046  1.0000
  C   C1414     1.0  0.74293  0.74557  0.73697  1.0000
  Fe  Fe239     1.0  0.95120  0.78454  0.11610  1.0000
  S   S476      1.0  0.94054  0.80850  0.08937  1.0000
  C   C1415     1.0  0.98637  0.76185  0.99203  1.0000
  S   S477      1.0  0.93826  0.76476  0.12302  1.0000
  Fe  Fe240     1.0  0.86464  0.88473  0.06313  1.0000
  S   S478      1.0  0.87714  0.89233  0.09967  1.0000
  S   S479      1.0  0.87546  0.88487  0.00522  1.0000
  Fe  Fe241     1.0  0.83782  0.87652  0.12275  1.0000
  S   S480      1.0  0.84778  0.88378  0.16395  1.0000
  S   S481      1.0  0.81641  0.86528  0.13132  1.0000
  Fe  Fe242     1.0  0.85328  0.90464  0.12185  1.0000
  S   S482      1.0  0.84575  0.92978  0.13275  1.0000
  Fe  Fe243     1.0  0.87070  0.87095  0.13806  1.0000
  S   S483      1.0  0.88615  0.85298  0.17190  1.0000
  S   S484      1.0  0.84120  0.89834  0.08246  1.0000
  S   S485      1.0  0.86031  0.86242  0.09963  1.0000
  C   C1416     1.0  0.76540  0.81328  0.46889  1.0000
  N   N119      1.0  0.80615  0.79946  0.48697  1.0000
  Fe  Fe244     1.0  0.87797  0.86475  0.79692  1.0000
  S   S486      1.0  0.86851  0.87618  0.74663  1.0000
  S   S487      1.0  0.90252  0.85451  0.80655  1.0000
  Fe  Fe245     1.0  0.84656  0.87112  0.84454  1.0000
  S   S488      1.0  0.83398  0.88255  0.79821  1.0000
  S   S489      1.0  0.83583  0.86892  0.90325  1.0000
  Fe  Fe246     1.0  0.84851  0.86297  0.77014  1.0000
  S   S490      1.0  0.84364  0.84819  0.73309  1.0000
  Fe  Fe247     1.0  0.85472  0.89483  0.77823  1.0000
  S   S491      1.0  0.85059  0.92121  0.75953  1.0000
  S   S492      1.0  0.85909  0.85046  0.81867  1.0000
  S   S493      1.0  0.86609  0.88461  0.82589  1.0000
  Fe  Fe248     1.0  0.77405  0.81196  0.29233  1.0000
  Fe  Fe249     1.0  0.94565  0.75893  0.86587  1.0000
  S   S494      1.0  0.96047  0.77516  0.82864  1.0000
  S   S495      1.0  0.93473  0.76673  0.91864  1.0000
  H   H1413     1.0  0.89808  0.73849  0.73593  1.0000
  S   S496      1.0  0.96411  0.75218  0.76973  1.0000
  H   H1414     1.0  0.76962  0.78344  0.53906  1.0000
  C   C1417     1.0  0.76320  0.80217  0.74503  1.0000
  Fe  Fe250     1.0  0.94708  0.77285  0.78768  1.0000
  S   S497      1.0  0.93753  0.79269  0.74723  1.0000
  H   H1415     1.0  0.80583  0.91616  0.08032  1.0000
  S   S498      1.0  0.93078  0.75849  0.82584  1.0000
  C   C1418     1.0  0.91193  0.83731  0.78988  1.0000
  C   C1419     1.0  0.90723  0.83300  0.76164  1.0000
  C   C1420     1.0  0.91516  0.81927  0.74860  1.0000
  C   C1421     1.0  0.92737  0.80953  0.76467  1.0000
  C   C1422     1.0  0.93168  0.81359  0.79372  1.0000
  C   C1423     1.0  0.92418  0.82761  0.80583  1.0000
  H   H1416     1.0  0.89775  0.84044  0.74932  1.0000
  H   H1417     1.0  0.91179  0.81615  0.72611  1.0000
  H   H1418     1.0  0.94105  0.80615  0.80631  1.0000
  H   H1419     1.0  0.92774  0.83087  0.82789  1.0000
  C   C1424     1.0  0.86083  0.93278  0.77526  1.0000
  C   C1425     1.0  0.85615  0.94916  0.77028  1.0000
  C   C1426     1.0  0.86358  0.95852  0.78430  1.0000
  C   C1427     1.0  0.87588  0.95152  0.80305  1.0000
  C   C1428     1.0  0.88083  0.93521  0.80702  1.0000
  C   C1429     1.0  0.87333  0.92589  0.79333  1.0000
  H   H1420     1.0  0.84657  0.95464  0.75607  1.0000
  C   C1430     1.0  0.74374  0.76905  0.79783  1.0000
  H   H1421     1.0  0.89045  0.92971  0.82108  1.0000
  H   H1422     1.0  0.87736  0.91338  0.79656  1.0000
  C   C1431     1.0  0.84706  0.87250  0.93240  1.0000
  C   C1432     1.0  0.84007  0.87455  0.96747  1.0000
  C   C1433     1.0  0.84872  0.87806  0.99043  1.0000
  C   C1434     1.0  0.86442  0.87955  0.97832  1.0000
  C   C1435     1.0  0.87147  0.87716  0.94363  1.0000
  C   C1436     1.0  0.86284  0.87363  0.92086  1.0000
  H   H1423     1.0  0.82788  0.87360  0.97677  1.0000
  H   H1424     1.0  0.84320  0.87979  0.01728  1.0000
  H   H1425     1.0  0.88365  0.87814  0.93422  1.0000
  H   H1426     1.0  0.86854  0.87170  0.89447  1.0000
  C   C1437     1.0  0.85788  0.94368  0.13069  1.0000
  C   C1438     1.0  0.85080  0.95898  0.13627  1.0000
  C   C1439     1.0  0.85990  0.97032  0.13556  1.0000
  C   C1440     1.0  0.87625  0.96647  0.12938  1.0000
  C   C1441     1.0  0.88334  0.95120  0.12357  1.0000
  C   C1442     1.0  0.87423  0.93988  0.12408  1.0000
  H   H1427     1.0  0.83817  0.96207  0.14152  1.0000
  C   C1443     1.0  0.76662  0.80576  0.50417  1.0000
  H   H1428     1.0  0.89597  0.94808  0.11881  1.0000
  H   H1429     1.0  0.87987  0.92818  0.11977  1.0000
  H   H1430     1.0  0.81916  0.74477  0.37694  1.0000
  C   C1444     1.0  0.94497  0.75859  0.01836  1.0000
  C   C1445     1.0  0.93856  0.76524  0.98731  1.0000
  C   C1446     1.0  0.94251  0.75764  0.95751  1.0000
  C   C1447     1.0  0.98266  0.81337  0.76245  1.0000
  H   H1431     1.0  0.85884  0.97852  0.06154  1.0000
  H   H1432     1.0  0.94208  0.76467  0.04098  1.0000
  Fe  Fe251     1.0  0.75287  0.78826  0.29510  1.0000
  H   H1433     1.0  0.91823  0.73981  0.77041  1.0000
  C   C1448     1.0  0.76885  0.78939  0.51201  1.0000
  C   C1449     1.0  0.92357  0.81865  0.11301  1.0000
  C   C1450     1.0  0.91388  0.83065  0.09390  1.0000
  C   C1451     1.0  0.90180  0.84070  0.11194  1.0000
  C   C1452     1.0  0.89947  0.83895  0.14924  1.0000
  C   C1453     1.0  0.90871  0.82652  0.16848  1.0000
  C   C1454     1.0  0.92064  0.81628  0.15043  1.0000
  H   H1434     1.0  0.91606  0.83251  0.06496  1.0000
  H   H1435     1.0  0.89480  0.85026  0.09680  1.0000
  H   H1436     1.0  0.90691  0.82505  0.19737  1.0000
  H   H1437     1.0  0.92804  0.80703  0.16539  1.0000
  H   H1438     1.0  0.80512  0.90439  0.23474  1.0000
  H   H1439     1.0  0.83564  0.73955  0.24900  1.0000
  H   H1440     1.0  0.81520  0.82055  0.47657  1.0000
  C   C1455     1.0  0.80041  0.83653  0.70249  1.0000
  C   C1456     1.0  0.79844  0.84702  0.72649  1.0000
  C   C1457     1.0  0.81147  0.85050  0.73688  1.0000
  C   C1458     1.0  0.82665  0.84358  0.72313  1.0000
  C   C1459     1.0  0.82860  0.83312  0.69912  1.0000
  C   C1460     1.0  0.81558  0.82954  0.68898  1.0000
  H   H1441     1.0  0.78676  0.85249  0.73710  1.0000
  H   H1442     1.0  0.80976  0.85859  0.75532  1.0000
  H   H1443     1.0  0.84028  0.82775  0.68820  1.0000
  H   H1444     1.0  0.81731  0.82151  0.67041  1.0000
  S   S499      1.0  0.96919  0.74169  0.15092  1.0000
  S   S500      1.0  0.76481  0.76309  0.70041  1.0000
  S   S501      1.0  0.78116  0.83577  0.28174  1.0000
  H   H1445     1.0  0.96153  0.81128  0.74608  1.0000
  H   H1446     1.0  0.80638  0.77361  0.43367  1.0000
  H   H1447     1.0  0.96320  0.79171  0.94698  1.0000
  C   C1461     1.0  0.79467  0.89595  0.19870  1.0000
  C   C1462     1.0  0.97363  0.80606  0.74791  1.0000
  C   C1463     1.0  0.82848  0.75630  0.61031  1.0000
  C   C1464     1.0  0.81534  0.75087  0.63179  1.0000
  H   H1448     1.0  0.77496  0.80466  0.73583  1.0000
  H   H1449     1.0  0.97307  0.78627  0.72470  1.0000
  S   S502      1.0  0.92945  0.74927  0.22403  1.0000
  H   H1450     1.0  0.80493  0.75899  0.63997  1.0000
  S   S503      1.0  0.76549  0.81718  0.53742  1.0000
  C   C1465     1.0  0.79979  0.90713  0.09906  1.0000
  S   S504      1.0  0.78342  0.78121  0.60394  1.0000
  C   C1466     1.0  0.76905  0.78816  0.44949  1.0000
  C   C1467     1.0  0.79201  0.84266  0.23999  1.0000
  C   C1468     1.0  0.78924  0.83958  0.20820  1.0000
  C   C1469     1.0  0.79693  0.84650  0.17508  1.0000
  C   C1470     1.0  0.80779  0.85613  0.17353  1.0000
  C   C1471     1.0  0.81102  0.85874  0.20535  1.0000
  C   C1472     1.0  0.80294  0.85224  0.23846  1.0000
  H   H1451     1.0  0.79434  0.84448  0.15054  1.0000
  H   H1452     1.0  0.81933  0.86618  0.20446  1.0000
  H   H1453     1.0  0.80506  0.85472  0.26302  1.0000
  H   H1454     1.0  0.76607  0.81046  0.41439  1.0000
  H   H1455     1.0  0.76358  0.82596  0.46260  1.0000
  C   C1473     1.0  0.81907  0.75186  0.28733  1.0000
  H   H1456     1.0  0.97230  0.77470  0.90105  1.0000
  H   H1457     1.0  0.81072  0.79352  0.54044  1.0000
  C   C1474     1.0  0.95513  0.74414  0.01999  1.0000
  H   H1458     1.0  0.75216  0.82508  0.72212  1.0000
  C   C1475     1.0  0.81449  0.75334  0.32339  1.0000
  C   C1476     1.0  0.87591  0.74596  0.65085  1.0000
  H   H1459     1.0  0.75276  0.75948  0.78747  1.0000
  C   C1477     1.0  0.75036  0.81366  0.73745  1.0000
  C   C1478     1.0  0.83522  0.76488  0.68581  1.0000
  C   C1479     1.0  0.93199  0.86223  0.06025  1.0000
  C   C1480     1.0  0.92000  0.87271  0.07679  1.0000
  H   H1460     1.0  0.93071  0.77643  0.98621  1.0000
  H   H1461     1.0  0.81635  0.92350  0.12348  1.0000
  N   N120      1.0  0.80115  0.90666  0.13633  1.0000
  H   H1462     1.0  0.78092  0.74353  0.27439  1.0000
  H   H1463     1.0  0.80519  0.89557  0.09097  1.0000
  C   C1481     1.0  0.81164  0.91512  0.17993  1.0000
  H   H1464     1.0  0.90817  0.87958  0.12718  1.0000
  H   H1465     1.0  0.91232  0.88135  0.06102  1.0000
  H   H1466     1.0  0.98991  0.75783  0.01806  1.0000
  C   C1482     1.0  0.85079  0.76271  0.66836  1.0000
  N   N121      1.0  0.93890  0.84983  0.11751  1.0000
  C   C1483     1.0  0.94145  0.85084  0.08112  1.0000
  C   C1484     1.0  0.92732  0.86022  0.13388  1.0000
  C   C1485     1.0  0.81012  0.91577  0.14444  1.0000
  C   C1486     1.0  0.91768  0.87177  0.11383  1.0000
  C   C1487     1.0  0.98027  0.79192  0.73570  1.0000
  C   C1488     1.0  0.94898  0.83791  0.13899  1.0000
  H   H1467     1.0  0.93369  0.86268  0.03155  1.0000
  H   H1468     1.0  0.92510  0.85929  0.16277  1.0000
  Fe  Fe252     1.0  0.97619  0.75317  0.81465  1.0000
  C   C1489     1.0  0.82287  0.74370  0.34902  1.0000
  H   H1469     1.0  0.79900  0.81928  0.51354  1.0000
  H   H1470     1.0  0.95900  0.84278  0.14236  1.0000
  H   H1471     1.0  0.94232  0.83382  0.16573  1.0000
  H   H1472     1.0  0.95354  0.82734  0.12611  1.0000
  N   N122      1.0  0.84751  0.88317  0.66885  1.0000
  C   C1490     1.0  0.85574  0.89466  0.66816  1.0000
  C   C1491     1.0  0.83228  0.88418  0.68597  1.0000
  C   C1492     1.0  0.84873  0.90759  0.68485  1.0000
  C   C1493     1.0  0.82496  0.89688  0.70323  1.0000
  C   C1494     1.0  0.83326  0.90864  0.70261  1.0000
  C   C1495     1.0  0.85540  0.86944  0.65243  1.0000
  H   H1473     1.0  0.86792  0.89367  0.65544  1.0000
  H   H1474     1.0  0.82581  0.87498  0.68704  1.0000
  H   H1475     1.0  0.85538  0.91652  0.68510  1.0000
  H   H1476     1.0  0.81303  0.89741  0.71756  1.0000
  H   H1477     1.0  0.82788  0.91842  0.71654  1.0000
  H   H1478     1.0  0.86424  0.86222  0.66854  1.0000
  H   H1479     1.0  0.84708  0.86179  0.65171  1.0000
  H   H1480     1.0  0.86125  0.87309  0.62460  1.0000
  N   N123      1.0  0.85915  0.93273  0.89153  1.0000
  C   C1496     1.0  0.85709  0.91756  0.89561  1.0000
  C   C1497     1.0  0.85008  0.94458  0.87225  1.0000
  C   C1498     1.0  0.84569  0.91394  0.88021  1.0000
  C   C1499     1.0  0.83866  0.94135  0.85624  1.0000
  C   C1500     1.0  0.83657  0.92590  0.86003  1.0000
  C   C1501     1.0  0.87190  0.93611  0.90571  1.0000
  H   H1481     1.0  0.86442  0.90815  0.91045  1.0000
  H   H1482     1.0  0.78680  0.88921  0.15635  1.0000
  H   H1483     1.0  0.84413  0.90189  0.88328  1.0000
  H   H1484     1.0  0.83195  0.95070  0.83977  1.0000
  H   H1485     1.0  0.82815  0.92314  0.84671  1.0000
  H   H1486     1.0  0.88302  0.93409  0.88644  1.0000
  H   H1487     1.0  0.86974  0.94853  0.90948  1.0000
  H   H1488     1.0  0.87330  0.92851  0.93196  1.0000
  N   N124      1.0  0.88802  0.82279  0.89084  1.0000
  C   C1502     1.0  0.88999  0.81858  0.85799  1.0000
  C   C1503     1.0  0.89396  0.81250  0.91835  1.0000
  C   C1504     1.0  0.89841  0.80388  0.85170  1.0000
  C   C1505     1.0  0.90241  0.79768  0.91304  1.0000
  C   C1506     1.0  0.90469  0.79341  0.87943  1.0000
  C   C1507     1.0  0.87909  0.83826  0.89665  1.0000
  H   H1489     1.0  0.88536  0.82673  0.83613  1.0000
  H   H1490     1.0  0.89230  0.81575  0.94452  1.0000
  H   H1491     1.0  0.90032  0.80078  0.82527  1.0000
  H   H1492     1.0  0.90729  0.78959  0.93473  1.0000
  H   H1493     1.0  0.91140  0.78203  0.87483  1.0000
  H   H1494     1.0  0.88103  0.84152  0.92133  1.0000
  H   H1495     1.0  0.88278  0.84743  0.87402  1.0000
  H   H1496     1.0  0.86635  0.83852  0.89878  1.0000
  H   H1497     1.0  0.77156  0.76801  0.49136  1.0000
  H   H1498     1.0  0.85565  0.77287  0.65348  1.0000
  N   N125      1.0  0.85957  0.74798  0.66902  1.0000
  C   C1508     1.0  0.83208  0.74072  0.27688  1.0000
  H   H1499     1.0  0.85219  0.74976  0.58400  1.0000
  H   H1500     1.0  0.85661  0.97492  0.00100  1.0000
  C   C1509     1.0  0.76079  0.78742  0.76420  1.0000
  H   H1501     1.0  0.97757  0.82427  0.77233  1.0000
  S   S505      1.0  0.77088  0.77653  0.41639  1.0000
  C   C1510     1.0  0.84204  0.74561  0.60084  1.0000
  H   H1502     1.0  0.85968  0.97108  0.78100  1.0000
  H   H1503     1.0  0.81468  0.76499  0.54213  1.0000
  H   H1504     1.0  0.80244  0.80210  0.43325  1.0000
  C   C1511     1.0  0.80532  0.79399  0.45705  1.0000
  H   H1505     1.0  0.79525  0.82290  0.46908  1.0000
  N   N126      1.0  0.83958  0.82641  0.19750  1.0000
  C   C1512     1.0  0.83490  0.82094  0.23302  1.0000
  C   C1513     1.0  0.83354  0.82219  0.17196  1.0000
  C   C1514     1.0  0.82414  0.81069  0.24368  1.0000
  C   C1515     1.0  0.82282  0.81189  0.18169  1.0000
  C   C1516     1.0  0.81816  0.80607  0.21780  1.0000
  C   C1517     1.0  0.85073  0.83726  0.18638  1.0000
  H   H1506     1.0  0.83935  0.82458  0.25336  1.0000
  H   H1507     1.0  0.83680  0.82704  0.14390  1.0000
  H   H1508     1.0  0.82030  0.80649  0.27184  1.0000
  H   H1509     1.0  0.81793  0.80869  0.16143  1.0000
  H   H1510     1.0  0.80977  0.79815  0.22578  1.0000
  H   H1511     1.0  0.86068  0.83287  0.16617  1.0000
  H   H1512     1.0  0.84480  0.84894  0.17448  1.0000
  H   H1513     1.0  0.85582  0.83878  0.20905  1.0000
  S   S506      1.0  0.88446  0.96232  0.82486  1.0000
  H   H1514     1.0  0.85210  0.95655  0.86783  1.0000
  Fe  Fe253     1.0  0.77052  0.78582  0.35718  1.0000
  C   C1518     1.0  0.80762  0.77787  0.45706  1.0000
  S   S507      1.0  0.76180  0.80905  0.64650  1.0000
  Fe  Fe254     1.0  0.77278  0.78373  0.66085  1.0000
  H   H1515     1.0  0.88362  0.74675  0.66935  1.0000
  C   C1519     1.0  0.81092  0.76735  0.48786  1.0000
  H   H1516     1.0  0.95044  0.84242  0.06822  1.0000
  C   C1520     1.0  0.80387  0.90513  0.20717  1.0000
  C   C1521     1.0  0.80975  0.78921  0.51696  1.0000
  S   S508      1.0  0.96221  0.73684  0.85465  1.0000
  S   S509      1.0  0.76868  0.76862  0.32352  1.0000
  C   C1522     1.0  0.76988  0.78067  0.48489  1.0000
  C   C1523     1.0  0.81208  0.77302  0.51798  1.0000
  H   H1517     1.0  0.78729  0.90980  0.09602  1.0000
  H   H1518     1.0  0.81900  0.92221  0.18607  1.0000
  Fe  Fe255     1.0  0.98022  0.76327  0.14116  1.0000
  H   H1519     1.0  0.74451  0.76900  0.82602  1.0000
  H   H1520     1.0  0.95562  0.73718  0.93636  1.0000
  C   C1524     1.0  0.74536  0.76021  0.71681  1.0000
  H   H1521     1.0  0.78876  0.88793  0.21958  1.0000
  C   C1525     1.0  0.79352  0.89680  0.16289  1.0000
  S   S510      1.0  0.75311  0.80497  0.33203  1.0000
  C   C1526     1.0  0.76679  0.80453  0.44154  1.0000
  H   H1522     1.0  0.82818  0.77655  0.68404  1.0000
  H   H1523     1.0  0.78072  0.83237  0.20909  1.0000
  C   C1527     1.0  0.80389  0.81638  0.48638  1.0000
  H   H1524     1.0  0.98535  0.75103  0.88315  1.0000
  C   C1528     1.0  0.95266  0.74318  0.95910  1.0000
  H   H1525     1.0  0.81248  0.75483  0.48844  1.0000
  C   C1529     1.0  0.74280  0.75960  0.24406  1.0000
  H   H1526     1.0  0.90539  0.73808  0.27858  1.0000
  N   N127      1.0  0.74597  0.78428  0.77595  1.0000
  H   H1527     1.0  0.91440  0.74473  0.15552  1.0000
  S   S511      1.0  0.88827  0.98026  0.12884  1.0000
  H   H1528     1.0  0.81638  0.75334  0.71629  1.0000
  H   H1529     1.0  0.77086  0.77843  0.76921  1.0000
  H   H1530     1.0  0.87756  0.75496  0.62640  1.0000
  H   H1531     1.0  0.97200  0.78333  0.00595  1.0000
  C   C1530     1.0  0.82864  0.75187  0.70398  1.0000
  H   H1532     1.0  0.85426  0.98197  0.14033  1.0000
  C   C1531     1.0  0.97628  0.77612  0.98527  1.0000
  C   C1532     1.0  0.83776  0.73691  0.70502  1.0000
  H   H1533     1.0  0.79368  0.73888  0.23451  1.0000
  N   N128      1.0  0.98635  0.75708  0.93327  1.0000
  Fe  Fe256     1.0  0.94860  0.73775  0.81066  1.0000
  H   H1534     1.0  0.75278  0.73607  0.73953  1.0000
  H   H1535     1.0  0.89511  0.74118  0.20995  1.0000
  S   S512      1.0  0.96370  0.73581  0.05816  1.0000
  C   C1533     1.0  0.85334  0.73519  0.68759  1.0000
  C   C1534     1.0  0.86462  0.98205  0.00397  1.0000
  H   H1536     1.0  0.88261  0.73561  0.18515  1.0000
  C   C1535     1.0  0.74162  0.74808  0.22501  1.0000
  C   C1536     1.0  0.86578  0.98417  0.03787  1.0000
