data_image0
_chemical_formula_structural       HSCH2FeSHFeS2FeS2FeSFeS3CHFeS2FeS2HFeS2FeS2FeSFeS3C3SCH2C3H3C6H5C2S2H2C6H4C2HC2H2CHC7H4C3HCHCNFeH3CH4NC6H3CFeH3NH2C3HNC2H5CHCSC2H2FeHCHC3H3NHCHCHCHCH4C2HC2HCHC3SFeS2FeS2FeSFeS3FeCSH5S2FeS2FeS2FeSFeS3C3H2CHC6H4C3HSNHCHC8H5CHC2HC6H6CH2NC6H9C2H2C2H2C2HCH2C2NHCSCH2C2HFeCH2NH2CHCH3CH2C2HC2HNC2HNHC2FeCHC3FeS2FeS2FeSFeS3CSFeS2FeS2FeSFeS3FeSCSHCNCH2C3H5C6H4C4H3NC6H4C3H2C8H4CH2CFeN2C6H8CHCHCH4C5H9C3NC3NCHCHC2H4CH2C2HC2SCSHC4FeHCHC2H5NC5H3CH2C2H6FeHFeS2FeS2FeSFeS3CSFe2S2FeS2FeSFeCS2FeS2FeHFeS3C2FeHCHSH4C6H4C3H2C6H4C6H4C4HCHC3H2CHSC2HCH3C2H2C3NC2HCHCHCNC2HCNH4NC6H8NC3HCH8CHCHCHCSHCHC2FeSNSFeS2FeS2FeSFeS3FeHFeS2FeNS2FeS2FeS2FeSFeS3C2HCH2C3H4C6H4CHCNHC7H4C2SCH3C6H4CHC2H2CH2NHC4NC6H14CFeC2HC4NC6H8CHSH3C2HNCHSC4H2CSH2CH3CHC5HCHCH2CH2CHCH4C4HSNFeS2FeS2FeSFeS3CSFeS2FeS2FeSFeS4HC5HNHC6H5C2HC6H4FeC2HCH2CHC7H4CH4CHCHCH2CH3NSC2NH8CSHCH2CSCH6C2H6C3H2C3NC2H2NC3FeHC2HCH2Fe2S2FeS2FeSFeS4HSFeS2FeS2FeSFeS3HFeH2CNSNC2H4CHC6H4NC3H3C2SC2SH2C7H4C2H2C7H5C3H2NCHC4HC3H3CH4C2H2CH2C2H2FeH2C4H3CHC2NC6H13CH2SC2HCHCH2CSC3FeS2FeS2FeSFeS3HFeS2FeSCHSFeS2FeS2FeSFeS3FeSH2CHFeS3CHC2H3CNHCHC9H6CH5C6H4NH2CH3CHC6H4SCHC2HCHSFeHC3H2NC6H9C2HNC6H5CSH3C2HSC2H2C2FeCH2NHC2H2FeS2CHFeSCFeS2FeS2FeSFeS3HCSFeS2FeS2FeSFeS3C4H4C2HC6H5C7H4C3HCH3C5H2C6H5SCH2C2NC6HCH3C2HNC6H11NHC2NHC2H3SC3NH2CH3CH6CNC6H3C2HC2HCHCH2NH2C2HC3H2CH2CHNC3FeSFeS2FeHS2FeS2FeS2FeSFeS3FeS2CSFeS2FeS2FeS2FeSFeS3HC2H2C9H4C2H2C6H4C2HC2H2C6H4C3HCH2CNC2H2CNC2H3CHCHC2H2NHC2HCHCHC3H3CHNHCH2CFeH2CHCHCH3CHC3H3CH5CNCH3SHCHC2H2CH2SH4FeS2FeS2FeSFeS3FeS2FeSHFeS3FeS2FeS2FeSFeS3FeS2HC7H4C3H3CHCH3C7H4C2H3CHC2H3NH2C6H2C2H3C2HC3HCHC2NC6H8CH2SC3HCH6CNC6H5C2H2NC2NHCHSCH2C2HC2HC2H12C3HSCH3NCHNFeS2FeS2FeSFeS4FeSFeS2FeS2FeSFeS3CHSCHCHSHC6H5C2H7CFeC6H4C6H4C6H4CHNCH2C2H3CH3C2HNHCH2NCH2NCHCHC2HCH4CHCHCNC2SC3H2CH2CHCNH2CH6C4H3CFeS2FeS2FeS2FeSFeS3HCSFeS2FeS2FeSFeS3C2H5NC4H2C6H4C7H6C3N2H3C4FeH2C6H7C2SC2NHC2H2C2HC2HSCH4C2H5CFeH2CHCHC2HNH3C4NC6H8CH2CHC2H2CSHCH2CH2C2HSFeSCHCFeS2FeS2FeS2FeSFeS3NSCHFeS2FeS2FeSFeS3CHCHC6H5CFeHC7H6C3SHC7H4C3H5NC6H11CH2C4HC2H3C2HC2HC2FeCH3CH4SHNCH3CNC3HC2H2CH2CH4CHCH2SHNC2HCFeS2FeS2FeSFeS3FeHSFeH2NS2FeS2FeS2FeSFeS3C2SCFeSNHCHCHCHC6H4C4HCH2C3H2CH2C6H4C6H4CHCH2C3SH2SNC6H8C2H2CH2CFeHCH3NC6H9C2HCHSCNHC2HCHC2H2SCFeNCH3CH3CFeHC2HCHCHCHC2NH2C2HC4FeS2FeS2FeSFeS3FeHSFeCNCSCFeS2FeS2FeSFeS3HSH4CSC2H2C6H4CHC4HNH3C6H4CH2C6H4C3H2C3HCHCSC2H4C2H2C2H6CH2CH2CHCNHSH6NHC4HCHCHCHCH5C8HC3H2CNC4HCH2CNSHFeCH2C3HC
_chemical_formula_sum              "H1152 S384 C1152 Fe192 N96"
_cell_length_a       52.9927
_cell_length_b       53.0901
_cell_length_c       86.5315
_cell_angle_alpha    86.4692
_cell_angle_beta     87.5952
_cell_angle_gamma    89.2174

_space_group_name_H-M_alt    "P 1"
_space_group_IT_number       1

loop_
  _space_group_symop_operation_xyz
  'x, y, z'

loop_
  _atom_site_type_symbol
  _atom_site_label
  _atom_site_symmetry_multiplicity
  _atom_site_fract_x
  _atom_site_fract_y
  _atom_site_fract_z
  _atom_site_occupancy
  H   H1        1.0  0.40006  0.16248  0.08902  1.0000
  S   S1        1.0  0.43143  0.02304  0.05514  1.0000
  C   C1        1.0  0.08485  0.33864  0.01630  1.0000
  H   H2        1.0  0.33122  0.12892  0.12434  1.0000
  H   H3        1.0  0.48109  0.01953  0.06755  1.0000
  Fe  Fe1       1.0  0.41305  0.02847  0.07867  1.0000
  S   S2        1.0  0.42175  0.06669  0.08819  1.0000
  H   H4        1.0  0.38266  0.18764  0.11025  1.0000
  Fe  Fe2       1.0  0.39577  0.15736  0.15753  1.0000
  S   S3        1.0  0.41126  0.18947  0.14215  1.0000
  S   S4        1.0  0.38126  0.12101  0.14840  1.0000
  Fe  Fe3       1.0  0.40077  0.18636  0.18672  1.0000
  S   S5        1.0  0.41754  0.22021  0.17309  1.0000
  S   S6        1.0  0.39348  0.19296  0.21224  1.0000
  Fe  Fe4       1.0  0.38660  0.21487  0.15660  1.0000
  S   S7        1.0  0.36527  0.24874  0.14541  1.0000
  Fe  Fe5       1.0  0.44073  0.19196  0.16012  1.0000
  S   S8        1.0  0.48169  0.19371  0.15053  1.0000
  S   S9        1.0  0.36882  0.18253  0.17074  1.0000
  S   S10       1.0  0.42623  0.15838  0.17491  1.0000
  C   C2        1.0  0.37750  0.12582  0.23594  1.0000
  H   H5        1.0  0.22861  0.31140  0.24150  1.0000
  Fe  Fe6       1.0  0.06471  0.37398  0.07256  1.0000
  S   S11       1.0  0.03541  0.34429  0.07013  1.0000
  S   S12       1.0  0.10569  0.36722  0.07917  1.0000
  Fe  Fe7       1.0  0.02733  0.36440  0.04689  1.0000
  S   S13       1.0  0.02220  0.34340  0.02480  1.0000
  S   S14       1.0  0.05868  0.39173  0.04862  1.0000
  H   H6        1.0  0.04003  0.39180  0.00996  1.0000
  Fe  Fe8       1.0  0.23971  0.34287  0.16400  1.0000
  S   S15       1.0  0.20098  0.33704  0.17569  1.0000
  S   S16       1.0  0.26369  0.30632  0.16697  1.0000
  Fe  Fe9       1.0  0.22879  0.40017  0.15827  1.0000
  S   S17       1.0  0.19058  0.39735  0.17003  1.0000
  S   S18       1.0  0.23829  0.43911  0.14692  1.0000
  Fe  Fe10      1.0  0.20895  0.37175  0.18792  1.0000
  S   S19       1.0  0.20098  0.37811  0.21333  1.0000
  Fe  Fe11      1.0  0.18582  0.36303  0.15657  1.0000
  S   S20       1.0  0.14566  0.36026  0.14810  1.0000
  S   S21       1.0  0.24802  0.37704  0.17724  1.0000
  S   S22       1.0  0.22365  0.36648  0.14378  1.0000
  C   C3        1.0  0.19086  0.35373  0.22681  1.0000
  C   C4        1.0  0.18439  0.33004  0.22208  1.0000
  C   C5        1.0  0.17363  0.31200  0.23288  1.0000
  S   S23       1.0  0.03782  0.40030  0.08429  1.0000
  C   C6        1.0  0.18751  0.35885  0.24250  1.0000
  H   H7        1.0  0.18703  0.32587  0.21005  1.0000
  H   H8        1.0  0.16805  0.29392  0.22908  1.0000
  C   C7        1.0  0.38445  0.15534  0.09646  1.0000
  C   C8        1.0  0.22703  0.46720  0.17249  1.0000
  C   C9        1.0  0.23234  0.46748  0.15651  1.0000
  H   H9        1.0  0.48878  0.12294  0.18180  1.0000
  H   H10       1.0  0.22610  0.44937  0.17926  1.0000
  H   H11       1.0  0.34777  0.10352  0.10300  1.0000
  C   C10       1.0  0.11644  0.36428  0.09843  1.0000
  C   C11       1.0  0.14258  0.36301  0.10078  1.0000
  C   C12       1.0  0.15190  0.36158  0.11586  1.0000
  C   C13       1.0  0.13513  0.36111  0.12880  1.0000
  C   C14       1.0  0.10900  0.36203  0.12645  1.0000
  C   C15       1.0  0.09968  0.36376  0.11137  1.0000
  H   H12       1.0  0.15573  0.36325  0.09086  1.0000
  H   H13       1.0  0.17204  0.36069  0.11747  1.0000
  H   H14       1.0  0.09584  0.36157  0.13636  1.0000
  H   H15       1.0  0.07954  0.36460  0.10978  1.0000
  H   H16       1.0  0.14093  0.42723  0.08370  1.0000
  C   C16       1.0  0.03380  0.47864  0.06414  1.0000
  C   C17       1.0  0.34570  0.13675  0.11627  1.0000
  S   S24       1.0  0.37632  0.01256  0.07155  1.0000
  S   S25       1.0  0.38443  0.01658  0.02397  1.0000
  H   H17       1.0  0.04030  0.45246  0.08357  1.0000
  H   H18       1.0  0.13409  0.42135  0.14092  1.0000
  C   C18       1.0  0.33600  0.26358  0.15082  1.0000
  C   C19       1.0  0.31956  0.25309  0.16249  1.0000
  C   C20       1.0  0.29719  0.26611  0.16685  1.0000
  C   C21       1.0  0.29099  0.28991  0.15978  1.0000
  C   C22       1.0  0.30720  0.30019  0.14791  1.0000
  C   C23       1.0  0.32945  0.28702  0.14342  1.0000
  H   H19       1.0  0.32407  0.23499  0.16818  1.0000
  H   H20       1.0  0.28474  0.25785  0.17596  1.0000
  H   H21       1.0  0.30273  0.31837  0.14229  1.0000
  H   H22       1.0  0.34189  0.29528  0.13431  1.0000
  C   C24       1.0  0.38466  0.16949  0.22684  1.0000
  C   C25       1.0  0.37845  0.17680  0.24189  1.0000
  H   H23       1.0  0.11761  0.31671  0.20870  1.0000
  C   C26       1.0  0.38403  0.14392  0.22388  1.0000
  C   C27       1.0  0.22355  0.49005  0.17985  1.0000
  H   H24       1.0  0.30469  0.30970  0.19485  1.0000
  H   H25       1.0  0.38878  0.13806  0.21235  1.0000
  C   C28       1.0  0.34510  0.17476  0.13088  1.0000
  H   H26       1.0  0.05958  0.29972  0.02703  1.0000
  C   C29       1.0  0.35494  0.12231  0.10423  1.0000
  C   C30       1.0  0.39462  0.10476  0.13258  1.0000
  C   C31       1.0  0.41453  0.11478  0.12311  1.0000
  C   C32       1.0  0.42306  0.10242  0.10985  1.0000
  C   C33       1.0  0.41190  0.07988  0.10591  1.0000
  C   C34       1.0  0.39245  0.06950  0.11561  1.0000
  C   C35       1.0  0.38387  0.08191  0.12886  1.0000
  H   H27       1.0  0.42299  0.13234  0.12579  1.0000
  H   H28       1.0  0.43811  0.11062  0.10242  1.0000
  H   H29       1.0  0.38368  0.05219  0.11275  1.0000
  H   H30       1.0  0.36849  0.07395  0.13612  1.0000
  C   C36       1.0  0.11362  0.42484  0.11995  1.0000
  C   C37       1.0  0.10017  0.33975  0.04166  1.0000
  C   C38       1.0  0.03914  0.47200  0.07956  1.0000
  H   H31       1.0  0.37726  0.10606  0.23357  1.0000
  C   C39       1.0  0.16095  0.42592  0.10503  1.0000
  H   H32       1.0  0.12504  0.36743  0.18719  1.0000
  C   C40       1.0  0.11181  0.37266  0.02229  1.0000
  N   N1        1.0  0.35552  0.15997  0.11829  1.0000
  Fe  Fe12      1.0  0.02933  0.41541  0.06028  1.0000
  H   H33       1.0  0.09864  0.42628  0.09710  1.0000
  H   H34       1.0  0.19898  0.42772  0.12308  1.0000
  H   H35       1.0  0.18378  0.40232  0.13453  1.0000
  C   C41       1.0  0.37448  0.13167  0.09430  1.0000
  H   H36       1.0  0.38249  0.12015  0.08532  1.0000
  H   H37       1.0  0.12409  0.37097  0.04583  1.0000
  H   H38       1.0  0.14320  0.39078  0.21545  1.0000
  H   H39       1.0  0.07350  0.32989  0.00801  1.0000
  N   N2        1.0  0.35493  0.26998  0.19149  1.0000
  C   C42       1.0  0.36858  0.28295  0.17990  1.0000
  C   C43       1.0  0.33236  0.27943  0.19698  1.0000
  C   C44       1.0  0.35996  0.30633  0.17372  1.0000
  C   C45       1.0  0.32313  0.30272  0.19102  1.0000
  C   C46       1.0  0.33707  0.31621  0.17933  1.0000
  C   C47       1.0  0.36384  0.24503  0.19723  1.0000
  H   H40       1.0  0.38579  0.27480  0.17497  1.0000
  H   H41       1.0  0.32098  0.26864  0.20567  1.0000
  H   H42       1.0  0.37039  0.31608  0.16415  1.0000
  C   C48       1.0  0.11336  0.36190  0.03735  1.0000
  Fe  Fe13      1.0  0.39619  0.00414  0.04861  1.0000
  H   H43       1.0  0.35480  0.23893  0.20865  1.0000
  H   H44       1.0  0.35973  0.23076  0.18884  1.0000
  H   H45       1.0  0.38455  0.24505  0.19884  1.0000
  N   N3        1.0  0.15888  0.42459  0.12088  1.0000
  H   H46       1.0  0.09524  0.42346  0.12592  1.0000
  H   H47       1.0  0.48113  0.14139  0.16434  1.0000
  C   C49       1.0  0.02633  0.35531  0.00502  1.0000
  C   C50       1.0  0.09749  0.36098  0.01167  1.0000
  C   C51       1.0  0.04177  0.49083  0.09004  1.0000
  H   H48       1.0  0.14347  0.33863  0.18909  1.0000
  N   N4        1.0  0.13097  0.35413  0.21045  1.0000
  C   C52       1.0  0.13952  0.35714  0.19411  1.0000
  C   C53       1.0  0.11219  0.32887  0.23182  1.0000
  H   H49       1.0  0.12142  0.39018  0.01891  1.0000
  H   H50       1.0  0.15746  0.36781  0.19289  1.0000
  H   H51       1.0  0.35600  0.19222  0.13216  1.0000
  H   H52       1.0  0.37895  0.19654  0.24429  1.0000
  H   H53       1.0  0.23772  0.49138  0.13560  1.0000
  C   C54       1.0  0.07221  0.30546  0.03612  1.0000
  H   H54       1.0  0.32527  0.18041  0.12867  1.0000
  C   C55       1.0  0.13390  0.37355  0.21989  1.0000
  S   S26       1.0  0.02573  0.45581  0.05150  1.0000
  C   C56       1.0  0.11986  0.33215  0.21614  1.0000
  C   C57       1.0  0.37463  0.16937  0.10856  1.0000
  H   H55       1.0  0.10096  0.33187  0.05352  1.0000
  H   H56       1.0  0.45090  0.04241  0.02052  1.0000
  Fe  Fe14      1.0  0.00772  0.37194  0.08070  1.0000
  H   H57       1.0  0.04503  0.48568  0.10209  1.0000
  C   C58       1.0  0.13932  0.42691  0.09625  1.0000
  H   H58       1.0  0.34556  0.16331  0.14207  1.0000
  C   C59       1.0  0.11552  0.42640  0.10379  1.0000
  C   C60       1.0  0.38851  0.00182  0.00602  1.0000
  C   C61       1.0  0.13563  0.42375  0.12836  1.0000
  H   H59       1.0  0.08565  0.28976  0.03885  1.0000
  H   H60       1.0  0.18017  0.43454  0.13994  1.0000
  H   H61       1.0  0.19253  0.37715  0.24623  1.0000
  N   N5        1.0  0.08601  0.32852  0.03120  1.0000
  H   H62       1.0  0.20595  0.27252  0.25068  1.0000
  C   C62       1.0  0.18155  0.42219  0.13000  1.0000
  H   H63       1.0  0.32954  0.33374  0.17415  1.0000
  C   C63       1.0  0.45284  0.02614  0.01353  1.0000
  H   H64       1.0  0.17938  0.42566  0.09910  1.0000
  C   C64       1.0  0.49324  0.14042  0.17457  1.0000
  H   H65       1.0  0.48800  0.15714  0.18120  1.0000
  C   C65       1.0  0.23361  0.49092  0.14796  1.0000
  H   H66       1.0  0.49241  0.20928  0.18164  1.0000
  H   H67       1.0  0.05983  0.30877  0.04650  1.0000
  H   H68       1.0  0.21996  0.48953  0.19227  1.0000
  H   H69       1.0  0.10455  0.31100  0.23652  1.0000
  C   C66       1.0  0.12635  0.37095  0.23560  1.0000
  C   C67       1.0  0.16951  0.31745  0.24847  1.0000
  H   H70       1.0  0.31699  0.03465  0.24508  1.0000
  C   C68       1.0  0.49972  0.01453  0.06311  1.0000
  C   C69       1.0  0.11561  0.34837  0.24159  1.0000
  H   H71       1.0  0.12979  0.38595  0.24319  1.0000
  C   C70       1.0  0.46003  0.00267  0.02028  1.0000
  H   H72       1.0  0.46435  0.00111  0.03244  1.0000
  C   C71       1.0  0.37131  0.13313  0.25099  1.0000
  C   C72       1.0  0.12596  0.48437  0.48197  1.0000
  C   C73       1.0  0.24563  0.31562  0.26337  1.0000
  S   S27       1.0  0.45570  0.10137  0.39006  1.0000
  Fe  Fe15      1.0  0.36030  0.13238  0.32321  1.0000
  S   S28       1.0  0.32506  0.11369  0.33331  1.0000
  S   S29       1.0  0.38772  0.15334  0.33739  1.0000
  Fe  Fe16      1.0  0.34977  0.11766  0.29024  1.0000
  S   S30       1.0  0.31373  0.09818  0.29832  1.0000
  S   S31       1.0  0.36377  0.10960  0.26582  1.0000
  Fe  Fe17      1.0  0.30615  0.13227  0.31245  1.0000
  S   S32       1.0  0.26591  0.14931  0.31381  1.0000
  Fe  Fe18      1.0  0.33578  0.08164  0.31817  1.0000
  S   S33       1.0  0.34227  0.04063  0.32701  1.0000
  S   S34       1.0  0.34101  0.15271  0.30304  1.0000
  S   S35       1.0  0.37221  0.09960  0.30946  1.0000
  Fe  Fe19      1.0  0.14582  0.45958  0.39437  1.0000
  C   C74       1.0  0.21802  0.28147  0.25850  1.0000
  S   S36       1.0  0.15168  0.41858  0.38799  1.0000
  H   H73       1.0  0.19972  0.25007  0.29127  1.0000
  H   H74       1.0  0.48702  0.13600  0.48559  1.0000
  H   H75       1.0  0.03524  0.45182  0.44725  1.0000
  H   H76       1.0  0.09240  0.33682  0.37811  1.0000
  H   H77       1.0  0.45468  0.13407  0.30683  1.0000
  S   S37       1.0  0.11349  0.46715  0.41121  1.0000
  S   S38       1.0  0.17300  0.48190  0.40750  1.0000
  Fe  Fe20      1.0  0.17684  0.27841  0.31622  1.0000
  S   S39       1.0  0.18464  0.31298  0.30031  1.0000
  S   S40       1.0  0.21366  0.25732  0.32294  1.0000
  Fe  Fe21      1.0  0.11886  0.28987  0.31639  1.0000
  S   S41       1.0  0.12376  0.32396  0.30003  1.0000
  S   S42       1.0  0.07961  0.28202  0.32769  1.0000
  Fe  Fe22      1.0  0.15209  0.30038  0.28716  1.0000
  S   S43       1.0  0.15438  0.29496  0.26135  1.0000
  Fe  Fe23      1.0  0.15574  0.33334  0.31499  1.0000
  S   S44       1.0  0.15809  0.37463  0.32076  1.0000
  S   S45       1.0  0.14503  0.26504  0.30241  1.0000
  S   S46       1.0  0.15006  0.30005  0.33195  1.0000
  C   C75       1.0  0.02756  0.28664  0.32784  1.0000
  C   C76       1.0  0.05022  0.28799  0.31872  1.0000
  C   C77       1.0  0.04887  0.29345  0.30274  1.0000
  H   H78       1.0  0.02834  0.28239  0.34020  1.0000
  H   H79       1.0  0.06605  0.29443  0.29554  1.0000
  C   C78       1.0  0.09422  0.34586  0.33896  1.0000
  H   H80       1.0  0.17400  0.34501  0.26535  1.0000
  C   C79       1.0  0.15507  0.40702  0.36913  1.0000
  C   C80       1.0  0.15364  0.42291  0.35568  1.0000
  C   C81       1.0  0.15515  0.41271  0.34098  1.0000
  C   C82       1.0  0.15775  0.38653  0.33954  1.0000
  C   C83       1.0  0.15917  0.37062  0.35299  1.0000
  C   C84       1.0  0.15802  0.38085  0.36767  1.0000
  H   H81       1.0  0.15144  0.44306  0.35660  1.0000
  H   H82       1.0  0.15412  0.42519  0.33066  1.0000
  H   H83       1.0  0.16125  0.35047  0.35207  1.0000
  H   H84       1.0  0.15928  0.36839  0.37799  1.0000
  C   C85       1.0  0.00386  0.29061  0.32111  1.0000
  C   C86       1.0  0.04640  0.47288  0.39846  1.0000
  C   C87       1.0  0.02562  0.45816  0.40361  1.0000
  H   H85       1.0  0.02848  0.43885  0.40800  1.0000
  S   S47       1.0  0.12983  0.48685  0.44992  1.0000
  N   N6        1.0  0.45052  0.11532  0.32918  1.0000
  H   H86       1.0  0.25951  0.31459  0.28650  1.0000
  C   C88       1.0  0.33313  0.01208  0.31915  1.0000
  H   H87       1.0  0.37746  0.03429  0.29526  1.0000
  C   C89       1.0  0.20597  0.24920  0.27890  1.0000
  C   C90       1.0  0.24807  0.30532  0.27847  1.0000
  C   C91       1.0  0.25216  0.18029  0.31410  1.0000
  C   C92       1.0  0.22566  0.18294  0.31408  1.0000
  C   C93       1.0  0.21361  0.20657  0.31589  1.0000
  C   C94       1.0  0.22790  0.22796  0.31799  1.0000
  C   C95       1.0  0.25445  0.22551  0.31755  1.0000
  C   C96       1.0  0.26653  0.20193  0.31549  1.0000
  H   H88       1.0  0.21428  0.16640  0.31303  1.0000
  H   H89       1.0  0.19320  0.20795  0.31632  1.0000
  H   H90       1.0  0.26578  0.24185  0.31921  1.0000
  H   H91       1.0  0.28690  0.20035  0.31549  1.0000
  H   H92       1.0  0.48439  0.00082  0.43912  1.0000
  C   C97       1.0  0.02518  0.29700  0.29598  1.0000
  H   H93       1.0  0.30478  0.02868  0.30449  1.0000
  C   C98       1.0  0.09263  0.33313  0.35354  1.0000
  C   C99       1.0  0.43902  0.09240  0.33163  1.0000
  H   H94       1.0  0.36701  0.16459  0.26545  1.0000
  C   C100      1.0  0.43612  0.11716  0.37621  1.0000
  C   C101      1.0  0.44104  0.14159  0.36988  1.0000
  C   C102      1.0  0.42571  0.15261  0.35826  1.0000
  C   C103      1.0  0.40558  0.13923  0.35266  1.0000
  C   C104      1.0  0.40052  0.11493  0.35909  1.0000
  C   C105      1.0  0.41555  0.10411  0.37089  1.0000
  H   H95       1.0  0.45667  0.15195  0.37392  1.0000
  H   H96       1.0  0.42967  0.17151  0.35346  1.0000
  H   H97       1.0  0.38501  0.10444  0.35501  1.0000
  H   H98       1.0  0.41148  0.08526  0.37575  1.0000
  H   H99       1.0  0.06517  0.46479  0.39865  1.0000
  H   H100      1.0  0.43735  0.05715  0.34550  1.0000
  C   C106      1.0  0.01936  0.48653  0.43750  1.0000
  H   H101      1.0  0.11071  0.34563  0.25389  1.0000
  H   H102      1.0  0.44042  0.15292  0.32177  1.0000
  N   N7        1.0  0.29565  0.18300  0.35087  1.0000
  C   C107      1.0  0.27792  0.16463  0.35023  1.0000
  C   C108      1.0  0.28834  0.20744  0.35295  1.0000
  C   C109      1.0  0.25215  0.17046  0.35185  1.0000
  C   C110      1.0  0.26271  0.21393  0.35464  1.0000
  C   C111      1.0  0.24454  0.19529  0.35400  1.0000
  C   C112      1.0  0.32246  0.17665  0.34823  1.0000
  H   H103      1.0  0.28355  0.14548  0.34786  1.0000
  H   H104      1.0  0.30230  0.22218  0.35298  1.0000
  H   H105      1.0  0.23821  0.15600  0.35064  1.0000
  H   H106      1.0  0.25686  0.23343  0.35579  1.0000
  H   H107      1.0  0.22459  0.20028  0.35459  1.0000
  H   H108      1.0  0.33505  0.19094  0.35260  1.0000
  H   H109      1.0  0.32730  0.15826  0.35431  1.0000
  H   H110      1.0  0.32682  0.17534  0.33562  1.0000
  H   H111      1.0  0.10026  0.40676  0.37714  1.0000
  C   C113      1.0  0.17696  0.34072  0.25334  1.0000
  C   C114      1.0  0.47062  0.12110  0.33769  1.0000
  H   H112      1.0  0.09900  0.38193  0.32647  1.0000
  H   H113      1.0  0.10770  0.47622  0.48048  1.0000
  C   C115      1.0  0.04280  0.49804  0.39321  1.0000
  C   C116      1.0  0.47929  0.10398  0.34928  1.0000
  H   H114      1.0  0.47311  0.06793  0.36156  1.0000
  H   H115      1.0  0.35137  0.05583  0.29338  1.0000
  C   C117      1.0  0.36601  0.04538  0.28673  1.0000
  C   C118      1.0  0.09714  0.38521  0.35128  1.0000
  H   H116      1.0  0.47629  0.00926  0.40457  1.0000
  C   C119      1.0  0.49622  0.00495  0.40542  1.0000
  H   H117      1.0  0.02442  0.30077  0.28358  1.0000
  H   H118      1.0  0.25506  0.33306  0.25954  1.0000
  C   C120      1.0  0.23523  0.28317  0.28330  1.0000
  C   C121      1.0  0.13394  0.48769  0.49711  1.0000
  N   N8        1.0  0.09555  0.37258  0.36556  1.0000
  H   H119      1.0  0.07939  0.46775  0.44525  1.0000
  C   C122      1.0  0.09664  0.37203  0.33778  1.0000
  S   S48       1.0  0.13573  0.49208  0.37794  1.0000
  C   C123      1.0  0.32752  0.02571  0.25445  1.0000
  H   H120      1.0  0.49428  0.10915  0.35661  1.0000
  H   H121      1.0  0.07715  0.38522  0.38601  1.0000
  C   C124      1.0  0.44168  0.13376  0.31723  1.0000
  C   C125      1.0  0.09338  0.34686  0.36681  1.0000
  H   H122      1.0  0.21817  0.23220  0.27767  1.0000
  Fe  Fe24      1.0  0.13971  0.49159  0.42356  1.0000
  C   C126      1.0  0.09578  0.38647  0.37969  1.0000
  H   H123      1.0  0.33999  0.06090  0.26240  1.0000
  H   H124      1.0  0.18851  0.24732  0.27237  1.0000
  N   N9        1.0  0.21986  0.27197  0.27348  1.0000
  H   H125      1.0  0.42286  0.08792  0.32506  1.0000
  H   H126      1.0  0.23714  0.27536  0.29506  1.0000
  C   C127      1.0  0.47214  0.07705  0.46151  1.0000
  H   H127      1.0  0.37846  0.05925  0.28009  1.0000
  C   C128      1.0  0.34059  0.04046  0.26426  1.0000
  H   H128      1.0  0.42232  0.12944  0.31374  1.0000
  H   H129      1.0  0.09387  0.33538  0.32861  1.0000
  H   H130      1.0  0.09964  0.40549  0.35022  1.0000
  C   C129      1.0  0.46739  0.08077  0.35205  1.0000
  H   H131      1.0  0.11069  0.37868  0.38737  1.0000
  H   H132      1.0  0.09103  0.31270  0.35445  1.0000
  C   C130      1.0  0.35426  0.00363  0.27870  1.0000
  C   C131      1.0  0.03909  0.47084  0.44253  1.0000
  H   H133      1.0  0.46986  0.09187  0.45199  1.0000
  C   C132      1.0  0.23080  0.30346  0.25324  1.0000
  C   C133      1.0  0.14131  0.49149  0.46874  1.0000
  H   H134      1.0  0.48069  0.08598  0.47132  1.0000
  N   N10       1.0  0.35369  0.02934  0.27620  1.0000
  C   C134      1.0  0.44722  0.07483  0.34312  1.0000
  C   C135      1.0  0.06381  0.47968  0.44132  1.0000
  H   H135      1.0  0.47944  0.13943  0.33594  1.0000
  N   N11       1.0  0.48828  0.05653  0.45599  1.0000
  H   H136      1.0  0.45319  0.07019  0.46564  1.0000
  C   C136      1.0  0.00252  0.29562  0.30508  1.0000
  C   C137      1.0  0.31442  0.01142  0.30825  1.0000
  Fe  Fe25      1.0  0.49351  0.11114  0.40001  1.0000
  C   C138      1.0  0.15747  0.49829  0.49931  1.0000
  H   H137      1.0  0.45729  0.03493  0.44931  1.0000
  C   C139      1.0  0.37170  0.15873  0.25392  1.0000
  C   C140      1.0  0.47763  0.03620  0.44989  1.0000
  C   C141      1.0  0.49283  0.01689  0.44407  1.0000
  Fe  Fe26      1.0  0.33355  0.08101  0.66776  1.0000
  S   S49       1.0  0.36557  0.09848  0.67944  1.0000
  S   S50       1.0  0.34304  0.03954  0.66344  1.0000
  Fe  Fe27      1.0  0.30756  0.13387  0.66202  1.0000
  S   S51       1.0  0.33909  0.15399  0.67258  1.0000
  S   S52       1.0  0.27210  0.15439  0.65268  1.0000
  Fe  Fe28      1.0  0.36560  0.12799  0.65963  1.0000
  S   S53       1.0  0.40516  0.13792  0.64965  1.0000
  Fe  Fe29      1.0  0.33641  0.12249  0.69112  1.0000
  S   S54       1.0  0.33139  0.12968  0.71667  1.0000
  S   S55       1.0  0.33448  0.11008  0.64752  1.0000
  S   S56       1.0  0.30398  0.10291  0.68109  1.0000
  C   C142      1.0  0.33089  0.00895  0.66903  1.0000
  S   S57       1.0  0.45888  0.10671  0.58591  1.0000
  Fe  Fe30      1.0  0.17336  0.27429  0.66949  1.0000
  S   S58       1.0  0.17797  0.31677  0.66792  1.0000
  S   S59       1.0  0.21040  0.25227  0.67429  1.0000
  Fe  Fe31      1.0  0.11449  0.27975  0.66990  1.0000
  S   S60       1.0  0.11588  0.32186  0.66864  1.0000
  S   S61       1.0  0.07676  0.25955  0.67404  1.0000
  Fe  Fe32      1.0  0.14725  0.31775  0.65057  1.0000
  S   S62       1.0  0.14339  0.33826  0.62671  1.0000
  Fe  Fe33      1.0  0.14623  0.31706  0.68606  1.0000
  S   S63       1.0  0.14120  0.33721  0.70838  1.0000
  S   S64       1.0  0.14450  0.27515  0.65094  1.0000
  S   S65       1.0  0.14300  0.27502  0.68850  1.0000
  Fe  Fe34      1.0  0.15683  0.46518  0.57449  1.0000
  S   S66       1.0  0.18051  0.44126  0.59142  1.0000
  C   C143      1.0  0.02425  0.48816  0.53344  1.0000
  S   S67       1.0  0.14126  0.45462  0.55196  1.0000
  H   H138      1.0  0.38056  0.05226  0.74873  1.0000
  C   C144      1.0  0.19266  0.44345  0.51150  1.0000
  N   N12       1.0  0.36718  0.19832  0.73731  1.0000
  C   C145      1.0  0.21703  0.45092  0.55712  1.0000
  H   H139      1.0  0.23453  0.26455  0.70349  1.0000
  H   H140      1.0  0.22232  0.45321  0.56894  1.0000
  C   C146      1.0  0.02497  0.25846  0.67236  1.0000
  C   C147      1.0  0.04727  0.27110  0.66728  1.0000
  C   C148      1.0  0.04544  0.29285  0.65739  1.0000
  H   H141      1.0  0.39174  0.07983  0.73715  1.0000
  H   H142      1.0  0.11841  0.43336  0.62267  1.0000
  H   H143      1.0  0.02619  0.24149  0.67990  1.0000
  H   H144      1.0  0.06242  0.30270  0.65331  1.0000
  H   H145      1.0  0.42878  0.05455  0.60182  1.0000
  C   C149      1.0  0.15277  0.36822  0.61819  1.0000
  C   C150      1.0  0.17368  0.38105  0.62300  1.0000
  C   C151      1.0  0.18189  0.40344  0.61475  1.0000
  C   C152      1.0  0.16895  0.41360  0.60187  1.0000
  C   C153      1.0  0.14755  0.40124  0.59740  1.0000
  C   C154      1.0  0.13977  0.37852  0.60538  1.0000
  H   H146      1.0  0.18397  0.37332  0.63277  1.0000
  H   H147      1.0  0.19849  0.41283  0.61831  1.0000
  H   H148      1.0  0.13739  0.40877  0.58752  1.0000
  H   H149      1.0  0.12367  0.36869  0.60149  1.0000
  C   C155      1.0  0.16588  0.34041  0.72123  1.0000
  C   C156      1.0  0.19120  0.33735  0.71645  1.0000
  C   C157      1.0  0.21033  0.33980  0.72704  1.0000
  C   C158      1.0  0.15988  0.34579  0.73667  1.0000
  H   H150      1.0  0.19605  0.33338  0.70457  1.0000
  H   H151      1.0  0.38207  0.04994  0.60518  1.0000
  H   H152      1.0  0.06907  0.30922  0.69514  1.0000
  N   N13       1.0  0.35848  0.06340  0.72950  1.0000
  C   C159      1.0  0.22596  0.22371  0.66898  1.0000
  C   C160      1.0  0.24930  0.21713  0.67546  1.0000
  C   C161      1.0  0.26336  0.19579  0.67089  1.0000
  C   C162      1.0  0.25442  0.18073  0.65961  1.0000
  C   C163      1.0  0.23101  0.18726  0.65318  1.0000
  C   C164      1.0  0.21677  0.20843  0.65789  1.0000
  H   H153      1.0  0.25674  0.22874  0.68400  1.0000
  H   H154      1.0  0.28129  0.19116  0.67594  1.0000
  H   H155      1.0  0.22378  0.17573  0.64451  1.0000
  H   H156      1.0  0.19883  0.21301  0.65284  1.0000
  C   C165      1.0  0.35678  0.13231  0.72890  1.0000
  C   C166      1.0  0.38185  0.13192  0.72323  1.0000
  C   C167      1.0  0.31823  0.06516  0.71764  1.0000
  H   H157      1.0  0.42465  0.08839  0.65987  1.0000
  H   H158      1.0  0.38607  0.12914  0.71110  1.0000
  C   C168      1.0  0.20368  0.42969  0.55361  1.0000
  C   C169      1.0  0.04881  0.30670  0.69691  1.0000
  C   C170      1.0  0.41946  0.13076  0.63142  1.0000
  C   C171      1.0  0.40541  0.12294  0.61928  1.0000
  C   C172      1.0  0.41772  0.11666  0.60521  1.0000
  C   C173      1.0  0.44421  0.11751  0.60322  1.0000
  C   C174      1.0  0.45823  0.12559  0.61530  1.0000
  C   C175      1.0  0.44588  0.13243  0.62923  1.0000
  H   H159      1.0  0.38507  0.12180  0.62070  1.0000
  H   H160      1.0  0.40664  0.11064  0.59592  1.0000
  H   H161      1.0  0.47859  0.12654  0.61393  1.0000
  H   H162      1.0  0.45692  0.13874  0.63846  1.0000
  C   C176      1.0  0.41928  0.05707  0.61299  1.0000
  H   H163      1.0  0.39649  0.18746  0.72135  1.0000
  H   H164      1.0  0.32920  0.19118  0.73168  1.0000
  C   C177      1.0  0.39552  0.06609  0.64130  1.0000
  Fe  Fe35      1.0  0.15061  0.49413  0.54259  1.0000
  N   N14       1.0  0.42111  0.06875  0.63932  1.0000
  N   N15       1.0  0.23238  0.26772  0.63501  1.0000
  C   C178      1.0  0.22468  0.29217  0.63660  1.0000
  C   C179      1.0  0.21836  0.25189  0.62697  1.0000
  C   C180      1.0  0.20257  0.30145  0.62989  1.0000
  C   C181      1.0  0.19599  0.26047  0.62027  1.0000
  C   C182      1.0  0.18820  0.28548  0.62165  1.0000
  C   C183      1.0  0.25638  0.25898  0.64142  1.0000
  H   H165      1.0  0.23559  0.30460  0.64316  1.0000
  H   H166      1.0  0.22431  0.23242  0.62583  1.0000
  H   H167      1.0  0.19637  0.32082  0.63119  1.0000
  H   H168      1.0  0.18466  0.24779  0.61413  1.0000
  H   H169      1.0  0.17078  0.29243  0.61661  1.0000
  H   H170      1.0  0.25851  0.23808  0.64156  1.0000
  H   H171      1.0  0.27246  0.26756  0.63445  1.0000
  H   H172      1.0  0.25730  0.26419  0.65364  1.0000
  C   C184      1.0  0.22595  0.26976  0.71447  1.0000
  H   H173      1.0  0.05255  0.27150  0.71034  1.0000
  C   C185      1.0  0.35151  0.13583  0.74465  1.0000
  H   H174      1.0  0.19848  0.41552  0.56275  1.0000
  C   C186      1.0  0.30766  0.00532  0.67710  1.0000
  H   H175      1.0  0.36525  0.18357  0.71494  1.0000
  H   H176      1.0  0.36077  0.05737  0.63077  1.0000
  H   H177      1.0  0.15396  0.25797  0.73505  1.0000
  H   H178      1.0  0.45291  0.08650  0.64816  1.0000
  C   C187      1.0  0.35348  0.04368  0.70554  1.0000
  C   C188      1.0  0.14470  0.46356  0.62429  1.0000
  C   C189      1.0  0.24091  0.27656  0.72641  1.0000
  C   C190      1.0  0.34179  0.19601  0.74061  1.0000
  C   C191      1.0  0.43310  0.06399  0.62547  1.0000
  H   H179      1.0  0.08201  0.46233  0.61798  1.0000
  H   H180      1.0  0.00636  0.26499  0.71347  1.0000
  H   H181      1.0  0.38602  0.06971  0.65228  1.0000
  H   H182      1.0  0.42084  0.13648  0.72869  1.0000
  H   H183      1.0  0.24081  0.28918  0.74968  1.0000
  H   H184      1.0  0.15446  0.28971  0.74167  1.0000
  H   H185      1.0  0.22990  0.33755  0.72325  1.0000
  H   H186      1.0  0.45333  0.06648  0.62377  1.0000
  H   H187      1.0  0.44157  0.05855  0.65932  1.0000
  C   C192      1.0  0.39310  0.05475  0.61484  1.0000
  C   C193      1.0  0.22287  0.46950  0.54546  1.0000
  C   C194      1.0  0.10032  0.47014  0.61999  1.0000
  N   N16       1.0  0.18858  0.27708  0.73034  1.0000
  C   C195      1.0  0.38311  0.20398  0.74863  1.0000
  C   C196      1.0  0.17899  0.34760  0.74737  1.0000
  C   C197      1.0  0.14785  0.48965  0.62355  1.0000
  N   N17       1.0  0.10361  0.49574  0.61923  1.0000
  C   C198      1.0  0.05004  0.49500  0.57422  1.0000
  H   H188      1.0  0.31670  0.04747  0.69597  1.0000
  C   C199      1.0  0.33362  0.07078  0.72968  1.0000
  H   H189      1.0  0.26130  0.27702  0.72475  1.0000
  C   C200      1.0  0.39612  0.14067  0.74882  1.0000
  C   C201      1.0  0.37722  0.19604  0.72140  1.0000
  H   H190      1.0  0.02053  0.31828  0.64472  1.0000
  H   H191      1.0  0.01587  0.44395  0.56623  1.0000
  H   H192      1.0  0.16088  0.45103  0.62584  1.0000
  H   H193      1.0  0.03342  0.47067  0.53033  1.0000
  C   C202      1.0  0.40147  0.13610  0.73320  1.0000
  H   H194      1.0  0.14032  0.34829  0.74042  1.0000
  H   H195      1.0  0.23265  0.48641  0.54814  1.0000
  C   C203      1.0  0.03949  0.28551  0.70551  1.0000
  C   C204      1.0  0.02162  0.30169  0.65258  1.0000
  H   H196      1.0  0.29586  0.02137  0.67973  1.0000
  C   C205      1.0  0.20432  0.34459  0.74258  1.0000
  C   C206      1.0  0.12080  0.45366  0.62255  1.0000
  S   S68       1.0  0.06828  0.45377  0.55967  1.0000
  C   C207      1.0  0.01995  0.46241  0.57009  1.0000
  S   S69       1.0  0.12017  0.48014  0.58388  1.0000
  H   H197      1.0  0.32573  0.08193  0.73884  1.0000
  C   C208      1.0  0.03199  0.32387  0.68991  1.0000
  C   C209      1.0  0.43585  0.07574  0.65233  1.0000
  C   C210      1.0  0.38112  0.05912  0.62911  1.0000
  C   C211      1.0  0.04469  0.47132  0.56896  1.0000
  Fe  Fe36      1.0  0.10553  0.47270  0.56086  1.0000
  H   H198      1.0  0.18823  0.26486  0.70728  1.0000
  C   C212      1.0  0.19966  0.27003  0.71667  1.0000
  H   H199      1.0  0.29882  0.07195  0.71750  1.0000
  C   C213      1.0  0.01337  0.28187  0.70711  1.0000
  C   C214      1.0  0.16097  0.27740  0.73232  1.0000
  H   H200      1.0  0.33212  0.13597  0.74912  1.0000
  H   H201      1.0  0.37808  0.21494  0.71518  1.0000
  H   H202      1.0  0.18512  0.41125  0.53591  1.0000
  H   H203      1.0  0.19777  0.42473  0.50716  1.0000
  H   H204      1.0  0.15229  0.28539  0.72158  1.0000
  N   N18       1.0  0.20195  0.44575  0.52708  1.0000
  C   C215      1.0  0.37469  0.06971  0.74201  1.0000
  C   C216      1.0  0.19618  0.42742  0.53844  1.0000
  C   C217      1.0  0.21521  0.46656  0.53041  1.0000
  C   C218      1.0  0.00598  0.31959  0.69168  1.0000
  C   C219      1.0  0.36844  0.04987  0.71769  1.0000
  H   H205      1.0  0.40330  0.20543  0.74614  1.0000
  H   H206      1.0  0.17177  0.44596  0.51179  1.0000
  H   H207      1.0  0.36493  0.08237  0.75018  1.0000
  C   C220      1.0  0.22948  0.28314  0.74043  1.0000
  H   H208      1.0  0.21917  0.48150  0.52153  1.0000
  H   H209      1.0  0.03916  0.33987  0.68273  1.0000
  C   C221      1.0  0.32829  0.05156  0.70551  1.0000
  C   C222      1.0  0.20312  0.28310  0.74226  1.0000
  H   H210      1.0  0.12183  0.48209  0.50707  1.0000
  H   H211      1.0  0.16645  0.49754  0.62457  1.0000
  H   H212      1.0  0.38811  0.04398  0.71754  1.0000
  H   H213      1.0  0.20057  0.45822  0.50305  1.0000
  H   H214      1.0  0.36134  0.03316  0.69605  1.0000
  H   H215      1.0  0.48143  0.00131  0.58752  1.0000
  Fe  Fe37      1.0  0.50110  0.10665  0.57905  1.0000
  H   H216      1.0  0.50153  0.12839  0.51247  1.0000
  Fe  Fe38      1.0  0.39740  0.14163  0.81882  1.0000
  S   S70       1.0  0.40850  0.17857  0.82799  1.0000
  S   S71       1.0  0.38210  0.10618  0.83212  1.0000
  Fe  Fe39      1.0  0.41414  0.15833  0.78550  1.0000
  S   S72       1.0  0.42761  0.19572  0.79258  1.0000
  S   S73       1.0  0.22896  0.34476  0.75574  1.0000
  Fe  Fe40      1.0  0.44414  0.17410  0.81295  1.0000
  S   S74       1.0  0.48248  0.17637  0.82406  1.0000
  Fe  Fe41      1.0  0.39067  0.19716  0.80669  1.0000
  S   S75       1.0  0.36914  0.23475  0.80155  1.0000
  S   S76       1.0  0.43342  0.13658  0.80476  1.0000
  S   S77       1.0  0.37685  0.16040  0.79862  1.0000
  C   C223      1.0  0.02970  0.47302  0.89772  1.0000
  S   S78       1.0  0.42161  0.05188  0.89478  1.0000
  Fe  Fe42      1.0  0.00751  0.36287  0.89868  1.0000
  Fe  Fe43      1.0  0.24575  0.32735  0.81106  1.0000
  S   S79       1.0  0.20961  0.32139  0.79891  1.0000
  S   S80       1.0  0.26802  0.29354  0.82185  1.0000
  Fe  Fe44      1.0  0.24029  0.38574  0.80661  1.0000
  S   S81       1.0  0.20496  0.38328  0.79348  1.0000
  S   S82       1.0  0.25761  0.42254  0.81346  1.0000
  Fe  Fe45      1.0  0.19322  0.35362  0.81217  1.0000
  S   S83       1.0  0.15261  0.35980  0.82136  1.0000
  Fe  Fe46      1.0  0.22429  0.35140  0.78148  1.0000
  C   C224      1.0  0.03580  0.37942  0.00095  1.0000
  S   S84       1.0  0.22799  0.35732  0.82579  1.0000
  S   S85       1.0  0.26110  0.35616  0.79317  1.0000
  Fe  Fe47      1.0  0.06508  0.35888  0.89736  1.0000
  S   S86       1.0  0.03733  0.37819  0.88159  1.0000
  S   S87       1.0  0.10069  0.33860  0.88871  1.0000
  Fe  Fe48      1.0  0.03697  0.37540  0.92760  1.0000
  H   H217      1.0  0.14219  0.44252  0.81366  1.0000
  Fe  Fe49      1.0  0.03900  0.40984  0.89755  1.0000
  S   S88       1.0  0.04554  0.44953  0.88767  1.0000
  S   S89       1.0  0.03518  0.34067  0.91373  1.0000
  S   S90       1.0  0.06887  0.39169  0.91212  1.0000
  C   C225      1.0  0.03459  0.37190  0.97317  1.0000
  C   C226      1.0  0.02510  0.34779  0.97724  1.0000
  Fe  Fe50      1.0  0.41660  0.01052  0.90335  1.0000
  H   H218      1.0  0.38623  0.01716  0.96691  1.0000
  C   C227      1.0  0.21028  0.42237  0.84242  1.0000
  H   H219      1.0  0.46744  0.12194  0.82901  1.0000
  S   S91       1.0  0.04048  0.38348  0.95346  1.0000
  H   H220      1.0  0.07603  0.33428  0.83424  1.0000
  H   H221      1.0  0.04721  0.42814  0.93311  1.0000
  H   H222      1.0  0.36681  0.14337  0.76663  1.0000
  H   H223      1.0  0.01387  0.32085  0.99595  1.0000
  C   C228      1.0  0.13983  0.35530  0.84062  1.0000
  C   C229      1.0  0.15138  0.33955  0.85187  1.0000
  C   C230      1.0  0.13942  0.33500  0.86665  1.0000
  C   C231      1.0  0.11608  0.34649  0.87044  1.0000
  C   C232      1.0  0.10485  0.36272  0.85931  1.0000
  C   C233      1.0  0.11657  0.36691  0.84446  1.0000
  H   H224      1.0  0.16918  0.33033  0.84906  1.0000
  H   H225      1.0  0.14823  0.32234  0.87515  1.0000
  H   H226      1.0  0.08690  0.37167  0.86203  1.0000
  H   H227      1.0  0.10736  0.37900  0.83583  1.0000
  C   C234      1.0  0.24474  0.45347  0.80993  1.0000
  C   C235      1.0  0.22289  0.45783  0.80159  1.0000
  C   C236      1.0  0.25627  0.47414  0.81616  1.0000
  H   H228      1.0  0.21384  0.44222  0.79667  1.0000
  H   H229      1.0  0.27323  0.47104  0.82259  1.0000
  C   C237      1.0  0.33879  0.24828  0.80597  1.0000
  C   C238      1.0  0.33110  0.27019  0.79729  1.0000
  C   C239      1.0  0.30872  0.28344  0.80139  1.0000
  C   C240      1.0  0.29384  0.27517  0.81442  1.0000
  C   C241      1.0  0.30105  0.25276  0.82277  1.0000
  C   C242      1.0  0.32324  0.23928  0.81853  1.0000
  H   H230      1.0  0.34289  0.27736  0.78754  1.0000
  H   H231      1.0  0.30348  0.30053  0.79478  1.0000
  H   H232      1.0  0.28972  0.24609  0.83285  1.0000
  H   H233      1.0  0.32880  0.22252  0.82536  1.0000
  C   C243      1.0  0.39283  0.09173  0.84979  1.0000
  C   C244      1.0  0.40764  0.10456  0.85971  1.0000
  C   C245      1.0  0.41581  0.09225  0.87358  1.0000
  C   C246      1.0  0.40965  0.06689  0.87759  1.0000
  C   C247      1.0  0.39486  0.05407  0.86767  1.0000
  C   C248      1.0  0.38634  0.06651  0.85393  1.0000
  H   H234      1.0  0.41265  0.12399  0.85675  1.0000
  H   H235      1.0  0.42716  0.10237  0.88119  1.0000
  H   H236      1.0  0.38995  0.03459  0.87058  1.0000
  H   H237      1.0  0.37481  0.05645  0.84639  1.0000
  C   C249      1.0  0.45230  0.08493  0.83452  1.0000
  C   C250      1.0  0.03994  0.38757  0.98518  1.0000
  C   C251      1.0  0.02794  0.49122  0.95020  1.0000
  C   C252      1.0  0.21466  0.44778  0.84443  1.0000
  H   H238      1.0  0.34057  0.20719  0.77897  1.0000
  C   C253      1.0  0.21260  0.48244  0.79968  1.0000
  H   H239      1.0  0.08610  0.29883  0.86968  1.0000
  C   C254      1.0  0.34793  0.20479  0.76723  1.0000
  C   C255      1.0  0.33181  0.19900  0.75564  1.0000
  C   C256      1.0  0.07771  0.31537  0.84042  1.0000
  H   H240      1.0  0.31178  0.19667  0.75832  1.0000
  H   H241      1.0  0.02856  0.32631  0.83986  1.0000
  C   C257      1.0  0.44929  0.00700  0.98916  1.0000
  H   H242      1.0  0.09746  0.31363  0.84431  1.0000
  S   S92       1.0  0.42097  0.14855  0.76047  1.0000
  C   C258      1.0  0.46736  0.10556  0.83715  1.0000
  C   C259      1.0  0.02376  0.30815  0.87812  1.0000
  H   H243      1.0  0.16534  0.47330  0.82503  1.0000
  C   C260      1.0  0.19814  0.46616  0.83835  1.0000
  H   H244      1.0  0.05516  0.29540  0.89177  1.0000
  H   H245      1.0  0.00998  0.30679  0.88778  1.0000
  H   H246      1.0  0.44032  0.08550  0.82462  1.0000
  C   C261      1.0  0.05532  0.46773  0.93391  1.0000
  C   C262      1.0  0.02112  0.33957  0.99303  1.0000
  H   H247      1.0  0.07470  0.30053  0.83222  1.0000
  H   H248      1.0  0.09573  0.36932  0.99997  1.0000
  C   C263      1.0  0.04899  0.30161  0.88033  1.0000
  C   C264      1.0  0.03445  0.31923  0.85119  1.0000
  C   C265      1.0  0.02091  0.44674  0.94835  1.0000
  N   N19       1.0  0.04823  0.49012  0.93993  1.0000
  C   C266      1.0  0.01389  0.46960  0.95450  1.0000
  C   C267      1.0  0.15241  0.42613  0.81913  1.0000
  H   H249      1.0  0.49889  0.18698  0.79146  1.0000
  C   C268      1.0  0.03918  0.49756  0.89654  1.0000
  H   H250      1.0  0.04728  0.40625  0.98225  1.0000
  C   C269      1.0  0.04174  0.44578  0.93801  1.0000
  H   H251      1.0  0.46515  0.04837  0.86693  1.0000
  C   C270      1.0  0.45184  0.06406  0.84515  1.0000
  N   N20       1.0  0.05920  0.31294  0.85350  1.0000
  C   C271      1.0  0.38538  0.01638  0.99203  1.0000
  C   C272      1.0  0.00825  0.46747  0.90720  1.0000
  H   H252      1.0  0.17414  0.35131  0.75929  1.0000
  C   C273      1.0  0.37371  0.20736  0.76371  1.0000
  N   N21       1.0  0.48153  0.10539  0.85000  1.0000
  H   H253      1.0  0.43956  0.04832  0.84354  1.0000
  H   H254      1.0  0.20181  0.48603  0.83943  1.0000
  H   H255      1.0  0.13889  0.41494  0.82685  1.0000
  H   H256      1.0  0.15935  0.41407  0.80973  1.0000
  N   N22       1.0  0.33046  0.31954  0.82824  1.0000
  C   C274      1.0  0.32532  0.30248  0.84045  1.0000
  C   C275      1.0  0.35192  0.31705  0.81907  1.0000
  C   C276      1.0  0.34183  0.28219  0.84366  1.0000
  C   C277      1.0  0.36874  0.29689  0.82190  1.0000
  C   C278      1.0  0.36358  0.27934  0.83425  1.0000
  C   C279      1.0  0.31270  0.34025  0.82454  1.0000
  H   H257      1.0  0.30783  0.30382  0.84735  1.0000
  H   H258      1.0  0.35566  0.33021  0.80918  1.0000
  H   H259      1.0  0.33720  0.26816  0.85295  1.0000
  H   H260      1.0  0.38514  0.29423  0.81420  1.0000
  H   H261      1.0  0.37593  0.26303  0.83611  1.0000
  H   H262      1.0  0.30604  0.33882  0.81262  1.0000
  H   H263      1.0  0.29556  0.33954  0.83242  1.0000
  H   H264      1.0  0.32186  0.35878  0.82536  1.0000
  N   N23       1.0  0.17365  0.43383  0.82801  1.0000
  C   C280      1.0  0.17760  0.45880  0.83011  1.0000
  C   C281      1.0  0.18948  0.41569  0.83419  1.0000
  C   C282      1.0  0.06649  0.30379  0.86777  1.0000
  H   H265      1.0  0.38050  0.03619  0.99243  1.0000
  C   C283      1.0  0.37110  0.14004  0.75459  1.0000
  H   H266      1.0  0.23128  0.45327  0.85025  1.0000
  H   H267      1.0  0.01023  0.42975  0.95153  1.0000
  H   H268      1.0  0.18628  0.39592  0.83255  1.0000
  H   H269      1.0  0.22338  0.40799  0.84672  1.0000
  H   H270      1.0  0.02089  0.33544  0.96823  1.0000
  H   H271      1.0  0.49162  0.08517  0.87101  1.0000
  H   H272      1.0  0.07122  0.46676  0.92564  1.0000
  H   H273      1.0  0.19445  0.28901  0.75305  1.0000
  C   C284      1.0  0.38862  0.00562  0.97751  1.0000
  H   H274      1.0  0.44445  0.00829  0.97707  1.0000
  C   C285      1.0  0.46623  0.06410  0.85828  1.0000
  H   H275      1.0  0.38635  0.21182  0.77266  1.0000
  C   C286      1.0  0.48097  0.08512  0.86059  1.0000
  H   H276      1.0  0.19563  0.48548  0.79326  1.0000
  C   C287      1.0  0.01636  0.31678  0.86343  1.0000
  S   S93       1.0  0.00717  0.39615  0.91366  1.0000
  H   H277      1.0  0.44091  0.04615  0.99263  1.0000
  C   C288      1.0  0.49661  0.12762  0.85250  1.0000
  H   H278      1.0  0.48390  0.14390  0.85488  1.0000
  C   C289      1.0  0.44733  0.02825  0.99788  1.0000
  C   C290      1.0  0.24593  0.49878  0.81428  1.0000
  Fe  Fe51      1.0  0.39238  0.97487  0.08064  1.0000
  S   S94       1.0  0.36979  0.94760  0.09711  1.0000
  N   N24       1.0  0.08998  0.63071  0.03726  1.0000
  S   S95       1.0  0.40872  0.96533  0.05720  1.0000
  Fe  Fe52      1.0  0.37092  0.78020  0.16574  1.0000
  S   S96       1.0  0.36474  0.82248  0.16463  1.0000
  S   S97       1.0  0.33521  0.75996  0.15869  1.0000
  Fe  Fe53      1.0  0.42671  0.78712  0.17408  1.0000
  S   S98       1.0  0.42337  0.82920  0.17395  1.0000
  S   S99       1.0  0.46477  0.76752  0.17788  1.0000
  Fe  Fe54      1.0  0.38601  0.82174  0.18661  1.0000
  S   S100      1.0  0.36919  0.84592  0.20523  1.0000
  Fe  Fe55      1.0  0.40249  0.82623  0.15209  1.0000
  S   S101      1.0  0.41673  0.84850  0.13018  1.0000
  S   S102      1.0  0.39050  0.77951  0.18851  1.0000
  S   S103      1.0  0.40756  0.78415  0.15152  1.0000
  Fe  Fe56      1.0  0.02453  0.60848  0.05581  1.0000
  H   H279      1.0  0.05155  0.68110  0.04281  1.0000
  Fe  Fe57      1.0  0.04550  0.63069  0.08502  1.0000
  S   S104      1.0  0.01893  0.60868  0.10141  1.0000
  S   S105      1.0  0.07323  0.65592  0.09612  1.0000
  Fe  Fe58      1.0  0.02880  0.57679  0.08654  1.0000
  N   N25       1.0  0.48042  0.79624  0.21469  1.0000
  S   S106      1.0  0.05721  0.59793  0.07112  1.0000
  S   S107      1.0  0.01488  0.64355  0.06860  1.0000
  Fe  Fe59      1.0  0.24204  0.63519  0.16544  1.0000
  S   S108      1.0  0.20443  0.65428  0.16099  1.0000
  S   S109      1.0  0.28153  0.65163  0.16845  1.0000
  Fe  Fe60      1.0  0.21717  0.58262  0.17239  1.0000
  S   S110      1.0  0.17819  0.59850  0.16922  1.0000
  S   S111      1.0  0.22230  0.54161  0.18153  1.0000
  Fe  Fe61      1.0  0.19497  0.61994  0.14817  1.0000
  S   S112      1.0  0.17537  0.61419  0.12560  1.0000
  Fe  Fe62      1.0  0.19040  0.63117  0.18231  1.0000
  S   S113      1.0  0.16390  0.64940  0.19972  1.0000
  S   S114      1.0  0.23396  0.60243  0.15080  1.0000
  S   S115      1.0  0.22804  0.61375  0.18734  1.0000
  C   C291      1.0  0.30170  0.82731  0.23796  1.0000
  C   C292      1.0  0.03497  0.52291  0.06948  1.0000
  H   H280      1.0  0.08369  0.61315  0.01612  1.0000
  C   C293      1.0  0.45672  0.80568  0.21201  1.0000
  H   H281      1.0  0.23072  0.53165  0.14858  1.0000
  H   H282      1.0  0.11933  0.61780  0.05205  1.0000
  C   C294      1.0  0.15468  0.66109  0.22998  1.0000
  C   C295      1.0  0.17062  0.64822  0.21964  1.0000
  C   C296      1.0  0.19219  0.63586  0.22521  1.0000
  H   H283      1.0  0.11281  0.65223  0.06991  1.0000
  H   H284      1.0  0.13795  0.67072  0.22578  1.0000
  H   H285      1.0  0.20458  0.62584  0.21743  1.0000
  H   H286      1.0  0.27401  0.67380  0.20062  1.0000
  C   C297      1.0  0.10155  0.64415  0.10433  1.0000
  C   C298      1.0  0.11184  0.62073  0.10073  1.0000
  C   C299      1.0  0.13459  0.61212  0.10721  1.0000
  C   C300      1.0  0.14699  0.62644  0.11768  1.0000
  C   C301      1.0  0.13671  0.64990  0.12128  1.0000
  C   C302      1.0  0.11424  0.65879  0.11450  1.0000
  H   H287      1.0  0.10238  0.60928  0.09288  1.0000
  H   H288      1.0  0.14248  0.59406  0.10424  1.0000
  H   H289      1.0  0.14633  0.66140  0.12903  1.0000
  H   H290      1.0  0.10660  0.67709  0.11721  1.0000
  C   C303      1.0  0.46733  0.95729  0.01954  1.0000
  H   H291      1.0  0.03328  0.54253  0.06550  1.0000
  C   C304      1.0  0.49650  0.83838  0.21455  1.0000
  N   N26       1.0  0.22778  0.69197  0.22601  1.0000
  H   H292      1.0  0.31732  0.98780  0.24972  1.0000
  C   C305      1.0  0.47623  0.81399  0.13882  1.0000
  C   C306      1.0  0.32035  0.72985  0.16218  1.0000
  C   C307      1.0  0.33234  0.70901  0.16954  1.0000
  C   C308      1.0  0.32011  0.68541  0.17140  1.0000
  C   C309      1.0  0.29561  0.68223  0.16610  1.0000
  C   C310      1.0  0.28342  0.70317  0.15900  1.0000
  C   C311      1.0  0.29577  0.72670  0.15699  1.0000
  H   H293      1.0  0.35123  0.71095  0.17357  1.0000
  H   H294      1.0  0.32985  0.66943  0.17688  1.0000
  H   H295      1.0  0.26469  0.70117  0.15476  1.0000
  H   H296      1.0  0.28624  0.74257  0.15124  1.0000
  C   C312      1.0  0.37602  0.84390  0.22507  1.0000
  C   C313      1.0  0.36367  0.86060  0.23493  1.0000
  S   S116      1.0  0.48066  0.96799  0.05838  1.0000
  C   C314      1.0  0.39263  0.82566  0.23129  1.0000
  H   H297      1.0  0.35066  0.87466  0.23020  1.0000
  H   H298      1.0  0.11386  0.60642  0.02426  1.0000
  H   H299      1.0  0.40163  0.81225  0.22389  1.0000
  C   C315      1.0  0.40485  0.87796  0.12269  1.0000
  C   C316      1.0  0.38157  0.88776  0.12784  1.0000
  C   C317      1.0  0.37133  0.90954  0.12017  1.0000
  C   C318      1.0  0.38448  0.92200  0.10752  1.0000
  C   C319      1.0  0.40819  0.91270  0.10276  1.0000
  C   C320      1.0  0.41821  0.89070  0.11025  1.0000
  H   H300      1.0  0.37111  0.87818  0.13743  1.0000
  H   H301      1.0  0.35303  0.91670  0.12396  1.0000
  H   H302      1.0  0.41843  0.92204  0.09300  1.0000
  H   H303      1.0  0.43619  0.88323  0.10613  1.0000
  C   C321      1.0  0.03897  0.51625  0.08507  1.0000
  H   H304      1.0  0.27785  0.52121  0.17618  1.0000
  C   C322      1.0  0.25104  0.68401  0.22066  1.0000
  C   C323      1.0  0.10487  0.63203  0.04972  1.0000
  H   H305      1.0  0.48656  0.95781  0.02419  1.0000
  H   H306      1.0  0.02856  0.50934  0.04706  1.0000
  C   C324      1.0  0.22962  0.51380  0.15529  1.0000
  H   H307      1.0  0.00937  0.64777  0.01585  1.0000
  H   H308      1.0  0.26960  0.53699  0.20043  1.0000
  N   N27       1.0  0.46107  0.98178  0.01180  1.0000
  H   H309      1.0  0.30066  0.60622  0.15386  1.0000
  C   C325      1.0  0.28999  0.58331  0.17453  1.0000
  C   C326      1.0  0.27708  0.55621  0.19729  1.0000
  C   C327      1.0  0.29603  0.58739  0.15869  1.0000
  C   C328      1.0  0.02502  0.61161  0.01041  1.0000
  N   N28       1.0  0.35734  0.84265  0.10803  1.0000
  C   C329      1.0  0.36528  0.81948  0.11389  1.0000
  C   C330      1.0  0.33592  0.85368  0.11406  1.0000
  C   C331      1.0  0.35160  0.80669  0.12607  1.0000
  C   C332      1.0  0.32194  0.84153  0.12636  1.0000
  C   C333      1.0  0.32978  0.81780  0.13230  1.0000
  C   C334      1.0  0.37109  0.85498  0.09464  1.0000
  H   H310      1.0  0.38247  0.81090  0.10929  1.0000
  H   H311      1.0  0.32976  0.87217  0.10951  1.0000
  H   H312      1.0  0.35793  0.78835  0.13077  1.0000
  H   H313      1.0  0.30521  0.85049  0.13130  1.0000
  H   H314      1.0  0.31922  0.80809  0.14188  1.0000
  H   H315      1.0  0.39177  0.85155  0.09538  1.0000
  H   H316      1.0  0.36457  0.84770  0.08376  1.0000
  H   H317      1.0  0.36820  0.87581  0.09416  1.0000
  H   H318      1.0  0.29310  0.83589  0.22773  1.0000
  H   H319      1.0  0.39672  0.96462  0.01590  1.0000
  H   H320      1.0  0.05888  0.64679  0.02505  1.0000
  H   H321      1.0  0.29390  0.55916  0.20414  1.0000
  H   H322      1.0  0.19709  0.69534  0.19240  1.0000
  H   H323      1.0  0.07869  0.68390  0.06542  1.0000
  C   C335      1.0  0.25560  0.68017  0.20491  1.0000
  Fe  Fe63      1.0  0.44289  0.98483  0.06475  1.0000
  C   C336      1.0  0.28331  0.53982  0.17139  1.0000
  C   C337      1.0  0.19787  0.63657  0.24092  1.0000
  H   H324      1.0  0.29928  0.57030  0.13673  1.0000
  C   C338      1.0  0.10130  0.65141  0.05987  1.0000
  C   C339      1.0  0.39454  0.97616  0.00528  1.0000
  C   C340      1.0  0.20869  0.69644  0.21599  1.0000
  C   C341      1.0  0.09352  0.60962  0.02718  1.0000
  N   N29       1.0  0.10482  0.61412  0.14803  1.0000
  C   C342      1.0  0.11346  0.59100  0.14385  1.0000
  C   C343      1.0  0.08267  0.62391  0.14252  1.0000
  C   C344      1.0  0.09981  0.57704  0.13389  1.0000
  C   C345      1.0  0.06861  0.61050  0.13250  1.0000
  C   C346      1.0  0.07724  0.58689  0.12818  1.0000
  C   C347      1.0  0.11967  0.62835  0.15839  1.0000
  H   H325      1.0  0.13143  0.58362  0.14784  1.0000
  H   H326      1.0  0.07605  0.64248  0.14548  1.0000
  H   H327      1.0  0.10703  0.55900  0.13030  1.0000
  H   H328      1.0  0.05153  0.61875  0.12777  1.0000
  H   H329      1.0  0.06674  0.57652  0.12015  1.0000
  H   H330      1.0  0.11166  0.64750  0.16002  1.0000
  H   H331      1.0  0.12051  0.61811  0.16996  1.0000
  H   H332      1.0  0.13924  0.63085  0.15343  1.0000
  C   C348      1.0  0.39737  0.82466  0.24721  1.0000
  H   H333      1.0  0.29006  0.59922  0.18184  1.0000
  S   S117      1.0  0.03819  0.53944  0.09856  1.0000
  H   H334      1.0  0.46924  0.86843  0.21063  1.0000
  H   H335      1.0  0.48609  0.77449  0.14115  1.0000
  H   H336      1.0  0.26617  0.68050  0.22860  1.0000
  C   C349      1.0  0.29526  0.56725  0.14910  1.0000
  C   C350      1.0  0.08211  0.66925  0.05733  1.0000
  H   H337      1.0  0.44111  0.79303  0.21081  1.0000
  N   N30       1.0  0.28358  0.55979  0.18066  1.0000
  C   C351      1.0  0.49421  0.78320  0.17771  1.0000
  H   H338      1.0  0.28775  0.52750  0.14812  1.0000
  S   S118      1.0  0.03051  0.60016  0.02995  1.0000
  C   C352      1.0  0.03245  0.50411  0.05902  1.0000
  C   C353      1.0  0.48534  0.83858  0.13798  1.0000
  C   C354      1.0  0.49563  0.80948  0.17765  1.0000
  C   C355      1.0  0.07111  0.64815  0.03469  1.0000
  H   H339      1.0  0.19010  0.70236  0.22020  1.0000
  H   H340      1.0  0.23946  0.68144  0.18245  1.0000
  C   C356      1.0  0.06689  0.66766  0.04468  1.0000
  S   S119      1.0  0.42799  0.99136  0.08879  1.0000
  H   H341      1.0  0.47855  0.82081  0.17738  1.0000
  H   H342      1.0  0.48405  0.76304  0.22939  1.0000
  C   C357      1.0  0.28889  0.54327  0.15547  1.0000
  H   H343      1.0  0.21468  0.62708  0.24510  1.0000
  H   H344      1.0  0.33238  0.81027  0.22504  1.0000
  H   H345      1.0  0.26178  0.56966  0.20055  1.0000
  C   C358      1.0  0.16039  0.66185  0.24570  1.0000
  H   H346      1.0  0.08539  0.59220  0.03311  1.0000
  C   C359      1.0  0.47241  0.84817  0.21180  1.0000
  C   C360      1.0  0.32373  0.81285  0.23645  1.0000
  C   C361      1.0  0.45237  0.83177  0.21053  1.0000
  C   C362      1.0  0.23619  0.68450  0.19466  1.0000
  C   C363      1.0  0.22478  0.51348  0.17134  1.0000
  H   H347      1.0  0.43357  0.83927  0.20836  1.0000
  C   C364      1.0  0.21255  0.69260  0.20021  1.0000
  H   H348      1.0  0.45364  0.95306  0.02944  1.0000
  C   C365      1.0  0.01490  0.63563  0.00667  1.0000
  H   H349      1.0  0.45608  0.81073  0.13864  1.0000
  H   H350      1.0  0.47219  0.85443  0.13700  1.0000
  C   C366      1.0  0.48458  0.76890  0.21684  1.0000
  H   H351      1.0  0.46999  0.75830  0.21111  1.0000
  H   H352      1.0  0.48522  0.98229  0.09838  1.0000
  C   C367      1.0  0.49312  0.79366  0.14006  1.0000
  H   H353      1.0  0.46666  0.94164  0.01164  1.0000
  C   C368      1.0  0.22377  0.69641  0.24250  1.0000
  H   H354      1.0  0.23395  0.71353  0.24537  1.0000
  H   H355      1.0  0.20341  0.69895  0.24579  1.0000
  H   H356      1.0  0.35262  0.79198  0.24849  1.0000
  H   H357      1.0  0.23053  0.67989  0.24980  1.0000
  C   C369      1.0  0.50016  0.81220  0.21606  1.0000
  C   C370      1.0  0.33514  0.80264  0.24976  1.0000
  C   C371      1.0  0.36786  0.85915  0.25090  1.0000
  C   C372      1.0  0.18208  0.64964  0.25122  1.0000
  H   H358      1.0  0.45103  0.91805  0.39174  1.0000
  S   S120      1.0  0.48367  0.85081  0.37540  1.0000
  N   N31       1.0  0.32487  0.80675  0.26417  1.0000
  Fe  Fe64      1.0  0.35557  0.86490  0.32913  1.0000
  S   S121      1.0  0.31402  0.87369  0.32638  1.0000
  S   S122      1.0  0.37078  0.86749  0.35331  1.0000
  Fe  Fe65      1.0  0.36379  0.85639  0.29454  1.0000
  S   S123      1.0  0.32363  0.86590  0.28940  1.0000
  S   S124      1.0  0.39101  0.83921  0.27701  1.0000
  Fe  Fe66      1.0  0.32785  0.89774  0.30535  1.0000
  S   S125      1.0  0.31286  0.93730  0.29825  1.0000
  Fe  Fe67      1.0  0.31324  0.84099  0.31072  1.0000
  S   S126      1.0  0.29061  0.80456  0.30828  1.0000
  S   S127      1.0  0.36919  0.89011  0.30870  1.0000
  S   S128      1.0  0.35378  0.83063  0.31538  1.0000
  C   C373      1.0  0.13884  0.58633  0.32065  1.0000
  S   S129      1.0  0.18487  0.54315  0.37691  1.0000
  Fe  Fe68      1.0  0.14960  0.66769  0.32264  1.0000
  S   S130      1.0  0.12925  0.70526  0.32037  1.0000
  S   S131      1.0  0.14307  0.64736  0.34649  1.0000
  Fe  Fe69      1.0  0.16706  0.67175  0.28844  1.0000
  S   S132      1.0  0.14761  0.70911  0.28382  1.0000
  S   S133      1.0  0.19129  0.65186  0.27051  1.0000
  Fe  Fe70      1.0  0.16383  0.71926  0.30632  1.0000
  S   S134      1.0  0.17878  0.75875  0.31026  1.0000
  Fe  Fe71      1.0  0.11484  0.69198  0.29829  1.0000
  S   S135      1.0  0.07441  0.69215  0.28982  1.0000
  S   S136      1.0  0.18512  0.68266  0.31029  1.0000
  S   S137      1.0  0.13348  0.65375  0.30120  1.0000
  S   S138      1.0  0.06859  0.51750  0.38826  1.0000
  H   H359      1.0  0.33693  0.81028  0.28700  1.0000
  C   C374      1.0  0.04541  0.69477  0.30078  1.0000
  C   C375      1.0  0.04347  0.70805  0.31426  1.0000
  C   C376      1.0  0.01951  0.71312  0.32123  1.0000
  C   C377      1.0  0.11705  0.59662  0.32749  1.0000
  C   C378      1.0  0.02320  0.68580  0.29475  1.0000
  H   H360      1.0  0.06032  0.71527  0.31897  1.0000
  N   N32       1.0  0.43057  0.92535  0.37116  1.0000
  H   H361      1.0  0.02447  0.67556  0.28431  1.0000
  C   C379      1.0  0.17356  0.57249  0.36877  1.0000
  C   C380      1.0  0.18610  0.58392  0.35553  1.0000
  C   C381      1.0  0.17702  0.60676  0.34845  1.0000
  C   C382      1.0  0.15557  0.61863  0.35475  1.0000
  C   C383      1.0  0.14349  0.60756  0.36822  1.0000
  C   C384      1.0  0.15228  0.58455  0.37513  1.0000
  H   H362      1.0  0.20272  0.57486  0.35062  1.0000
  H   H363      1.0  0.18665  0.61516  0.33817  1.0000
  H   H364      1.0  0.12708  0.61676  0.37331  1.0000
  H   H365      1.0  0.14276  0.57628  0.38548  1.0000
  H   H366      1.0  0.34098  0.96798  0.27161  1.0000
  C   C385      1.0  0.45441  0.92338  0.37919  1.0000
  C   C386      1.0  0.13813  0.55286  0.34084  1.0000
  H   H367      1.0  0.19362  0.66635  0.35290  1.0000
  C   C387      1.0  0.25920  0.79254  0.30867  1.0000
  C   C388      1.0  0.23778  0.80743  0.31172  1.0000
  C   C389      1.0  0.21340  0.79683  0.31195  1.0000
  C   C390      1.0  0.21000  0.77129  0.30905  1.0000
  C   C391      1.0  0.23141  0.75640  0.30597  1.0000
  C   C392      1.0  0.25578  0.76697  0.30580  1.0000
  H   H368      1.0  0.23998  0.82708  0.31399  1.0000
  H   H369      1.0  0.19705  0.80857  0.31441  1.0000
  H   H370      1.0  0.22921  0.73672  0.30379  1.0000
  H   H371      1.0  0.27216  0.75520  0.30346  1.0000
  Fe  Fe72      1.0  0.16032  0.51541  0.39187  1.0000
  C   C393      1.0  0.33889  0.96626  0.31799  1.0000
  C   C394      1.0  0.32024  0.96559  0.30705  1.0000
  H   H372      1.0  0.08777  0.51075  0.43401  1.0000
  C   C395      1.0  0.34127  0.98832  0.26918  1.0000
  H   H373      1.0  0.34851  0.94899  0.32173  1.0000
  H   H374      1.0  0.11989  0.54420  0.36976  1.0000
  C   C396      1.0  0.40729  0.92119  0.34822  1.0000
  H   H375      1.0  0.01818  0.72407  0.33138  1.0000
  C   C397      1.0  0.22381  0.72123  0.34225  1.0000
  C   C398      1.0  0.45210  0.85514  0.36950  1.0000
  C   C399      1.0  0.44635  0.85077  0.35416  1.0000
  C   C400      1.0  0.42154  0.85423  0.34902  1.0000
  C   C401      1.0  0.40213  0.86175  0.35925  1.0000
  C   C402      1.0  0.40787  0.86595  0.37461  1.0000
  C   C403      1.0  0.43272  0.86282  0.37969  1.0000
  H   H376      1.0  0.46114  0.84464  0.34621  1.0000
  H   H377      1.0  0.41740  0.85090  0.33718  1.0000
  H   H378      1.0  0.39297  0.87171  0.38262  1.0000
  H   H379      1.0  0.43677  0.86596  0.39157  1.0000
  C   C404      1.0  0.22039  0.69539  0.34544  1.0000
  H   H380      1.0  0.44667  0.91214  0.35009  1.0000
  H   H381      1.0  0.14774  0.59575  0.31037  1.0000
  H   H382      1.0  0.04043  0.76799  0.27291  1.0000
  H   H383      1.0  0.20602  0.75782  0.34141  1.0000
  C   C405      1.0  0.10525  0.55073  0.36156  1.0000
  H   H384      1.0  0.40644  0.91511  0.33650  1.0000
  C   C406      1.0  0.40924  0.93387  0.37875  1.0000
  H   H385      1.0  0.40985  0.93880  0.39071  1.0000
  C   C407      1.0  0.14943  0.56425  0.32731  1.0000
  H   H386      1.0  0.14688  0.53609  0.34624  1.0000
  H   H387      1.0  0.16668  0.55637  0.32230  1.0000
  C   C408      1.0  0.17639  0.70348  0.35187  1.0000
  H   H388      1.0  0.05061  0.73527  0.27376  1.0000
  H   H389      1.0  0.01913  0.72020  0.25776  1.0000
  H   H390      1.0  0.14811  0.67203  0.25352  1.0000
  N   N33       1.0  0.04911  0.51906  0.42956  1.0000
  S   S139      1.0  0.12950  0.52664  0.40881  1.0000
  C   C409      1.0  0.33708  0.79619  0.27804  1.0000
  C   C410      1.0  0.16492  0.50196  0.47095  1.0000
  N   N34       1.0  0.11693  0.56325  0.34754  1.0000
  H   H391      1.0  0.35823  0.87211  0.25838  1.0000
  H   H392      1.0  0.14045  0.73749  0.34764  1.0000
  H   H393      1.0  0.35952  0.98960  0.33256  1.0000
  H   H394      1.0  0.29334  0.98796  0.29395  1.0000
  H   H395      1.0  0.36392  0.99480  0.28847  1.0000
  H   H396      1.0  0.01550  0.52769  0.38847  1.0000
  H   H397      1.0  0.09430  0.53418  0.35852  1.0000
  H   H398      1.0  0.46434  0.94173  0.37806  1.0000
  C   C411      1.0  0.30789  0.98827  0.30234  1.0000
  S   S140      1.0  0.47918  0.88291  0.41754  1.0000
  H   H399      1.0  0.07386  0.54585  0.41766  1.0000
  C   C412      1.0  0.42991  0.91936  0.35602  1.0000
  H   H400      1.0  0.08957  0.59314  0.34636  1.0000
  H   H401      1.0  0.09240  0.56362  0.36789  1.0000
  C   C413      1.0  0.02474  0.51078  0.43106  1.0000
  S   S141      1.0  0.48229  0.95561  0.40947  1.0000
  C   C414      1.0  0.38532  0.92923  0.35598  1.0000
  H   H402      1.0  0.46695  0.90847  0.37449  1.0000
  H   H403      1.0  0.24216  0.72850  0.33827  1.0000
  H   H404      1.0  0.19114  0.51352  0.48757  1.0000
  H   H405      1.0  0.10895  0.61410  0.32265  1.0000
  H   H406      1.0  0.32680  0.77928  0.28300  1.0000
  H   H407      1.0  0.27381  0.84197  0.25407  1.0000
  C   C415      1.0  0.06849  0.50405  0.43486  1.0000
  C   C416      1.0  0.32780  0.99948  0.25701  1.0000
  H   H408      1.0  0.00934  0.52267  0.42688  1.0000
  H   H409      1.0  0.36744  0.92957  0.35025  1.0000
  H   H410      1.0  0.23610  0.68230  0.34402  1.0000
  H   H411      1.0  0.35728  0.79134  0.27562  1.0000
  H   H412      1.0  0.16070  0.76325  0.34207  1.0000
  H   H413      1.0  0.36918  0.94172  0.37747  1.0000
  C   C417      1.0  0.15851  0.74637  0.35029  1.0000
  C   C418      1.0  0.20324  0.73776  0.34400  1.0000
  C   C419      1.0  0.34516  0.98934  0.32405  1.0000
  H   H414      1.0  0.15789  0.69631  0.35561  1.0000
  H   H415      1.0  0.15727  0.75254  0.36232  1.0000
  C   C420      1.0  0.19659  0.68643  0.35040  1.0000
  C   C421      1.0  0.01834  0.50825  0.39261  1.0000
  C   C422      1.0  0.38627  0.93575  0.37131  1.0000
  N   N35       1.0  0.17981  0.72874  0.34844  1.0000
  C   C423      1.0  0.10623  0.58472  0.34098  1.0000
  C   C424      1.0  0.17290  0.50529  0.48611  1.0000
  H   H416      1.0  0.29431  0.82293  0.27715  1.0000
  H   H417      1.0  0.05185  0.55845  0.43187  1.0000
  N   N36       1.0  0.01092  0.74162  0.27746  1.0000
  C   C425      1.0  0.30277  0.82014  0.26574  1.0000
  C   C426      1.0  0.05431  0.54457  0.42283  1.0000
  C   C427      1.0  0.38490  0.84132  0.25708  1.0000
  Fe  Fe73      1.0  0.49914  0.86779  0.39656  1.0000
  H   H418      1.0  0.04153  0.54958  0.41321  1.0000
  C   C428      1.0  0.03721  0.74913  0.27885  1.0000
  C   C429      1.0  0.29099  0.83084  0.25269  1.0000
  H   H419      1.0  0.04191  0.74969  0.29123  1.0000
  C   C430      1.0  0.00462  0.72703  0.26573  1.0000
  H   H420      1.0  0.17701  0.50758  0.46098  1.0000
  H   H421      1.0  0.41045  0.81072  0.25198  1.0000
  Fe  Fe74      1.0  0.10583  0.50139  0.39573  1.0000
  Fe  Fe75      1.0  0.33724  0.83865  0.69192  1.0000
  S   S142      1.0  0.29820  0.85478  0.68931  1.0000
  S   S143      1.0  0.34907  0.81209  0.71202  1.0000
  Fe  Fe76      1.0  0.35497  0.85823  0.65925  1.0000
  S   S144      1.0  0.31649  0.87481  0.65417  1.0000
  S   S145      1.0  0.39049  0.86973  0.64468  1.0000
  Fe  Fe77      1.0  0.31722  0.88950  0.67796  1.0000
  S   S146      1.0  0.30231  0.92865  0.68389  1.0000
  Fe  Fe78      1.0  0.30037  0.83864  0.66585  1.0000
  S   S147      1.0  0.26446  0.82027  0.65756  1.0000
  S   S148      1.0  0.35612  0.87441  0.68274  1.0000
  S   S149      1.0  0.33896  0.82099  0.66883  1.0000
  S   S150      1.0  0.48165  0.88949  0.56217  1.0000
  H   H422      1.0  0.05974  0.50637  0.53643  1.0000
  S   S151      1.0  0.46219  0.83114  0.58976  1.0000
  Fe  Fe79      1.0  0.14146  0.65184  0.68859  1.0000
  S   S152      1.0  0.13359  0.69302  0.68294  1.0000
  S   S153      1.0  0.13331  0.63447  0.71295  1.0000
  Fe  Fe80      1.0  0.15566  0.64122  0.65453  1.0000
  S   S154      1.0  0.14934  0.68194  0.64672  1.0000
  S   S155      1.0  0.17236  0.61104  0.63905  1.0000
  Fe  Fe81      1.0  0.16971  0.69223  0.66792  1.0000
  S   S156      1.0  0.20618  0.71506  0.67024  1.0000
  Fe  Fe82      1.0  0.11387  0.67927  0.66242  1.0000
  S   S157      1.0  0.07509  0.68865  0.65269  1.0000
  S   S158      1.0  0.17810  0.65132  0.67480  1.0000
  S   S159      1.0  0.11970  0.63806  0.66902  1.0000
  H   H423      1.0  0.06913  0.50199  0.57336  1.0000
  Fe  Fe83      1.0  0.13190  0.51785  0.57307  1.0000
  H   H424      1.0  0.42298  0.87834  0.57575  1.0000
  H   H425      1.0  0.48045  0.97432  0.55051  1.0000
  C   C431      1.0  0.28714  0.79291  0.70763  1.0000
  N   N37       1.0  0.40857  0.84670  0.73802  1.0000
  S   S160      1.0  0.11963  0.55169  0.58696  1.0000
  N   N38       1.0  0.26083  0.78655  0.70517  1.0000
  C   C432      1.0  0.39189  0.87861  0.59263  1.0000
  C   C433      1.0  0.21146  0.77429  0.69916  1.0000
  H   H426      1.0  0.03440  0.52907  0.58324  1.0000
  H   H427      1.0  0.06431  0.50544  0.62022  1.0000
  H   H428      1.0  0.28812  0.81091  0.71349  1.0000
  H   H429      1.0  0.25274  0.82258  0.69402  1.0000
  C   C434      1.0  0.24551  0.80416  0.69796  1.0000
  H   H430      1.0  0.28131  0.97810  0.68778  1.0000
  C   C435      1.0  0.15738  0.59493  0.62451  1.0000
  C   C436      1.0  0.13243  0.60017  0.62057  1.0000
  C   C437      1.0  0.12140  0.58701  0.60891  1.0000
  C   C438      1.0  0.13508  0.56845  0.60103  1.0000
  C   C439      1.0  0.16005  0.56320  0.60495  1.0000
  C   C440      1.0  0.17109  0.57639  0.61661  1.0000
  H   H431      1.0  0.12163  0.61438  0.62649  1.0000
  H   H432      1.0  0.10208  0.59126  0.60600  1.0000
  H   H433      1.0  0.17085  0.54902  0.59901  1.0000
  H   H434      1.0  0.19042  0.57220  0.61952  1.0000
  N   N39       1.0  0.01751  0.65109  0.70446  1.0000
  C   C441      1.0  0.04165  0.70172  0.67679  1.0000
  C   C442      1.0  0.04478  0.69230  0.66206  1.0000
  C   C443      1.0  0.02312  0.68618  0.65424  1.0000
  H   H435      1.0  0.29791  0.79503  0.69633  1.0000
  H   H436      1.0  0.05806  0.70691  0.68286  1.0000
  H   H437      1.0  0.02528  0.67921  0.64277  1.0000
  C   C444      1.0  0.15536  0.63810  0.72739  1.0000
  C   C445      1.0  0.14923  0.62975  0.74281  1.0000
  S   S161      1.0  0.48744  0.94839  0.58373  1.0000
  C   C446      1.0  0.19731  0.64855  0.73509  1.0000
  C   C447      1.0  0.17936  0.64783  0.72362  1.0000
  S   S162      1.0  0.11368  0.51154  0.55043  1.0000
  H   H438      1.0  0.21598  0.65575  0.73203  1.0000
  H   H439      1.0  0.18426  0.65439  0.71180  1.0000
  C   C448      1.0  0.19048  0.58274  0.73238  1.0000
  C   C449      1.0  0.24917  0.79039  0.66055  1.0000
  C   C450      1.0  0.22421  0.78812  0.65579  1.0000
  C   C451      1.0  0.21081  0.76529  0.65850  1.0000
  C   C452      1.0  0.22226  0.74424  0.66595  1.0000
  C   C453      1.0  0.24743  0.74631  0.67038  1.0000
  C   C454      1.0  0.26076  0.76919  0.66777  1.0000
  H   H440      1.0  0.21503  0.80431  0.65014  1.0000
  H   H441      1.0  0.19154  0.76413  0.65497  1.0000
  H   H442      1.0  0.25661  0.73017  0.67607  1.0000
  H   H443      1.0  0.27998  0.77045  0.67137  1.0000
  C   C455      1.0  0.31375  0.95927  0.67774  1.0000
  C   C456      1.0  0.33682  0.96288  0.66947  1.0000
  H   H444      1.0  0.01453  0.64014  0.68126  1.0000
  H   H445      1.0  0.34817  0.94666  0.66648  1.0000
  C   C457      1.0  0.29929  0.98066  0.68151  1.0000
  C   C458      1.0  0.41110  0.85667  0.63050  1.0000
  C   C459      1.0  0.43271  0.87040  0.62547  1.0000
  C   C460      1.0  0.44856  0.86256  0.61319  1.0000
  C   C461      1.0  0.44312  0.84071  0.60580  1.0000
  C   C462      1.0  0.42190  0.82650  0.61109  1.0000
  C   C463      1.0  0.40585  0.83448  0.62336  1.0000
  H   H446      1.0  0.43694  0.88759  0.63089  1.0000
  H   H447      1.0  0.46469  0.87377  0.60929  1.0000
  H   H448      1.0  0.41756  0.80949  0.60550  1.0000
  H   H449      1.0  0.38923  0.82375  0.62708  1.0000
  H   H450      1.0  0.38406  0.86109  0.58925  1.0000
  C   C464      1.0  0.01717  0.70492  0.68355  1.0000
  C   C465      1.0  0.34929  0.81974  0.73160  1.0000
  C   C466      1.0  0.34179  0.84354  0.73628  1.0000
  H   H451      1.0  0.01500  0.71247  0.69487  1.0000
  H   H452      1.0  0.33441  0.85747  0.72793  1.0000
  N   N40       1.0  0.39148  0.91237  0.60993  1.0000
  C   C467      1.0  0.41287  0.92205  0.60253  1.0000
  H   H453      1.0  0.15114  0.57313  0.73278  1.0000
  C   C468      1.0  0.41686  0.82225  0.73730  1.0000
  C   C469      1.0  0.06945  0.64897  0.69875  1.0000
  C   C470      1.0  0.22061  0.79835  0.69490  1.0000
  C   C471      1.0  0.38049  0.92474  0.62339  1.0000
  H   H454      1.0  0.42158  0.93871  0.60652  1.0000
  C   C472      1.0  0.25200  0.76289  0.70941  1.0000
  C   C473      1.0  0.03038  0.51034  0.57979  1.0000
  C   C474      1.0  0.41375  0.88830  0.58506  1.0000
  H   H455      1.0  0.36311  0.91512  0.62826  1.0000
  H   H456      1.0  0.39416  0.92391  0.63282  1.0000
  H   H457      1.0  0.38462  0.87437  0.72698  1.0000
  C   C475      1.0  0.00543  0.50196  0.58011  1.0000
  H   H458      1.0  0.26425  0.74872  0.71483  1.0000
  H   H459      1.0  0.39145  0.84761  0.71603  1.0000
  H   H460      1.0  0.20889  0.81212  0.68867  1.0000
  H   H461      1.0  0.19250  0.76920  0.69632  1.0000
  C   C476      1.0  0.02705  0.64398  0.69041  1.0000
  C   C477      1.0  0.05316  0.64289  0.68734  1.0000
  H   H462      1.0  0.08524  0.53193  0.61903  1.0000
  H   H463      1.0  0.22041  0.73745  0.70944  1.0000
  C   C478      1.0  0.03930  0.50832  0.53694  1.0000
  H   H464      1.0  0.19026  0.59235  0.72094  1.0000
  H   H465      1.0  0.29687  0.77827  0.71504  1.0000
  C   C479      1.0  0.42429  0.91022  0.58998  1.0000
  C   C480      1.0  0.38092  0.89095  0.60512  1.0000
  H   H466      1.0  0.49407  0.82278  0.61718  1.0000
  H   H467      1.0  0.02584  0.66261  0.72686  1.0000
  Fe  Fe84      1.0  0.49243  0.85741  0.57880  1.0000
  H   H468      1.0  0.08969  0.64870  0.69647  1.0000
  H   H469      1.0  0.08135  0.51447  0.60220  1.0000
  C   C481      1.0  0.22719  0.75642  0.70649  1.0000
  C   C482      1.0  0.34532  0.98755  0.66519  1.0000
  C   C483      1.0  0.05962  0.65587  0.71308  1.0000
  C   C484      1.0  0.03341  0.65688  0.71576  1.0000
  H   H470      1.0  0.41572  0.87073  0.71783  1.0000
  H   H471      1.0  0.12969  0.52576  0.62017  1.0000
  H   H472      1.0  0.41569  0.81265  0.72664  1.0000
  C   C485      1.0  0.49985  0.97554  0.54601  1.0000
  H   H473      1.0  0.36428  0.78325  0.73907  1.0000
  C   C486      1.0  0.16847  0.57197  0.73907  1.0000
  C   C487      1.0  0.35862  0.80177  0.74258  1.0000
  N   N41       1.0  0.22110  0.68023  0.63507  1.0000
  C   C488      1.0  0.21114  0.66021  0.62830  1.0000
  C   C489      1.0  0.21356  0.70437  0.63087  1.0000
  C   C490      1.0  0.19341  0.66405  0.61684  1.0000
  C   C491      1.0  0.19588  0.70892  0.61943  1.0000
  C   C492      1.0  0.18578  0.68859  0.61237  1.0000
  C   C493      1.0  0.23907  0.67546  0.64737  1.0000
  H   H474      1.0  0.21650  0.64102  0.63197  1.0000
  H   H475      1.0  0.22090  0.72025  0.63653  1.0000
  H   H476      1.0  0.18510  0.64798  0.61183  1.0000
  H   H477      1.0  0.18968  0.72806  0.61632  1.0000
  H   H478      1.0  0.17161  0.69176  0.60374  1.0000
  H   H479      1.0  0.24864  0.69304  0.65018  1.0000
  H   H480      1.0  0.22886  0.66789  0.65812  1.0000
  H   H481      1.0  0.25384  0.66167  0.64387  1.0000
  H   H482      1.0  0.44160  0.91762  0.58440  1.0000
  H   H483      1.0  0.36325  0.99004  0.65888  1.0000
  H   H484      1.0  0.36454  0.88267  0.61135  1.0000
  H   H485      1.0  0.37551  0.94469  0.62017  1.0000
  H   H486      1.0  0.13067  0.62227  0.74582  1.0000
  C   C494      1.0  0.08253  0.51266  0.61503  1.0000
  H   H487      1.0  0.07237  0.66063  0.72195  1.0000
  H   H488      1.0  0.06070  0.63835  0.67596  1.0000
  S   S163      1.0  0.16891  0.50243  0.51820  1.0000
  C   C495      1.0  0.21243  0.58215  0.74084  1.0000
  C   C496      1.0  0.39977  0.86057  0.72403  1.0000
  H   H489      1.0  0.22924  0.59137  0.73580  1.0000
  C   C497      1.0  0.42609  0.80902  0.75043  1.0000
  H   H490      1.0  0.43200  0.78944  0.74998  1.0000
  C   C498      1.0  0.02783  0.53036  0.54192  1.0000
  H   H491      1.0  0.03934  0.54576  0.54520  1.0000
  H   H492      1.0  0.50045  0.93824  0.53738  1.0000
  C   C499      1.0  0.19143  0.63964  0.75043  1.0000
  S   S164      1.0  0.16987  0.50347  0.56455  1.0000
  C   C500      1.0  0.40949  0.85864  0.75156  1.0000
  C   C501      1.0  0.12698  0.50554  0.62102  1.0000
  C   C502      1.0  0.50144  0.99698  0.58664  1.0000
  Fe  Fe85      1.0  0.37931  0.81497  0.79933  1.0000
  S   S165      1.0  0.39659  0.77691  0.79528  1.0000
  S   S166      1.0  0.35987  0.84092  0.78153  1.0000
  Fe  Fe86      1.0  0.39561  0.81446  0.83295  1.0000
  S   S167      1.0  0.41349  0.77582  0.83121  1.0000
  S   S168      1.0  0.40158  0.83184  0.85608  1.0000
  Fe  Fe87      1.0  0.42984  0.79056  0.80807  1.0000
  S   S169      1.0  0.47060  0.79073  0.79783  1.0000
  Fe  Fe88      1.0  0.37858  0.76537  0.81879  1.0000
  S   S170      1.0  0.35822  0.72822  0.82674  1.0000
  S   S171      1.0  0.41349  0.82947  0.81037  1.0000
  S   S172      1.0  0.35978  0.80308  0.82223  1.0000
  H   H493      1.0  0.03572  0.53495  0.90467  1.0000
  Fe  Fe89      1.0  0.44781  0.96292  0.90978  1.0000
  S   S173      1.0  0.41483  0.94083  0.91974  1.0000
  S   S174      1.0  0.48534  0.94312  0.90942  1.0000
  Fe  Fe90      1.0  0.39454  0.95853  0.89959  1.0000
  S   S175      1.0  0.36960  0.93692  0.88412  1.0000
  C   C503      1.0  0.34141  0.95334  0.94457  1.0000
  H   H494      1.0  0.48385  0.76290  0.82676  1.0000
  S   S176      1.0  0.42847  0.97857  0.88871  1.0000
  Fe  Fe91      1.0  0.21546  0.57459  0.80929  1.0000
  S   S177      1.0  0.18248  0.59682  0.79960  1.0000
  S   S178      1.0  0.20894  0.53328  0.80393  1.0000
  Fe  Fe92      1.0  0.24063  0.62405  0.81857  1.0000
  S   S179      1.0  0.20893  0.64838  0.80948  1.0000
  S   S180      1.0  0.27418  0.64087  0.83045  1.0000
  Fe  Fe93      1.0  0.18294  0.61874  0.82103  1.0000
  S   S181      1.0  0.14585  0.63131  0.83304  1.0000
  Fe  Fe94      1.0  0.21111  0.62399  0.78910  1.0000
  S   S182      1.0  0.21545  0.63902  0.76400  1.0000
  S   S183      1.0  0.21434  0.59538  0.83146  1.0000
  S   S184      1.0  0.24430  0.60100  0.79755  1.0000
  Fe  Fe95      1.0  0.40502  0.97548  0.93278  1.0000
  S   S185      1.0  0.04338  0.58556  0.93272  1.0000
  H   H495      1.0  0.07301  0.51189  0.92437  1.0000
  H   H496      1.0  0.02209  0.50905  0.95478  1.0000
  C   C504      1.0  0.35453  0.83182  0.76264  1.0000
  H   H497      1.0  0.40147  0.94533  0.99042  1.0000
  Fe  Fe96      1.0  0.05399  0.60305  0.90884  1.0000
  S   S186      1.0  0.09389  0.59621  0.89869  1.0000
  S   S187      1.0  0.03302  0.63935  0.91317  1.0000
  S   S188      1.0  0.43961  0.99644  0.92369  1.0000
  C   C505      1.0  0.03858  0.55018  0.86490  1.0000
  H   H498      1.0  0.36335  0.92318  0.95532  1.0000
  C   C506      1.0  0.49887  0.78803  0.80830  1.0000
  C   C507      1.0  0.02886  0.60455  0.98252  1.0000
  H   H499      1.0  0.05446  0.53730  0.86659  1.0000
  H   H500      1.0  0.29995  0.96753  0.90682  1.0000
  H   H501      1.0  0.37873  0.75863  0.88019  1.0000
  C   C508      1.0  0.39448  0.97993  0.97679  1.0000
  N   N42       1.0  0.02270  0.59221  0.85913  1.0000
  H   H502      1.0  0.48351  0.99495  0.89744  1.0000
  C   C509      1.0  0.34117  0.92444  0.91898  1.0000
  H   H503      1.0  0.02998  0.62805  0.86727  1.0000
  C   C510      1.0  0.35335  0.92974  0.94511  1.0000
  C   C511      1.0  0.16723  0.63046  0.75431  1.0000
  C   C512      1.0  0.39719  0.96527  0.99079  1.0000
  C   C513      1.0  0.13070  0.61944  0.85069  1.0000
  C   C514      1.0  0.14212  0.60137  0.86065  1.0000
  C   C515      1.0  0.13042  0.59427  0.87519  1.0000
  C   C516      1.0  0.10703  0.60484  0.87988  1.0000
  C   C517      1.0  0.09532  0.62250  0.86977  1.0000
  C   C518      1.0  0.10712  0.62974  0.85527  1.0000
  H   H504      1.0  0.16021  0.59323  0.85729  1.0000
  H   H505      1.0  0.13962  0.58058  0.88291  1.0000
  H   H506      1.0  0.07754  0.63106  0.87330  1.0000
  H   H507      1.0  0.09817  0.64382  0.84768  1.0000
  H   H508      1.0  0.38287  0.79211  0.88099  1.0000
  H   H509      1.0  0.23331  0.56135  0.77581  1.0000
  C   C519      1.0  0.22391  0.50305  0.80608  1.0000
  H   H510      1.0  0.34221  0.96513  0.95436  1.0000
  H   H511      1.0  0.39492  0.77655  0.86439  1.0000
  H   H512      1.0  0.07702  0.51545  0.94480  1.0000
  H   H513      1.0  0.34173  0.91319  0.90892  1.0000
  H   H514      1.0  0.31480  0.94287  0.89622  1.0000
  C   C520      1.0  0.33397  0.70485  0.82648  1.0000
  C   C521      1.0  0.31467  0.70529  0.81570  1.0000
  C   C522      1.0  0.29613  0.68592  0.81646  1.0000
  C   C523      1.0  0.29663  0.66609  0.82808  1.0000
  C   C524      1.0  0.31574  0.66614  0.83881  1.0000
  C   C525      1.0  0.33412  0.68510  0.83799  1.0000
  H   H515      1.0  0.31418  0.72034  0.80671  1.0000
  H   H516      1.0  0.28159  0.68629  0.80804  1.0000
  H   H517      1.0  0.31655  0.65113  0.84782  1.0000
  H   H518      1.0  0.34873  0.68430  0.84637  1.0000
  N   N43       1.0  0.32951  0.94763  0.91854  1.0000
  H   H519      1.0  0.16251  0.62361  0.76609  1.0000
  H   H520      1.0  0.29426  0.79296  0.84282  1.0000
  C   C526      1.0  0.02739  0.61925  0.85612  1.0000
  H   H521      1.0  0.31460  0.75040  0.84424  1.0000
  H   H522      1.0  0.05593  0.50180  0.88932  1.0000
  H   H523      1.0  0.03435  0.59239  0.97334  1.0000
  C   C527      1.0  0.02764  0.51637  0.90514  1.0000
  H   H524      1.0  0.25491  0.51439  0.81926  1.0000
  C   C528      1.0  0.39363  0.86220  0.86265  1.0000
  C   C529      1.0  0.37388  0.87697  0.85657  1.0000
  C   C530      1.0  0.36689  0.89992  0.86314  1.0000
  C   C531      1.0  0.37989  0.90864  0.87560  1.0000
  C   C532      1.0  0.39988  0.89405  0.88149  1.0000
  C   C533      1.0  0.40645  0.87086  0.87519  1.0000
  H   H525      1.0  0.36374  0.87056  0.84699  1.0000
  H   H526      1.0  0.35140  0.91104  0.85847  1.0000
  H   H527      1.0  0.41008  0.90043  0.89107  1.0000
  H   H528      1.0  0.42169  0.85959  0.88004  1.0000
  S   S189      1.0  0.38098  0.99162  0.91331  1.0000
  C   C534      1.0  0.04268  0.57582  0.86097  1.0000
  H   H529      1.0  0.19099  0.55142  0.77382  1.0000
  C   C535      1.0  0.36128  0.80778  0.75803  1.0000
  C   C536      1.0  0.35331  0.91518  0.93224  1.0000
  H   H530      1.0  0.01121  0.62899  0.85042  1.0000
  C   C537      1.0  0.06300  0.51290  0.93587  1.0000
  H   H531      1.0  0.05039  0.52979  0.93504  1.0000
  S   S190      1.0  0.39822  0.96489  0.95892  1.0000
  Fe  Fe97      1.0  0.01976  0.62030  0.93630  1.0000
  H   H532      1.0  0.36326  0.89718  0.93236  1.0000
  C   C538      1.0  0.50057  0.77228  0.82180  1.0000
  C   C539      1.0  0.41869  0.84600  0.76487  1.0000
  C   C540      1.0  0.42704  0.82105  0.76428  1.0000
  H   H533      1.0  0.04453  0.62252  0.84844  1.0000
  H   H534      1.0  0.43384  0.81096  0.77462  1.0000
  N   N44       1.0  0.17447  0.66730  0.85824  1.0000
  C   C541      1.0  0.17944  0.64771  0.86875  1.0000
  C   C542      1.0  0.19271  0.67558  0.84753  1.0000
  C   C543      1.0  0.20314  0.63574  0.86861  1.0000
  C   C544      1.0  0.21675  0.66438  0.84728  1.0000
  C   C545      1.0  0.22191  0.64425  0.85784  1.0000
  C   C546      1.0  0.14970  0.67996  0.85846  1.0000
  H   H535      1.0  0.16490  0.64088  0.87712  1.0000
  H   H536      1.0  0.18863  0.69073  0.83898  1.0000
  H   H537      1.0  0.20684  0.61982  0.87670  1.0000
  H   H538      1.0  0.23118  0.67093  0.83874  1.0000
  H   H539      1.0  0.24037  0.63508  0.85749  1.0000
  H   H540      1.0  0.14164  0.68005  0.84679  1.0000
  H   H541      1.0  0.13597  0.67006  0.86672  1.0000
  H   H542      1.0  0.15154  0.69967  0.86181  1.0000
  H   H543      1.0  0.06194  0.58262  0.85979  1.0000
  C   C547      1.0  0.23605  0.56987  0.76379  1.0000
  C   C548      1.0  0.19101  0.56016  0.76214  1.0000
  H   H544      1.0  0.36885  0.79391  0.76632  1.0000
  N   N45       1.0  0.35520  0.78124  0.86537  1.0000
  C   C549      1.0  0.34427  0.80478  0.86457  1.0000
  C   C550      1.0  0.34468  0.76188  0.85823  1.0000
  C   C551      1.0  0.32206  0.80931  0.85660  1.0000
  C   C552      1.0  0.32241  0.76571  0.85024  1.0000
  C   C553      1.0  0.31108  0.78960  0.84941  1.0000
  C   C554      1.0  0.37903  0.77685  0.87318  1.0000
  H   H545      1.0  0.35301  0.82037  0.86980  1.0000
  H   H546      1.0  0.35384  0.74345  0.85833  1.0000
  H   H547      1.0  0.31389  0.82817  0.85566  1.0000
  H   H548      1.0  0.45639  0.96714  0.98964  1.0000
  H   H549      1.0  0.41845  0.85520  0.77575  1.0000
  C   C555      1.0  0.01898  0.62865  0.97876  1.0000
  S   S191      1.0  0.01531  0.64057  0.95910  1.0000
  H   H550      1.0  0.25047  0.55836  0.75767  1.0000
  H   H551      1.0  0.24329  0.58932  0.76452  1.0000
  H   H552      1.0  0.00442  0.66277  0.98831  1.0000
  C   C556      1.0  0.00653  0.51066  0.91491  1.0000
  C   C557      1.0  0.45604  0.98371  0.99638  1.0000
  H   H553      1.0  0.33903  0.86814  0.75527  1.0000
  S   S192      1.0  0.02159  0.58595  0.89761  1.0000
  C   C558      1.0  0.01390  0.54141  0.86709  1.0000
  C   C559      1.0  0.32962  0.96211  0.93108  1.0000
  H   H554      1.0  0.01048  0.52166  0.87047  1.0000
  H   H555      1.0  0.03983  0.57761  0.00085  1.0000
  C   C560      1.0  0.03198  0.59621  0.99819  1.0000
  C   C561      1.0  0.31824  0.95791  0.90425  1.0000
  Fe  Fe98      1.0  0.00931  0.57171  0.92151  1.0000
  C   C562      1.0  0.01205  0.64408  0.99098  1.0000
  H   H556      1.0  0.32119  0.98086  0.93055  1.0000
  H   H557      1.0  0.33143  0.97160  0.89806  1.0000
  N   N46       1.0  0.21252  0.57079  0.75546  1.0000
  H   H558      1.0  0.15153  0.55265  0.75951  1.0000
  C   C563      1.0  0.16865  0.56068  0.75407  1.0000
  C   C564      1.0  0.34446  0.84955  0.75176  1.0000
  H   H559      1.0  0.40237  0.87779  0.75228  1.0000
  H   H560      1.0  0.69237  0.31386  0.15326  1.0000
  Fe  Fe99      1.0  0.60629  0.02358  0.06348  1.0000
  S   S193      1.0  0.64202  0.03990  0.05256  1.0000
  S   S194      1.0  0.56932  0.04467  0.06190  1.0000
  C   C565      1.0  0.62316  0.26618  0.16578  1.0000
  H   H561      1.0  0.82065  0.27553  0.19786  1.0000
  Fe  Fe100     1.0  0.65778  0.03161  0.07616  1.0000
  S   S195      1.0  0.68052  0.06069  0.08803  1.0000
  C   C566      1.0  0.79777  0.31203  0.22019  1.0000
  Fe  Fe101     1.0  0.67624  0.21523  0.15981  1.0000
  S   S196      1.0  0.68921  0.17447  0.16023  1.0000
  S   S197      1.0  0.70122  0.24758  0.14918  1.0000
  Fe  Fe102     1.0  0.62382  0.20058  0.17410  1.0000
  S   S198      1.0  0.63403  0.15945  0.17651  1.0000
  S   S199      1.0  0.58503  0.21381  0.18300  1.0000
  Fe  Fe103     1.0  0.67131  0.17214  0.18442  1.0000
  S   S200      1.0  0.69396  0.15301  0.20359  1.0000
  Fe  Fe104     1.0  0.65066  0.16506  0.15215  1.0000
  S   S201      1.0  0.63421  0.13791  0.13558  1.0000
  S   S202      1.0  0.65997  0.21303  0.18425  1.0000
  S   S203      1.0  0.63892  0.20613  0.14957  1.0000
  H   H562      1.0  0.60805  0.25472  0.16196  1.0000
  C   C567      1.0  0.53747  0.14634  0.18048  1.0000
  S   S204      1.0  0.98352  0.36166  0.10270  1.0000
  Fe  Fe105     1.0  0.85735  0.35691  0.18592  1.0000
  S   S205      1.0  0.81938  0.37247  0.19227  1.0000
  S   S206      1.0  0.88198  0.33794  0.20423  1.0000
  Fe  Fe106     1.0  0.85201  0.37270  0.15157  1.0000
  S   S207      1.0  0.81277  0.38925  0.15608  1.0000
  S   S208      1.0  0.86907  0.37486  0.12674  1.0000
  Fe  Fe107     1.0  0.83007  0.40631  0.17644  1.0000
  S   S209      1.0  0.82922  0.44429  0.18786  1.0000
  Fe  Fe108     1.0  0.80570  0.35361  0.17152  1.0000
  S   S210      1.0  0.77122  0.32861  0.17869  1.0000
  S   S211      1.0  0.86924  0.39132  0.17110  1.0000
  S   S212      1.0  0.84385  0.33643  0.16583  1.0000
  C   C568      1.0  0.87524  0.34026  0.22432  1.0000
  C   C569      1.0  0.89186  0.32902  0.23502  1.0000
  C   C570      1.0  0.64638  0.28213  0.18640  1.0000
  C   C571      1.0  0.85371  0.35293  0.22984  1.0000
  H   H563      1.0  0.90857  0.31913  0.23087  1.0000
  H   H564      1.0  0.61422  0.25762  0.19003  1.0000
  H   H565      1.0  0.84067  0.36156  0.22181  1.0000
  H   H566      1.0  0.83247  0.36468  0.25002  1.0000
  C   C572      1.0  0.82339  0.47565  0.18003  1.0000
  C   C573      1.0  0.71020  0.08316  0.23894  1.0000
  H   H567      1.0  0.80830  0.46524  0.15866  1.0000
  C   C574      1.0  0.95229  0.36945  0.10928  1.0000
  C   C575      1.0  0.94586  0.36599  0.12521  1.0000
  C   C576      1.0  0.92070  0.36895  0.13087  1.0000
  C   C577      1.0  0.90155  0.37501  0.12060  1.0000
  C   C578      1.0  0.90810  0.37924  0.10471  1.0000
  C   C579      1.0  0.93333  0.37663  0.09907  1.0000
  H   H568      1.0  0.96035  0.36039  0.13322  1.0000
  H   H569      1.0  0.91599  0.36562  0.14311  1.0000
  H   H570      1.0  0.89341  0.38392  0.09667  1.0000
  H   H571      1.0  0.93785  0.37914  0.08677  1.0000
  H   H572      1.0  0.84665  0.29756  0.19735  1.0000
  C   C580      1.0  0.52794  0.13517  0.15522  1.0000
  C   C581      1.0  0.72243  0.26808  0.15782  1.0000
  C   C582      1.0  0.72199  0.27102  0.17380  1.0000
  C   C583      1.0  0.73720  0.28940  0.17992  1.0000
  C   C584      1.0  0.75353  0.30480  0.17026  1.0000
  C   C585      1.0  0.75438  0.30147  0.15431  1.0000
  C   C586      1.0  0.73879  0.28343  0.14816  1.0000
  H   H573      1.0  0.70958  0.25944  0.18143  1.0000
  H   H574      1.0  0.73629  0.29170  0.19226  1.0000
  H   H575      1.0  0.76663  0.31318  0.14666  1.0000
  H   H576      1.0  0.73928  0.28149  0.13578  1.0000
  C   C587      1.0  0.68537  0.15487  0.22347  1.0000
  C   C588      1.0  0.66045  0.15971  0.22853  1.0000
  C   C589      1.0  0.80772  0.30792  0.24722  1.0000
  H   H577      1.0  0.67222  0.09927  0.20913  1.0000
  C   C590      1.0  0.70354  0.14875  0.23448  1.0000
  H   H578      1.0  0.64628  0.16434  0.22014  1.0000
  H   H579      1.0  0.89312  0.39514  0.20597  1.0000
  H   H580      1.0  0.72286  0.14502  0.23065  1.0000
  C   C591      1.0  0.55638  0.20920  0.17363  1.0000
  C   C592      1.0  0.55622  0.20284  0.15819  1.0000
  C   C593      1.0  0.53313  0.19884  0.15124  1.0000
  C   C594      1.0  0.66026  0.09537  0.23329  1.0000
  C   C595      1.0  0.53318  0.21176  0.18196  1.0000
  H   H581      1.0  0.57387  0.20092  0.15161  1.0000
  H   H582      1.0  0.53308  0.21685  0.19388  1.0000
  C   C596      1.0  0.66804  0.07943  0.10301  1.0000
  C   C597      1.0  0.64227  0.07968  0.10724  1.0000
  C   C598      1.0  0.63252  0.09698  0.11775  1.0000
  C   C599      1.0  0.64834  0.11426  0.12422  1.0000
  C   C600      1.0  0.67427  0.11341  0.12047  1.0000
  C   C601      1.0  0.68403  0.09606  0.10993  1.0000
  H   H583      1.0  0.62969  0.06709  0.10205  1.0000
  H   H584      1.0  0.61246  0.09738  0.12060  1.0000
  H   H585      1.0  0.68671  0.12652  0.12536  1.0000
  H   H586      1.0  0.70403  0.09597  0.10682  1.0000
  H   H587      1.0  0.97315  0.41290  0.08534  1.0000
  S   S213      1.0  0.99714  0.38924  0.05739  1.0000
  C   C602      1.0  0.66225  0.29495  0.17531  1.0000
  H   H588      1.0  0.64953  0.28305  0.19866  1.0000
  H   H589      1.0  0.78494  0.31851  0.21127  1.0000
  C   C603      1.0  0.67454  0.30785  0.14830  1.0000
  C   C604      1.0  0.89117  0.40086  0.23563  1.0000
  N   N47       1.0  0.92872  0.31154  0.10331  1.0000
  C   C605      1.0  0.93507  0.30612  0.11833  1.0000
  C   C606      1.0  0.90418  0.31687  0.09986  1.0000
  C   C607      1.0  0.91663  0.30629  0.13040  1.0000
  C   C608      1.0  0.88530  0.31728  0.11164  1.0000
  C   C609      1.0  0.89162  0.31204  0.12700  1.0000
  C   C610      1.0  0.94810  0.31138  0.09070  1.0000
  H   H590      1.0  0.95460  0.30241  0.12112  1.0000
  C   C611      1.0  0.84736  0.42387  0.24677  1.0000
  H   H591      1.0  0.92181  0.30282  0.14234  1.0000
  H   H592      1.0  0.86125  0.40503  0.20325  1.0000
  H   H593      1.0  0.87727  0.31337  0.13625  1.0000
  C   C612      1.0  0.97057  0.49497  0.06463  1.0000
  C   C613      1.0  0.65364  0.15739  0.24447  1.0000
  H   H594      1.0  0.96752  0.31069  0.09515  1.0000
  N   N48       1.0  0.64590  0.12322  0.07827  1.0000
  C   C614      1.0  0.62806  0.13500  0.08727  1.0000
  C   C615      1.0  0.63918  0.10426  0.06929  1.0000
  C   C616      1.0  0.60281  0.12742  0.08771  1.0000
  C   C617      1.0  0.61410  0.09637  0.06937  1.0000
  C   C618      1.0  0.59586  0.10792  0.07870  1.0000
  C   C619      1.0  0.67219  0.13160  0.07771  1.0000
  H   H595      1.0  0.63342  0.14975  0.09461  1.0000
  H   H596      1.0  0.65339  0.09468  0.06232  1.0000
  H   H597      1.0  0.58890  0.13633  0.09520  1.0000
  H   H598      1.0  0.60881  0.08118  0.06238  1.0000
  H   H599      1.0  0.57645  0.10153  0.07898  1.0000
  H   H600      1.0  0.67688  0.14008  0.08866  1.0000
  H   H601      1.0  0.68540  0.11529  0.07640  1.0000
  H   H602      1.0  0.67551  0.14565  0.06783  1.0000
  H   H603      1.0  0.59138  0.14094  0.15810  1.0000
  H   H604      1.0  0.51602  0.04978  0.06848  1.0000
  H   H605      1.0  0.98350  0.42604  0.11123  1.0000
  N   N49       1.0  0.97461  0.47614  0.07744  1.0000
  H   H606      1.0  0.63702  0.27732  0.14273  1.0000
  C   C620      1.0  0.50995  0.20090  0.15964  1.0000
  C   C621      1.0  0.83594  0.29152  0.22756  1.0000
  N   N50       1.0  0.65868  0.29329  0.15983  1.0000
  H   H607      1.0  0.83948  0.43150  0.22271  1.0000
  C   C622      1.0  0.62659  0.26785  0.18157  1.0000
  C   C623      1.0  0.54411  0.02470  0.05897  1.0000
  H   H608      1.0  0.68018  0.29610  0.13849  1.0000
  H   H609      1.0  0.88530  0.42855  0.20354  1.0000
  H   H610      1.0  0.90799  0.39115  0.23140  1.0000
  S   S214      1.0  0.62129  0.01817  0.08718  1.0000
  C   C624      1.0  0.56332  0.14636  0.17643  1.0000
  C   C625      1.0  0.81278  0.48071  0.16560  1.0000
  C   C626      1.0  0.63955  0.27902  0.15500  1.0000
  N   N51       1.0  0.87421  0.41123  0.22549  1.0000
  H   H611      1.0  0.66412  0.32487  0.14384  1.0000
  H   H612      1.0  0.53324  0.19384  0.13931  1.0000
  C   C627      1.0  0.97198  0.45107  0.07509  1.0000
  H   H613      1.0  0.83001  0.43265  0.25098  1.0000
  H   H614      1.0  0.86605  0.32274  0.10900  1.0000
  H   H615      1.0  0.67763  0.30598  0.17915  1.0000
  C   C628      1.0  0.98084  0.44021  0.10182  1.0000
  H   H616      1.0  0.72984  0.07874  0.24106  1.0000
  H   H617      1.0  0.77397  0.32613  0.23870  1.0000
  H   H618      1.0  0.53129  0.15144  0.19199  1.0000
  H   H619      1.0  0.89921  0.32159  0.08799  1.0000
  H   H620      1.0  0.94564  0.29485  0.08368  1.0000
  H   H621      1.0  0.96808  0.44509  0.06366  1.0000
  C   C629      1.0  0.82612  0.29503  0.20012  1.0000
  N   N52       1.0  0.81995  0.30001  0.21632  1.0000
  C   C630      1.0  0.97501  0.43277  0.08723  1.0000
  C   C631      1.0  0.51955  0.03161  0.06374  1.0000
  C   C632      1.0  0.51008  0.20749  0.17505  1.0000
  C   C633      1.0  0.85276  0.42306  0.23083  1.0000
  C   C634      1.0  0.57142  0.14059  0.16150  1.0000
  C   C635      1.0  0.55367  0.13496  0.15080  1.0000
  H   H622      1.0  0.57690  0.15166  0.18467  1.0000
  H   H623      1.0  0.94688  0.32903  0.08314  1.0000
  H   H624      1.0  0.97942  0.48851  0.05364  1.0000
  C   C636      1.0  0.51865  0.00443  0.10029  1.0000
  C   C637      1.0  0.98345  0.46582  0.10413  1.0000
  H   H625      1.0  0.83699  0.49250  0.20011  1.0000
  C   C638      1.0  0.98008  0.48367  0.09176  1.0000
  C   C639      1.0  0.79140  0.31630  0.23569  1.0000
  H   H626      1.0  0.64091  0.10112  0.23126  1.0000
  C   C640      1.0  0.67781  0.09426  0.22087  1.0000
  H   H627      1.0  0.81595  0.30831  0.19207  1.0000
  C   C641      1.0  0.87891  0.40997  0.20876  1.0000
  H   H628      1.0  0.55987  0.13089  0.13911  1.0000
  H   H629      1.0  0.85363  0.28225  0.22445  1.0000
  N   N53       1.0  0.52017  0.14087  0.16990  1.0000
  H   H630      1.0  0.95005  0.49811  0.06313  1.0000
  H   H631      1.0  0.62586  0.01628  0.01044  1.0000
  C   C642      1.0  0.66818  0.09048  0.24841  1.0000
  C   C643      1.0  0.70294  0.08808  0.22367  1.0000
  H   H632      1.0  0.55515  0.02208  0.10003  1.0000
  C   C644      1.0  0.84906  0.35463  0.24587  1.0000
  C   C645      1.0  0.88720  0.33070  0.25108  1.0000
  C   C646      1.0  0.82888  0.49611  0.18891  1.0000
  H   H633      1.0  0.71682  0.08804  0.21409  1.0000
  H   H634      1.0  0.51420  0.13129  0.14676  1.0000
  C   C647      1.0  0.83009  0.29535  0.24317  1.0000
  H   H635      1.0  0.98842  0.47185  0.11535  1.0000
  H   H636      1.0  0.50836  0.02066  0.10443  1.0000
  C   C648      1.0  0.69681  0.14677  0.25040  1.0000
  H   H637      1.0  0.63419  0.16042  0.24829  1.0000
  N   N54       1.0  0.69294  0.08477  0.25106  1.0000
  C   C649      1.0  0.54483  0.00525  0.09782  1.0000
  C   C650      1.0  0.54850  0.00126  0.05279  1.0000
  C   C651      1.0  0.88643  0.40146  0.25163  1.0000
  Fe  Fe109     1.0  0.54058  0.08059  0.40942  1.0000
  S   S215      1.0  0.56081  0.04335  0.40863  1.0000
  Fe  Fe110     1.0  0.54660  0.13412  0.39733  1.0000
  S   S216      1.0  0.50948  0.14639  0.40889  1.0000
  S   S217      1.0  0.57101  0.15703  0.37941  1.0000
  Fe  Fe111     1.0  0.52166  0.12200  0.42995  1.0000
  H   H638      1.0  0.85989  0.41233  0.26961  1.0000
  S   S218      1.0  0.55996  0.11312  0.41896  1.0000
  S   S219      1.0  0.52953  0.10069  0.38731  1.0000
  Fe  Fe112     1.0  0.73842  0.14962  0.30913  1.0000
  S   S220      1.0  0.69699  0.15881  0.31340  1.0000
  S   S221      1.0  0.76342  0.18506  0.30601  1.0000
  Fe  Fe113     1.0  0.72608  0.09297  0.30518  1.0000
  S   S222      1.0  0.68449  0.09934  0.30911  1.0000
  S   S223      1.0  0.73938  0.05511  0.29621  1.0000
  Fe  Fe114     1.0  0.69020  0.13456  0.29359  1.0000
  S   S224      1.0  0.66188  0.14465  0.27515  1.0000
  Fe  Fe115     1.0  0.69518  0.12285  0.32847  1.0000
  S   S225      1.0  0.67702  0.11615  0.35277  1.0000
  S   S226      1.0  0.73122  0.12715  0.28848  1.0000
  S   S227      1.0  0.73712  0.11468  0.32555  1.0000
  Fe  Fe116     1.0  0.94019  0.47414  0.41158  1.0000
  S   S228      1.0  0.90532  0.45379  0.42043  1.0000
  S   S229      1.0  0.97588  0.45105  0.41160  1.0000
  C   C652      1.0  0.85884  0.42749  0.45716  1.0000
  S   S230      1.0  0.92415  0.48963  0.38941  1.0000
  Fe  Fe117     1.0  0.88851  0.47130  0.39890  1.0000
  S   S231      1.0  0.86634  0.45088  0.38146  1.0000
  S   S232      1.0  0.51027  0.12994  0.45536  1.0000
  Fe  Fe118     1.0  0.88171  0.27904  0.31657  1.0000
  S   S233      1.0  0.86233  0.31676  0.31872  1.0000
  S   S234      1.0  0.86479  0.24008  0.32379  1.0000
  Fe  Fe119     1.0  0.93266  0.30405  0.30544  1.0000
  S   S235      1.0  0.91607  0.34323  0.30620  1.0000
  S   S236      1.0  0.97321  0.29901  0.29569  1.0000
  Fe  Fe120     1.0  0.89790  0.32979  0.32919  1.0000
  S   S237      1.0  0.90454  0.34905  0.35173  1.0000
  Fe  Fe121     1.0  0.88220  0.32710  0.29554  1.0000
  S   S238      1.0  0.85997  0.34784  0.27653  1.0000
  S   S239      1.0  0.91614  0.29107  0.32879  1.0000
  S   S240      1.0  0.89991  0.28882  0.29299  1.0000
  H   H639      1.0  0.63620  0.03464  0.38445  1.0000
  C   C653      1.0  0.93260  0.22670  0.28423  1.0000
  C   C654      1.0  0.82372  0.46264  0.42572  1.0000
  H   H640      1.0  0.89924  0.39211  0.25968  1.0000
  H   H641      1.0  0.96560  0.25011  0.28416  1.0000
  C   C655      1.0  0.97062  0.38969  0.36990  1.0000
  C   C656      1.0  0.62534  0.07751  0.34575  1.0000
  C   C657      1.0  0.95178  0.23904  0.30738  1.0000
  C   C658      1.0  0.89267  0.37705  0.35988  1.0000
  C   C659      1.0  0.90166  0.38349  0.37419  1.0000
  C   C660      1.0  0.89420  0.40623  0.38075  1.0000
  C   C661      1.0  0.87692  0.42246  0.37331  1.0000
  C   C662      1.0  0.86752  0.41585  0.35915  1.0000
  C   C663      1.0  0.87556  0.39341  0.35237  1.0000
  H   H642      1.0  0.91482  0.37094  0.38014  1.0000
  H   H643      1.0  0.90156  0.41098  0.39166  1.0000
  H   H644      1.0  0.85405  0.42822  0.35334  1.0000
  H   H645      1.0  0.86840  0.38870  0.34139  1.0000
  C   C664      1.0  0.60302  0.09172  0.34515  1.0000
  C   C665      1.0  0.71955  0.01995  0.31860  1.0000
  H   H646      1.0  0.86317  0.40154  0.43186  1.0000
  H   H647      1.0  0.72132  0.08334  0.26799  1.0000
  C   C666      1.0  0.79191  0.19974  0.31107  1.0000
  C   C667      1.0  0.80904  0.18791  0.32115  1.0000
  C   C668      1.0  0.83112  0.20056  0.32489  1.0000
  C   C669      1.0  0.83645  0.22519  0.31867  1.0000
  C   C670      1.0  0.81931  0.23700  0.30860  1.0000
  C   C671      1.0  0.79724  0.22436  0.30488  1.0000
  H   H648      1.0  0.80537  0.16899  0.32600  1.0000
  H   H649      1.0  0.84415  0.19116  0.33269  1.0000
  H   H650      1.0  0.82301  0.25590  0.30372  1.0000
  H   H651      1.0  0.78418  0.23377  0.29709  1.0000
  C   C672      1.0  0.73001  0.02439  0.30358  1.0000
  C   C673      1.0  0.93392  0.22597  0.33329  1.0000
  H   H652      1.0  0.90137  0.20267  0.31672  1.0000
  C   C674      1.0  0.51370  0.02458  0.40501  1.0000
  C   C675      1.0  0.52975  0.03994  0.45002  1.0000
  H   H653      1.0  0.71639  0.03558  0.32592  1.0000
  H   H654      1.0  0.96631  0.24945  0.31265  1.0000
  C   C676      1.0  0.60056  0.14565  0.37213  1.0000
  C   C677      1.0  0.61028  0.15509  0.35755  1.0000
  C   C678      1.0  0.63359  0.14622  0.35138  1.0000
  C   C679      1.0  0.64766  0.12819  0.35991  1.0000
  C   C680      1.0  0.63820  0.11916  0.37461  1.0000
  C   C681      1.0  0.61467  0.12761  0.38063  1.0000
  H   H655      1.0  0.59954  0.16914  0.35093  1.0000
  H   H656      1.0  0.64064  0.15335  0.34005  1.0000
  H   H657      1.0  0.64901  0.10534  0.38135  1.0000
  H   H658      1.0  0.60757  0.12040  0.39192  1.0000
  C   C682      1.0  0.52197  0.12415  0.47444  1.0000
  C   C683      1.0  0.54642  0.11498  0.47708  1.0000
  C   C684      1.0  0.00128  0.46869  0.40359  1.0000
  H   H659      1.0  0.55910  0.11138  0.46731  1.0000
  C   C685      1.0  0.69618  0.21175  0.33729  1.0000
  H   H660      1.0  0.64753  0.05123  0.35938  1.0000
  H   H661      1.0  0.95970  0.45013  0.37905  1.0000
  C   C686      1.0  0.97166  0.41154  0.37802  1.0000
  N   N55       1.0  0.84733  0.43388  0.44228  1.0000
  C   C687      1.0  0.84187  0.42469  0.41578  1.0000
  C   C688      1.0  0.51400  0.05869  0.45598  1.0000
  H   H662      1.0  0.75333  0.14624  0.35352  1.0000
  H   H663      1.0  0.74310  0.15861  0.37182  1.0000
  C   C689      1.0  0.82787  0.44694  0.41350  1.0000
  N   N56       1.0  0.61229  0.05969  0.37099  1.0000
  C   C690      1.0  0.85164  0.41847  0.43032  1.0000
  C   C691      1.0  0.58529  0.08961  0.35754  1.0000
  H   H664      1.0  0.94041  0.20724  0.33810  1.0000
  H   H665      1.0  0.83072  0.46838  0.44946  1.0000
  H   H666      1.0  0.93188  0.22739  0.27170  1.0000
  C   C692      1.0  0.51904  0.01881  0.44420  1.0000
  H   H667      1.0  0.57658  0.07198  0.38011  1.0000
  C   C693      1.0  0.95894  0.43334  0.37256  1.0000
  H   H668      1.0  0.92643  0.45591  0.34198  1.0000
  C   C694      1.0  0.83360  0.45576  0.44013  1.0000
  C   C695      1.0  0.68388  0.19579  0.34853  1.0000
  H   H669      1.0  0.73176  0.22037  0.32512  1.0000
  H   H670      1.0  0.84580  0.41280  0.40617  1.0000
  N   N57       1.0  0.94555  0.43340  0.35937  1.0000
  H   H671      1.0  0.68789  0.16409  0.36489  1.0000
  C   C696      1.0  0.86423  0.41277  0.25721  1.0000
  C   C697      1.0  0.95151  0.23946  0.29120  1.0000
  H   H672      1.0  0.72456  0.13542  0.36295  1.0000
  C   C698      1.0  0.50596  0.12887  0.48741  1.0000
  H   H673      1.0  0.66379  0.19808  0.35116  1.0000
  C   C699      1.0  0.55473  0.11100  0.49239  1.0000
  H   H674      1.0  0.52244  0.07534  0.46017  1.0000
  C   C700      1.0  0.69758  0.17646  0.35620  1.0000
  C   C701      1.0  0.73504  0.18880  0.34187  1.0000
  C   C702      1.0  0.94427  0.41199  0.35140  1.0000
  H   H675      1.0  0.98666  0.28949  0.32829  1.0000
  H   H676      1.0  0.75504  0.18620  0.33910  1.0000
  H   H677      1.0  0.69693  0.06007  0.27112  1.0000
  C   C703      1.0  0.95697  0.38991  0.35645  1.0000
  H   H678      1.0  0.95529  0.37279  0.35031  1.0000
  N   N58       1.0  0.72269  0.17281  0.35256  1.0000
  H   H679      1.0  0.57382  0.10428  0.49418  1.0000
  C   C704      1.0  0.59021  0.07328  0.37040  1.0000
  H   H680      1.0  0.81344  0.48033  0.42394  1.0000
  H   H681      1.0  0.56830  0.10127  0.35747  1.0000
  C   C705      1.0  0.72196  0.20838  0.33400  1.0000
  Fe  Fe122     1.0  0.89562  0.48987  0.43203  1.0000
  H   H682      1.0  0.55011  0.04208  0.44952  1.0000
  H   H683      1.0  0.68573  0.22653  0.33102  1.0000
  C   C706      1.0  0.93145  0.45617  0.35430  1.0000
  H   H684      1.0  0.91367  0.45763  0.36149  1.0000
  C   C707      1.0  0.61695  0.04318  0.38481  1.0000
  H   H685      1.0  0.71094  0.14168  0.25868  1.0000
  C   C708      1.0  0.73665  0.15233  0.36065  1.0000
  H   H686      1.0  0.98192  0.41162  0.38863  1.0000
  H   H687      1.0  0.93275  0.41155  0.34134  1.0000
  H   H688      1.0  0.85045  0.43879  0.46654  1.0000
  C   C709      1.0  0.53937  0.01910  0.40670  1.0000
  H   H689      1.0  0.97996  0.37248  0.37415  1.0000
  C   C710      1.0  0.91561  0.21297  0.30960  1.0000
  C   C711      1.0  0.70081  0.07993  0.26701  1.0000
  C   C712      1.0  0.91453  0.21330  0.29347  1.0000
  H   H690      1.0  0.91458  0.22996  0.33815  1.0000
  H   H691      1.0  0.90035  0.32230  0.25920  1.0000
  H   H692      1.0  0.59988  0.10497  0.33535  1.0000
  C   C713      1.0  0.73419  0.00371  0.29430  1.0000
  H   H693      1.0  0.60289  0.02774  0.38594  1.0000
  H   H694      1.0  0.89951  0.20354  0.28824  1.0000
  H   H695      1.0  0.87936  0.43178  0.45614  1.0000
  H   H696      1.0  0.94647  0.24073  0.33720  1.0000
  H   H697      1.0  0.94278  0.47336  0.35551  1.0000
  C   C714      1.0  0.87468  0.48848  0.48891  1.0000
  N   N59       1.0  0.93373  0.22620  0.31634  1.0000
  C   C715      1.0  0.62976  0.06156  0.35886  1.0000
  H   H698      1.0  0.63967  0.07967  0.33643  1.0000
  H   H699      1.0  0.85626  0.40722  0.46075  1.0000
  H   H700      1.0  0.82086  0.45231  0.40213  1.0000
  S   S241      1.0  0.87782  0.48779  0.45688  1.0000
  H   H701      1.0  0.50719  0.04392  0.40370  1.0000
  C   C716      1.0  0.86583  0.34367  0.25657  1.0000
  H   H702      1.0  0.80330  0.31146  0.25927  1.0000
  C   C717      1.0  0.67171  0.15055  0.25546  1.0000
  C   C718      1.0  0.89027  0.49282  0.47541  1.0000
  H   H703      1.0  0.85553  0.48223  0.48788  1.0000
  H   H704      1.0  0.69065  0.09280  0.27486  1.0000
  C   C719      1.0  0.99756  0.49362  0.39790  1.0000
  H   H705      1.0  0.65466  0.09238  0.25806  1.0000
  H   H706      1.0  0.61492  0.05412  0.39536  1.0000
  S   S242      1.0  0.50336  0.08768  0.42156  1.0000
  H   H707      1.0  0.74231  0.00689  0.28268  1.0000
  H   H708      1.0  0.53102  0.00426  0.43938  1.0000
  H   H709      1.0  0.84313  0.28925  0.25204  1.0000
  H   H710      1.0  0.00008  0.47972  0.43815  1.0000
  Fe  Fe123     1.0  0.69909  0.12450  0.64851  1.0000
  S   S243      1.0  0.73514  0.10169  0.65154  1.0000
  S   S244      1.0  0.68266  0.12163  0.62466  1.0000
  Fe  Fe124     1.0  0.69646  0.13637  0.68283  1.0000
  S   S245      1.0  0.73099  0.11329  0.68801  1.0000
  S   S246      1.0  0.67637  0.15912  0.70117  1.0000
  Fe  Fe125     1.0  0.74765  0.13308  0.66612  1.0000
  S   S247      1.0  0.78767  0.14846  0.66882  1.0000
  Fe  Fe126     1.0  0.71530  0.08434  0.67298  1.0000
  S   S248      1.0  0.70820  0.04273  0.68066  1.0000
  S   S249      1.0  0.71321  0.15707  0.66132  1.0000
  S   S250      1.0  0.67913  0.10631  0.66959  1.0000
  Fe  Fe127     1.0  0.55381  0.12721  0.58266  1.0000
  S   S251      1.0  0.53134  0.09688  0.59589  1.0000
  S   S252      1.0  0.57574  0.15269  0.59738  1.0000
  Fe  Fe128     1.0  0.53853  0.11021  0.55041  1.0000
  S   S253      1.0  0.55087  0.11115  0.52439  1.0000
  H   H711      1.0  0.60012  0.16646  0.62475  1.0000
  Fe  Fe129     1.0  0.54740  0.07220  0.57782  1.0000
  S   S254      1.0  0.56684  0.03526  0.58370  1.0000
  S   S255      1.0  0.52246  0.13908  0.56659  1.0000
  S   S256      1.0  0.57169  0.10177  0.56561  1.0000
  Fe  Fe130     1.0  0.87430  0.27916  0.66598  1.0000
  S   S257      1.0  0.86375  0.31167  0.68073  1.0000
  S   S258      1.0  0.83938  0.25780  0.65873  1.0000
  Fe  Fe131     1.0  0.93042  0.29655  0.66263  1.0000
  S   S259      1.0  0.92251  0.32917  0.67739  1.0000
  S   S260      1.0  0.96986  0.30105  0.65115  1.0000
  Fe  Fe132     1.0  0.89957  0.30219  0.69284  1.0000
  S   S261      1.0  0.90580  0.29984  0.71866  1.0000
  Fe  Fe133     1.0  0.88785  0.33569  0.66372  1.0000
  S   S262      1.0  0.87800  0.37614  0.65571  1.0000
  S   S263      1.0  0.90949  0.26843  0.67906  1.0000
  S   S264      1.0  0.89627  0.30435  0.64814  1.0000
  Fe  Fe134     1.0  0.90213  0.46924  0.58055  1.0000
  S   S265      1.0  0.89788  0.42727  0.58775  1.0000
  S   S266      1.0  0.93499  0.47673  0.56364  1.0000
  H   H712      1.0  0.80931  0.32119  0.74802  1.0000
  C   C720      1.0  0.76795  0.15014  0.72535  1.0000
  C   C721      1.0  0.88443  0.39007  0.63684  1.0000
  C   C722      1.0  0.88209  0.41638  0.63427  1.0000
  C   C723      1.0  0.88638  0.42814  0.61936  1.0000
  C   C724      1.0  0.89251  0.41357  0.60678  1.0000
  C   C725      1.0  0.89466  0.38721  0.60933  1.0000
  C   C726      1.0  0.89099  0.37552  0.62431  1.0000
  H   H713      1.0  0.87692  0.42780  0.64388  1.0000
  H   H714      1.0  0.88459  0.44843  0.61754  1.0000
  H   H715      1.0  0.89947  0.37580  0.59967  1.0000
  H   H716      1.0  0.89277  0.35524  0.62609  1.0000
  C   C727      1.0  0.85906  0.35467  0.73471  1.0000
  C   C728      1.0  0.87244  0.33884  0.72471  1.0000
  C   C729      1.0  0.89035  0.32161  0.73059  1.0000
  H   H717      1.0  0.84111  0.29413  0.73506  1.0000
  H   H718      1.0  0.84504  0.36777  0.73011  1.0000
  H   H719      1.0  0.86865  0.33974  0.71250  1.0000
  C   C730      1.0  0.74025  0.18211  0.73551  1.0000
  H   H720      1.0  0.64162  0.15468  0.63579  1.0000
  C   C731      1.0  0.53872  0.11572  0.50535  1.0000
  H   H721      1.0  0.83572  0.28885  0.63042  1.0000
  H   H722      1.0  0.82834  0.38179  0.63038  1.0000
  H   H723      1.0  0.98419  0.25743  0.67165  1.0000
  C   C732      1.0  0.98302  0.46847  0.53144  1.0000
  C   C733      1.0  0.80119  0.17935  0.66647  1.0000
  C   C734      1.0  0.82556  0.18308  0.67181  1.0000
  C   C735      1.0  0.83734  0.20693  0.66990  1.0000
  C   C736      1.0  0.82504  0.22745  0.66240  1.0000
  C   C737      1.0  0.80055  0.22376  0.65720  1.0000
  C   C738      1.0  0.78864  0.20001  0.65930  1.0000
  H   H724      1.0  0.83558  0.16731  0.67732  1.0000
  H   H725      1.0  0.85618  0.20924  0.67391  1.0000
  H   H726      1.0  0.79079  0.23934  0.65132  1.0000
  H   H727      1.0  0.77003  0.19755  0.65498  1.0000
  C   C739      1.0  0.68365  0.15448  0.72089  1.0000
  C   C740      1.0  0.69727  0.13329  0.72641  1.0000
  H   H728      1.0  0.96441  0.27987  0.71077  1.0000
  H   H729      1.0  0.82161  0.37873  0.65763  1.0000
  H   H730      1.0  0.62112  0.14840  0.71817  1.0000
  C   C741      1.0  0.67494  0.17216  0.73137  1.0000
  H   H731      1.0  0.70389  0.11942  0.71851  1.0000
  C   C742      1.0  0.51904  0.01645  0.58652  1.0000
  C   C743      1.0  0.83396  0.30929  0.63026  1.0000
  H   H732      1.0  0.66432  0.18859  0.72720  1.0000
  H   H733      1.0  0.98501  0.35113  0.59688  1.0000
  H   H734      1.0  0.96445  0.47473  0.52690  1.0000
  N   N60       1.0  0.82450  0.34676  0.64373  1.0000
  H   H735      1.0  0.74129  0.02910  0.65414  1.0000
  H   H736      1.0  0.84177  0.36198  0.60624  1.0000
  C   C744      1.0  0.65256  0.13032  0.61764  1.0000
  C   C745      1.0  0.64508  0.12031  0.60388  1.0000
  C   C746      1.0  0.62132  0.12639  0.59784  1.0000
  C   C747      1.0  0.60498  0.14311  0.60530  1.0000
  C   C748      1.0  0.61252  0.15331  0.61898  1.0000
  C   C749      1.0  0.63604  0.14668  0.62527  1.0000
  H   H737      1.0  0.65775  0.10769  0.59788  1.0000
  H   H738      1.0  0.61589  0.11853  0.58725  1.0000
  C   C750      1.0  0.96939  0.38875  0.59811  1.0000
  C   C751      1.0  0.82956  0.36136  0.63039  1.0000
  H   H739      1.0  0.79519  0.35727  0.65958  1.0000
  H   H740      1.0  0.75246  0.20756  0.68955  1.0000
  H   H741      1.0  0.53900  0.19537  0.52224  1.0000
  C   C752      1.0  0.71332  0.01439  0.67093  1.0000
  C   C753      1.0  0.75630  0.16136  0.73801  1.0000
  H   H742      1.0  0.72250  0.20669  0.71846  1.0000
  C   C754      1.0  0.83953  0.32404  0.61667  1.0000
  C   C755      1.0  0.70207  0.12982  0.74228  1.0000
  C   C756      1.0  0.82631  0.32103  0.64374  1.0000
  H   H743      1.0  0.51260  0.03575  0.58744  1.0000
  C   C757      1.0  0.83720  0.35025  0.61668  1.0000
  H   H744      1.0  0.57192  0.01579  0.55001  1.0000
  C   C758      1.0  0.96792  0.35724  0.61947  1.0000
  C   C759      1.0  0.97518  0.36443  0.60411  1.0000
  N   N61       1.0  0.64731  0.06332  0.63257  1.0000
  C   C760      1.0  0.63210  0.08103  0.63924  1.0000
  C   C761      1.0  0.64032  0.05273  0.61939  1.0000
  C   C762      1.0  0.60884  0.08789  0.63302  1.0000
  C   C763      1.0  0.61713  0.05910  0.61288  1.0000
  C   C764      1.0  0.60131  0.07675  0.61980  1.0000
  C   C765      1.0  0.67187  0.05670  0.63906  1.0000
  H   H745      1.0  0.63824  0.09050  0.64915  1.0000
  H   H746      1.0  0.65279  0.03945  0.61375  1.0000
  H   H747      1.0  0.59717  0.10247  0.63807  1.0000
  H   H748      1.0  0.61157  0.05080  0.60239  1.0000
  H   H749      1.0  0.58361  0.08240  0.61462  1.0000
  H   H750      1.0  0.67163  0.05899  0.65176  1.0000
  H   H751      1.0  0.67716  0.03672  0.63734  1.0000
  H   H752      1.0  0.68675  0.06910  0.63342  1.0000
  C   C766      1.0  0.81602  0.35857  0.65795  1.0000
  H   H753      1.0  0.82511  0.34917  0.66815  1.0000
  H   H754      1.0  0.95151  0.42435  0.60285  1.0000
  S   S267      1.0  0.51531  0.07860  0.56189  1.0000
  C   C767      1.0  0.88352  0.49239  0.50380  1.0000
  C   C768      1.0  0.83833  0.29259  0.74758  1.0000
  C   C769      1.0  0.94991  0.39786  0.62287  1.0000
  H   H755      1.0  0.97446  0.39449  0.58613  1.0000
  C   C770      1.0  0.67957  0.16859  0.74725  1.0000
  H   H756      1.0  0.52944  0.16345  0.52819  1.0000
  H   H757      1.0  0.98134  0.47073  0.57664  1.0000
  H   H758      1.0  0.99242  0.45686  0.52258  1.0000
  H   H759      1.0  0.82204  0.30938  0.65426  1.0000
  H   H760      1.0  0.93950  0.41092  0.62998  1.0000
  H   H761      1.0  0.84574  0.31514  0.60619  1.0000
  C   C771      1.0  0.74193  0.18978  0.69224  1.0000
  N   N62       1.0  0.56424  0.17431  0.53678  1.0000
  C   C772      1.0  0.55935  0.18690  0.54993  1.0000
  C   C773      1.0  0.58544  0.15946  0.53541  1.0000
  C   C774      1.0  0.57603  0.18500  0.56207  1.0000
  C   C775      1.0  0.60250  0.15710  0.54734  1.0000
  C   C776      1.0  0.59772  0.16999  0.56074  1.0000
  C   C777      1.0  0.54579  0.17568  0.52458  1.0000
  H   H762      1.0  0.54215  0.19802  0.55126  1.0000
  H   H763      1.0  0.58900  0.14888  0.52518  1.0000
  H   H764      1.0  0.57181  0.19442  0.57269  1.0000
  H   H765      1.0  0.61901  0.14490  0.54636  1.0000
  H   H766      1.0  0.61043  0.16788  0.57029  1.0000
  C   C778      1.0  0.61888  0.14927  0.73066  1.0000
  C   C779      1.0  0.00035  0.47768  0.57576  1.0000
  H   H767      1.0  0.55704  0.03154  0.53342  1.0000
  H   H768      1.0  0.90906  0.30754  0.75108  1.0000
  N   N63       1.0  0.74685  0.17974  0.70799  1.0000
  C   C780      1.0  0.76317  0.15978  0.71033  1.0000
  C   C781      1.0  0.73561  0.19103  0.72033  1.0000
  N   N64       1.0  0.95536  0.37387  0.62859  1.0000
  H   H769      1.0  0.97962  0.45660  0.54232  1.0000
  C   C782      1.0  0.55360  0.02094  0.54477  1.0000
  H   H770      1.0  0.72134  0.19324  0.69095  1.0000
  S   S268      1.0  0.87566  0.49418  0.56624  1.0000
  C   C783      1.0  0.86344  0.35342  0.75064  1.0000
  H   H771      1.0  0.93739  0.38055  0.65074  1.0000
  H   H772      1.0  0.96305  0.28864  0.69037  1.0000
  C   C784      1.0  0.94720  0.36538  0.64442  1.0000
  C   C785      1.0  0.89517  0.32075  0.74646  1.0000
  H   H773      1.0  0.78045  0.13397  0.72712  1.0000
  C   C786      1.0  0.73114  0.01250  0.65864  1.0000
  C   C787      1.0  0.96968  0.29463  0.70158  1.0000
  H   H774      1.0  0.75658  0.00188  0.69404  1.0000
  C   C788      1.0  0.54487  0.01091  0.58516  1.0000
  C   C789      1.0  0.95671  0.40561  0.60753  1.0000
  H   H775      1.0  0.77240  0.15102  0.70056  1.0000
  H   H776      1.0  0.74801  0.17629  0.68349  1.0000
  H   H777      1.0  0.73080  0.19067  0.74529  1.0000
  H   H778      1.0  0.95931  0.31214  0.70460  1.0000
  H   H779      1.0  0.96369  0.35854  0.65108  1.0000
  H   H780      1.0  0.59698  0.18382  0.72959  1.0000
  H   H781      1.0  0.87118  0.48910  0.51399  1.0000
  H   H782      1.0  0.64103  0.11578  0.73539  1.0000
  H   H783      1.0  0.93376  0.34957  0.64408  1.0000
  H   H784      1.0  0.97215  0.33817  0.62404  1.0000
  H   H785      1.0  0.55399  0.16893  0.51350  1.0000
  H   H786      1.0  0.54376  0.03378  0.55275  1.0000
  C   C790      1.0  0.51417  0.12458  0.50273  1.0000
  C   C791      1.0  0.63023  0.13091  0.74048  1.0000
  C   C792      1.0  0.60557  0.16924  0.73706  1.0000
  H   H787      1.0  0.71268  0.11339  0.74645  1.0000
  S   S269      1.0  0.91249  0.49960  0.59609  1.0000
  C   C793      1.0  0.99930  0.28922  0.65782  1.0000
  H   H788      1.0  0.86818  0.26513  0.75084  1.0000
  H   H789      1.0  0.50510  0.01278  0.55356  1.0000
  H   H790      1.0  0.75930  0.15376  0.74974  1.0000
  N   N65       1.0  0.99847  0.49016  0.53451  1.0000
  C   C794      1.0  0.00110  0.26757  0.66779  1.0000
  H   H791      1.0  0.99302  0.33250  0.68577  1.0000
  N   N66       1.0  0.99699  0.29896  0.70034  1.0000
  Fe  Fe135     1.0  0.68117  0.16593  0.79097  1.0000
  S   S270      1.0  0.66402  0.20402  0.78553  1.0000
  S   S271      1.0  0.70019  0.14253  0.77253  1.0000
  Fe  Fe136     1.0  0.66492  0.16580  0.82522  1.0000
  S   S272      1.0  0.64656  0.20438  0.82188  1.0000
  S   S273      1.0  0.65966  0.14791  0.84981  1.0000
  Fe  Fe137     1.0  0.63065  0.18986  0.80055  1.0000
  S   S274      1.0  0.59143  0.19480  0.79061  1.0000
  Fe  Fe138     1.0  0.68170  0.21516  0.80737  1.0000
  S   S275      1.0  0.69879  0.25472  0.80831  1.0000
  S   S276      1.0  0.64694  0.15089  0.80462  1.0000
  S   S277      1.0  0.70098  0.17757  0.81207  1.0000
  S   S278      1.0  0.63313  0.03096  0.91216  1.0000
  Fe  Fe139     1.0  0.66389  0.01720  0.89621  1.0000
  S   S279      1.0  0.69214  0.04161  0.88185  1.0000
  Fe  Fe140     1.0  0.82587  0.33896  0.81696  1.0000
  S   S280      1.0  0.86239  0.33592  0.80271  1.0000
  S   S281      1.0  0.80638  0.30057  0.82208  1.0000
  Fe  Fe141     1.0  0.83157  0.39706  0.81810  1.0000
  S   S282      1.0  0.86694  0.39719  0.80312  1.0000
  S   S283      1.0  0.81926  0.43312  0.82970  1.0000
  Fe  Fe142     1.0  0.84757  0.36967  0.78902  1.0000
  S   S284      1.0  0.84472  0.37227  0.76288  1.0000
  Fe  Fe143     1.0  0.87860  0.36352  0.81844  1.0000
  S   S285      1.0  0.91927  0.36716  0.82597  1.0000
  S   S286      1.0  0.81062  0.37224  0.80276  1.0000
  S   S287      1.0  0.84355  0.36387  0.83391  1.0000
  C   C795      1.0  0.62921  0.01135  0.98571  1.0000
  H   H792      1.0  0.74459  0.24701  0.84807  1.0000
  S   S288      1.0  0.97056  0.34639  0.89121  1.0000
  C   C796      1.0  0.51542  0.18592  0.79840  1.0000
  H   H793      1.0  0.66416  0.24735  0.84931  1.0000
  C   C797      1.0  0.99668  0.48628  0.91580  1.0000
  H   H794      1.0  0.59324  0.18594  0.75826  1.0000
  S   S289      1.0  0.63293  0.00669  0.95406  1.0000
  H   H795      1.0  0.88532  0.33551  0.76871  1.0000
  C   C798      1.0  0.93277  0.36144  0.84434  1.0000
  C   C799      1.0  0.95710  0.37062  0.84648  1.0000
  C   C800      1.0  0.96865  0.36673  0.86083  1.0000
  C   C801      1.0  0.95624  0.35301  0.87315  1.0000
  C   C802      1.0  0.93199  0.34365  0.87099  1.0000
  C   C803      1.0  0.92019  0.34804  0.85672  1.0000
  H   H796      1.0  0.96702  0.38095  0.83696  1.0000
  H   H797      1.0  0.98730  0.37405  0.86229  1.0000
  H   H798      1.0  0.92228  0.33287  0.88040  1.0000
  H   H799      1.0  0.90155  0.34071  0.85523  1.0000
  H   H800      1.0  0.66404  0.20098  0.85465  1.0000
  C   C804      1.0  0.83096  0.46956  0.80606  1.0000
  C   C805      1.0  0.82454  0.46445  0.82177  1.0000
  H   H801      1.0  0.86273  0.39086  0.87380  1.0000
  H   H802      1.0  0.67268  0.18230  0.75518  1.0000
  H   H803      1.0  0.83352  0.45415  0.79850  1.0000
  H   H804      1.0  0.66199  0.05399  0.97119  1.0000
  H   H805      1.0  0.69133  0.28319  0.83637  1.0000
  H   H806      1.0  0.70456  0.17723  0.85572  1.0000
  H   H807      1.0  0.74516  0.20048  0.85237  1.0000
  C   C806      1.0  0.70460  0.19767  0.85387  1.0000
  Fe  Fe144     1.0  0.60880  0.00464  0.90039  1.0000
  C   C807      1.0  0.72974  0.26670  0.81043  1.0000
  C   C808      1.0  0.73337  0.29301  0.80901  1.0000
  C   C809      1.0  0.75683  0.30368  0.81202  1.0000
  C   C810      1.0  0.77702  0.28816  0.81670  1.0000
  C   C811      1.0  0.77355  0.26182  0.81785  1.0000
  C   C812      1.0  0.75020  0.25113  0.81458  1.0000
  H   H808      1.0  0.71771  0.30530  0.80583  1.0000
  H   H809      1.0  0.75901  0.32396  0.81119  1.0000
  H   H810      1.0  0.78900  0.24958  0.82143  1.0000
  H   H811      1.0  0.74784  0.23088  0.81567  1.0000
  C   C813      1.0  0.66751  0.11689  0.85712  1.0000
  C   C814      1.0  0.65282  0.10589  0.86961  1.0000
  C   C815      1.0  0.65958  0.08237  0.87679  1.0000
  C   C816      1.0  0.68166  0.06991  0.87192  1.0000
  C   C817      1.0  0.69639  0.08084  0.85942  1.0000
  C   C818      1.0  0.68919  0.10405  0.85190  1.0000
  H   H812      1.0  0.63610  0.11571  0.87378  1.0000
  H   H813      1.0  0.64799  0.07423  0.88635  1.0000
  H   H814      1.0  0.71357  0.07145  0.85560  1.0000
  H   H815      1.0  0.70087  0.11242  0.84245  1.0000
  C   C819      1.0  0.70390  0.27745  0.84599  1.0000
  C   C820      1.0  0.68982  0.03742  0.94869  1.0000
  C   C821      1.0  0.53965  0.18999  0.79133  1.0000
  C   C822      1.0  0.56143  0.18884  0.80015  1.0000
  C   C823      1.0  0.55869  0.18346  0.81616  1.0000
  C   C824      1.0  0.53442  0.17969  0.82326  1.0000
  H   H816      1.0  0.72293  0.28501  0.84257  1.0000
  H   H817      1.0  0.54149  0.19421  0.77895  1.0000
  H   H818      1.0  0.57520  0.18262  0.82312  1.0000
  H   H819      1.0  0.53255  0.17605  0.83568  1.0000
  C   C825      1.0  0.61520  0.15187  0.76259  1.0000
  H   H820      1.0  0.87593  0.43799  0.82698  1.0000
  N   N67       1.0  0.54388  0.00723  0.93491  1.0000
  C   C826      1.0  0.68179  0.21101  0.85321  1.0000
  H   H821      1.0  0.90392  0.39052  0.88674  1.0000
  H   H822      1.0  0.62643  0.09877  0.77054  1.0000
  C   C827      1.0  0.70401  0.04404  0.92189  1.0000
  C   C828      1.0  0.82120  0.48482  0.83138  1.0000
  H   H823      1.0  0.51786  0.02560  0.89103  1.0000
  H   H824      1.0  0.82966  0.28916  0.79215  1.0000
  H   H825      1.0  0.99674  0.32175  0.86163  1.0000
  C   C829      1.0  0.72732  0.21070  0.85199  1.0000
  H   H826      1.0  0.71562  0.03861  0.91198  1.0000
  H   H827      1.0  0.99754  0.47062  0.96240  1.0000
  H   H828      1.0  0.83732  0.49842  0.78769  1.0000
  C   C830      1.0  0.90200  0.40017  0.87541  1.0000
  C   C831      1.0  0.72684  0.23701  0.84950  1.0000
  H   H829      1.0  0.80075  0.32291  0.79077  1.0000
  N   N68       1.0  0.70434  0.24988  0.84851  1.0000
  H   H830      1.0  0.65879  0.08661  0.93173  1.0000
  C   C832      1.0  0.79811  0.32227  0.77815  1.0000
  H   H831      1.0  0.98033  0.48182  0.92334  1.0000
  H   H832      1.0  0.65936  0.08523  0.96211  1.0000
  N   N69       1.0  0.62864  0.13261  0.75622  1.0000
  C   C833      1.0  0.51264  0.18092  0.81444  1.0000
  H   H833      1.0  0.93694  0.43143  0.84684  1.0000
  H   H834      1.0  0.90543  0.42270  0.82182  1.0000
  N   N70       1.0  0.81752  0.30657  0.77078  1.0000
  C   C834      1.0  0.70525  0.03033  0.93613  1.0000
  H   H835      1.0  0.69695  0.28623  0.85670  1.0000
  C   C835      1.0  0.67207  0.07099  0.93311  1.0000
  H   H836      1.0  0.64836  0.12170  0.77654  1.0000
  C   C836      1.0  0.68730  0.06447  0.92033  1.0000
  C   C837      1.0  0.52242  0.00604  0.89406  1.0000
  H   H837      1.0  0.55751  0.04107  0.92316  1.0000
  C   C838      1.0  0.65733  0.06487  0.96025  1.0000
  H   H838      1.0  0.77908  0.31458  0.77656  1.0000
  H   H839      1.0  0.71778  0.01406  0.93739  1.0000
  H   H840      1.0  0.61356  0.15305  0.77507  1.0000
  H   H841      1.0  0.81629  0.48110  0.84356  1.0000
  C   C839      1.0  0.68199  0.23722  0.85031  1.0000
  H   H842      1.0  0.90494  0.45392  0.82923  1.0000
  C   C840      1.0  0.88171  0.33654  0.75648  1.0000
  H   H843      1.0  0.61260  0.02270  0.98323  1.0000
  C   C841      1.0  0.85043  0.27506  0.77260  1.0000
  N   N71       1.0  0.89771  0.42352  0.84596  1.0000
  C   C842      1.0  0.92042  0.42325  0.85293  1.0000
  C   C843      1.0  0.87715  0.41214  0.85334  1.0000
  S   S290      1.0  0.57148  0.02082  0.89330  1.0000
  C   C844      1.0  0.87898  0.40025  0.86814  1.0000
  C   C845      1.0  0.85357  0.27629  0.75647  1.0000
  C   C846      1.0  0.92285  0.41184  0.86782  1.0000
  H   H844      1.0  0.69059  0.02638  0.95964  1.0000
  H   H845      1.0  0.85923  0.41201  0.84774  1.0000
  C   C847      1.0  0.89591  0.43511  0.83022  1.0000
  H   H846      1.0  0.94100  0.41123  0.87321  1.0000
  H   H847      1.0  0.68582  0.07482  0.90916  1.0000
  C   C848      1.0  0.64050  0.11319  0.76638  1.0000
  H   H848      1.0  0.68554  0.00633  0.85619  1.0000
  C   C849      1.0  0.69326  0.14743  0.75277  1.0000
  N   N72       1.0  0.67364  0.05765  0.94710  1.0000
  H   H849      1.0  0.86234  0.26267  0.77966  1.0000
  H   H850      1.0  0.00056  0.44872  0.90793  1.0000
  C   C850      1.0  0.83203  0.29026  0.77961  1.0000
  H   H851      1.0  0.58154  0.01351  0.94152  1.0000
  H   H852      1.0  0.63731  0.06090  0.95800  1.0000
  H   H853      1.0  0.52507  0.03516  0.92057  1.0000
  H   H854      1.0  0.65674  0.10395  0.76034  1.0000
  H   H855      1.0  0.50937  0.12429  0.86229  1.0000
  H   H856      1.0  0.79913  0.34205  0.77311  1.0000
  C   C851      1.0  0.60358  0.17052  0.75311  1.0000
  C   C852      1.0  0.82041  0.30783  0.75497  1.0000
  C   C853      1.0  0.54002  0.03353  0.92923  1.0000
  C   C854      1.0  0.83315  0.49473  0.79996  1.0000
  H   H857      1.0  0.53463  0.04529  0.93903  1.0000
  H   H858      1.0  0.77700  0.49837  0.80798  1.0000
  H   H859      1.0  0.50849  0.13291  0.84192  1.0000
  C   C855      1.0  0.63669  0.00776  0.00121  1.0000
  Fe  Fe145     1.0  0.63293  0.97920  0.08055  1.0000
  S   S291      1.0  0.61864  0.94991  0.09938  1.0000
  S   S292      1.0  0.61475  0.98376  0.05743  1.0000
  Fe  Fe146     1.0  0.65483  0.82795  0.15216  1.0000
  S   S293      1.0  0.63132  0.79277  0.15610  1.0000
  S   S294      1.0  0.66612  0.84730  0.12866  1.0000
  Fe  Fe147     1.0  0.66374  0.83061  0.18680  1.0000
  S   S295      1.0  0.64008  0.79670  0.19337  1.0000
  S   S296      1.0  0.68899  0.85068  0.20247  1.0000
  Fe  Fe148     1.0  0.66087  0.77921  0.17318  1.0000
  S   S297      1.0  0.67746  0.73958  0.17896  1.0000
  Fe  Fe149     1.0  0.61271  0.81290  0.17590  1.0000
  S   S298      1.0  0.57070  0.82308  0.17956  1.0000
  S   S299      1.0  0.68552  0.81266  0.16751  1.0000
  S   S300      1.0  0.63525  0.84860  0.17102  1.0000
  H   H860      1.0  0.56308  0.83099  0.12832  1.0000
  C   C856      1.0  0.87798  0.59498  0.24933  1.0000
  S   S301      1.0  0.94786  0.62641  0.09115  1.0000
  Fe  Fe150     1.0  0.81706  0.59422  0.17220  1.0000
  S   S302      1.0  0.85200  0.59802  0.18552  1.0000
  S   S303      1.0  0.80438  0.55756  0.16236  1.0000
  Fe  Fe151     1.0  0.80635  0.65196  0.17056  1.0000
  S   S304      1.0  0.84146  0.65956  0.18339  1.0000
  S   S305      1.0  0.78189  0.68446  0.16015  1.0000
  Fe  Fe152     1.0  0.86117  0.63096  0.16865  1.0000
  S   S306      1.0  0.90258  0.63292  0.16030  1.0000
  Fe  Fe153     1.0  0.82962  0.62615  0.19905  1.0000
  S   S307      1.0  0.82839  0.62432  0.22535  1.0000
  S   S308      1.0  0.82731  0.62584  0.15452  1.0000
  S   S309      1.0  0.79341  0.61983  0.18704  1.0000
  C   C857      1.0  0.81253  0.52626  0.16930  1.0000
  C   C858      1.0  0.51137  0.84249  0.13851  1.0000
  H   H861      1.0  0.51899  0.80473  0.21805  1.0000
  H   H862      1.0  0.89975  0.60873  0.22906  1.0000
  H   H863      1.0  0.82780  0.53667  0.19062  1.0000
  H   H864      1.0  0.84221  0.54827  0.13722  1.0000
  H   H865      1.0  0.79852  0.50942  0.14933  1.0000
  N   N73       1.0  0.54467  0.96372  0.08826  1.0000
  C   C859      1.0  0.84637  0.64527  0.23542  1.0000
  C   C860      1.0  0.86615  0.65911  0.22800  1.0000
  C   C861      1.0  0.88218  0.67308  0.23673  1.0000
  C   C862      1.0  0.82371  0.52125  0.18355  1.0000
  H   H866      1.0  0.86956  0.65845  0.21562  1.0000
  H   H867      1.0  0.89783  0.68321  0.23097  1.0000
  C   C863      1.0  0.93578  0.63012  0.11035  1.0000
  C   C864      1.0  0.95149  0.62928  0.12296  1.0000
  C   C865      1.0  0.94102  0.63098  0.13812  1.0000
  C   C866      1.0  0.91474  0.63304  0.14088  1.0000
  C   C867      1.0  0.89901  0.63390  0.12827  1.0000
  C   C868      1.0  0.90952  0.63269  0.11308  1.0000
  H   H868      1.0  0.97170  0.62742  0.12105  1.0000
  H   H869      1.0  0.95334  0.63038  0.14779  1.0000
  H   H870      1.0  0.87877  0.63558  0.13022  1.0000
  H   H871      1.0  0.89721  0.63351  0.10339  1.0000
  C   C869      1.0  0.55859  0.94235  0.08194  1.0000
  C   C870      1.0  0.70786  0.72601  0.17459  1.0000
  C   C871      1.0  0.71524  0.70347  0.18276  1.0000
  C   C872      1.0  0.73845  0.69125  0.17913  1.0000
  C   C873      1.0  0.75445  0.70110  0.16702  1.0000
  C   C874      1.0  0.74718  0.72377  0.15897  1.0000
  C   C875      1.0  0.72422  0.73626  0.16280  1.0000
  H   H872      1.0  0.70282  0.69533  0.19192  1.0000
  H   H873      1.0  0.74367  0.67388  0.18546  1.0000
  H   H874      1.0  0.75926  0.73157  0.14953  1.0000
  H   H875      1.0  0.71888  0.75346  0.15633  1.0000
  H   H876      1.0  0.93570  0.57590  0.11181  1.0000
  H   H877      1.0  0.55876  0.84323  0.14738  1.0000
  C   C876      1.0  0.54045  0.78065  0.17832  1.0000
  C   C877      1.0  0.54176  0.80691  0.17858  1.0000
  C   C878      1.0  0.51923  0.82121  0.17822  1.0000
  N   N74       1.0  0.70179  0.88754  0.14840  1.0000
  N   N75       1.0  0.90091  0.56630  0.12434  1.0000
  H   H878      1.0  0.55762  0.76939  0.17863  1.0000
  H   H879      1.0  0.52003  0.84155  0.17838  1.0000
  H   H880      1.0  0.68961  0.76780  0.20645  1.0000
  C   C879      1.0  0.91055  0.57213  0.13810  1.0000
  C   C880      1.0  0.65599  0.84906  0.22810  1.0000
  C   C881      1.0  0.68045  0.85413  0.22219  1.0000
  C   C882      1.0  0.69865  0.86212  0.23213  1.0000
  Fe  Fe154     1.0  0.98920  0.61852  0.08434  1.0000
  H   H881      1.0  0.64179  0.84307  0.22052  1.0000
  H   H882      1.0  0.71760  0.86618  0.22760  1.0000
  C   C883      1.0  0.63260  0.92163  0.10736  1.0000
  C   C884      1.0  0.62152  0.90993  0.12099  1.0000
  C   C885      1.0  0.63148  0.88719  0.12764  1.0000
  C   C886      1.0  0.65245  0.87563  0.12057  1.0000
  C   C887      1.0  0.66347  0.88725  0.10690  1.0000
  C   C888      1.0  0.65376  0.91024  0.10040  1.0000
  H   H883      1.0  0.60514  0.91857  0.12647  1.0000
  H   H884      1.0  0.62286  0.87855  0.13817  1.0000
  H   H885      1.0  0.67966  0.87845  0.10130  1.0000
  H   H886      1.0  0.66238  0.91891  0.08986  1.0000
  H   H887      1.0  0.56710  0.99629  0.04842  1.0000
  H   H888      1.0  0.53238  0.96583  0.04769  1.0000
  H   H889      1.0  0.56696  0.93052  0.09151  1.0000
  C   C889      1.0  0.50444  0.99063  0.05758  1.0000
  C   C890      1.0  0.67278  0.92270  0.14660  1.0000
  S   S310      1.0  0.67102  0.99227  0.07065  1.0000
  C   C891      1.0  0.89575  0.56974  0.15187  1.0000
  C   C892      1.0  0.67784  0.89929  0.17109  1.0000
  N   N76       1.0  0.52780  0.82244  0.13993  1.0000
  H   H890      1.0  0.92918  0.63281  0.24411  1.0000
  C   C893      1.0  0.69100  0.90704  0.13984  1.0000
  C   C894      1.0  0.51905  0.96255  0.09089  1.0000
  H   H891      1.0  0.91834  0.55067  0.10447  1.0000
  H   H892      1.0  0.90313  0.57532  0.16265  1.0000
  C   C895      1.0  0.87666  0.55790  0.12391  1.0000
  C   C896      1.0  0.80723  0.50584  0.16034  1.0000
  H   H893      1.0  0.98269  0.50351  0.09357  1.0000
  C   C897      1.0  0.84218  0.64630  0.25151  1.0000
  C   C898      1.0  0.86147  0.55494  0.13751  1.0000
  H   H894      1.0  0.86892  0.55352  0.11300  1.0000
  S   S311      1.0  0.99699  0.58437  0.07060  1.0000
  C   C899      1.0  0.69253  0.86473  0.24795  1.0000
  H   H895      1.0  0.69588  0.91014  0.12757  1.0000
  H   H896      1.0  0.70466  0.86866  0.17078  1.0000
  H   H897      1.0  0.57793  0.98522  0.08998  1.0000
  H   H898      1.0  0.97947  0.51327  0.06665  1.0000
  C   C900      1.0  0.72061  0.87105  0.14111  1.0000
  C   C901      1.0  0.70528  0.78036  0.20914  1.0000
  H   H899      1.0  0.86424  0.58565  0.24274  1.0000
  H   H900      1.0  0.90762  0.58311  0.10165  1.0000
  H   H901      1.0  0.70487  0.79741  0.20105  1.0000
  H   H902      1.0  0.72313  0.76969  0.20694  1.0000
  H   H903      1.0  0.57426  0.94914  0.07386  1.0000
  C   C902      1.0  0.69578  0.88383  0.16390  1.0000
  Fe  Fe155     1.0  0.65172  0.99966  0.04768  1.0000
  H   H904      1.0  0.66318  0.78272  0.22714  1.0000
  H   H905      1.0  0.74219  0.79644  0.22588  1.0000
  C   C903      1.0  0.52873  0.98418  0.05215  1.0000
  H   H906      1.0  0.67289  0.89595  0.18335  1.0000
  C   C904      1.0  0.51903  0.79824  0.14052  1.0000
  H   H907      1.0  0.65183  0.93051  0.16769  1.0000
  C   C905      1.0  0.67997  0.78801  0.23286  1.0000
  C   C906      1.0  0.51675  0.76887  0.17801  1.0000
  H   H908      1.0  0.56524  0.81057  0.14574  1.0000
  N   N77       1.0  0.70308  0.78782  0.22519  1.0000
  H   H909      1.0  0.71831  0.85120  0.14581  1.0000
  H   H910      1.0  0.51590  0.74850  0.17805  1.0000
  H   H911      1.0  0.66363  0.93754  0.13958  1.0000
  C   C907      1.0  0.72229  0.80346  0.24736  1.0000
  C   C908      1.0  0.65820  0.99324  0.00475  1.0000
  C   C909      1.0  0.72403  0.79579  0.23214  1.0000
  C   C910      1.0  0.91640  0.56902  0.10989  1.0000
  N   N78       1.0  0.73642  0.64839  0.14719  1.0000
  C   C911      1.0  0.75608  0.63443  0.14134  1.0000
  C   C912      1.0  0.72332  0.64001  0.16045  1.0000
  C   C913      1.0  0.76291  0.61126  0.14870  1.0000
  C   C914      1.0  0.72987  0.61708  0.16821  1.0000
  C   C915      1.0  0.74966  0.60255  0.16219  1.0000
  C   C916      1.0  0.72879  0.67191  0.13877  1.0000
  H   H912      1.0  0.76685  0.64139  0.13106  1.0000
  H   H913      1.0  0.70799  0.65126  0.16523  1.0000
  H   H914      1.0  0.77863  0.60026  0.14414  1.0000
  H   H915      1.0  0.71984  0.61073  0.17889  1.0000
  H   H916      1.0  0.75514  0.58480  0.16813  1.0000
  H   H917      1.0  0.71820  0.66766  0.12847  1.0000
  H   H918      1.0  0.71676  0.68398  0.14621  1.0000
  H   H919      1.0  0.74571  0.68325  0.13499  1.0000
  C   C917      1.0  0.87114  0.56091  0.15155  1.0000
  H   H920      1.0  0.73995  0.87749  0.14315  1.0000
  H   H921      1.0  0.54623  0.93067  0.07528  1.0000
  C   C918      1.0  0.55501  0.82702  0.14026  1.0000
  H   H922      1.0  0.71803  0.87075  0.12843  1.0000
  C   C919      1.0  0.66611  0.91868  0.16232  1.0000
  C   C920      1.0  0.89791  0.60804  0.24162  1.0000
  H   H923      1.0  0.92957  0.57926  0.13847  1.0000
  H   H924      1.0  0.53198  0.78232  0.14178  1.0000
  C   C921      1.0  0.55762  0.98448  0.09192  1.0000
  S   S312      1.0  0.66899  0.98847  0.02409  1.0000
  H   H925      1.0  0.50864  0.94629  0.08778  1.0000
  C   C922      1.0  0.64978  0.85203  0.24385  1.0000
  H   H926      1.0  0.85947  0.55889  0.16215  1.0000
  H   H927      1.0  0.51231  0.85094  0.21539  1.0000
  C   C923      1.0  0.91442  0.62153  0.25006  1.0000
  H   H928      1.0  0.63077  0.84819  0.24836  1.0000
  H   H929      1.0  0.51832  0.86165  0.13792  1.0000
  C   C924      1.0  0.50565  0.98288  0.09692  1.0000
  C   C925      1.0  0.67757  0.79551  0.24810  1.0000
  H   H930      1.0  0.50310  0.76339  0.21146  1.0000
  S   S313      1.0  0.51929  0.90376  0.38959  1.0000
  Fe  Fe156     1.0  0.50165  0.91780  0.41131  1.0000
  S   S314      1.0  0.53457  0.90645  0.42581  1.0000
  C   C926      1.0  0.50932  0.84676  0.48717  1.0000
  H   H931      1.0  0.61385  0.85956  0.32263  1.0000
  C   C927      1.0  0.78694  0.91071  0.30550  1.0000
  Fe  Fe157     1.0  0.55043  0.88884  0.40432  1.0000
  S   S315      1.0  0.59063  0.89741  0.39549  1.0000
  S   S316      1.0  0.53181  0.85152  0.41013  1.0000
  Fe  Fe158     1.0  0.68394  0.85552  0.32798  1.0000
  S   S317      1.0  0.72272  0.87114  0.33082  1.0000
  S   S318      1.0  0.65667  0.83723  0.34634  1.0000
  Fe  Fe159     1.0  0.68635  0.86765  0.29291  1.0000
  S   S319      1.0  0.72477  0.88531  0.29316  1.0000
  S   S320      1.0  0.65944  0.86189  0.27368  1.0000
  Fe  Fe160     1.0  0.73465  0.85139  0.30920  1.0000
  S   S321      1.0  0.77236  0.83158  0.30280  1.0000
  Fe  Fe161     1.0  0.71005  0.90370  0.31468  1.0000
  S   S322      1.0  0.71281  0.94337  0.32363  1.0000
  S   S323      1.0  0.69686  0.83320  0.30767  1.0000
  S   S324      1.0  0.67084  0.88861  0.31310  1.0000
  N   N79       1.0  0.79198  0.88100  0.32730  1.0000
  S   S325      1.0  0.91796  0.56358  0.39321  1.0000
  C   C928      1.0  0.96735  0.74368  0.28623  1.0000
  H   H932      1.0  0.77677  0.89218  0.34908  1.0000
  Fe  Fe162     1.0  0.87127  0.71283  0.31781  1.0000
  S   S326      1.0  0.86284  0.67795  0.30541  1.0000
  S   S327      1.0  0.83842  0.73628  0.32813  1.0000
  Fe  Fe163     1.0  0.92888  0.70072  0.31630  1.0000
  S   S328      1.0  0.92397  0.66549  0.30382  1.0000
  S   S329      1.0  0.96746  0.71403  0.32315  1.0000
  Fe  Fe164     1.0  0.89636  0.68866  0.28978  1.0000
  S   S330      1.0  0.90105  0.68823  0.26367  1.0000
  Fe  Fe165     1.0  0.89113  0.65762  0.32066  1.0000
  S   S331      1.0  0.88157  0.61744  0.32980  1.0000
  S   S332      1.0  0.90328  0.72484  0.30115  1.0000
  S   S333      1.0  0.89751  0.69153  0.33421  1.0000
  C   C929      1.0  0.77521  0.92771  0.31523  1.0000
  H   H933      1.0  0.85501  0.66061  0.27263  1.0000
  C   C930      1.0  0.56155  0.81268  0.45991  1.0000
  H   H934      1.0  0.92721  0.50457  0.46688  1.0000
  C   C931      1.0  0.90913  0.57729  0.37494  1.0000
  C   C932      1.0  0.89266  0.56536  0.36557  1.0000
  C   C933      1.0  0.88485  0.57770  0.35163  1.0000
  C   C934      1.0  0.89339  0.60206  0.34689  1.0000
  C   C935      1.0  0.91008  0.61388  0.35615  1.0000
  C   C936      1.0  0.91792  0.60152  0.37007  1.0000
  H   H935      1.0  0.88567  0.54677  0.36918  1.0000
  H   H936      1.0  0.87190  0.56838  0.34457  1.0000
  H   H937      1.0  0.91686  0.63259  0.35266  1.0000
  H   H938      1.0  0.93073  0.61089  0.37721  1.0000
  H   H939      1.0  0.80906  0.85723  0.34478  1.0000
  C   C937      1.0  0.79957  0.85593  0.33367  1.0000
  Fe  Fe166     1.0  0.51352  0.87028  0.43081  1.0000
  H   H940      1.0  0.54327  0.85851  0.37021  1.0000
  C   C938      1.0  0.58969  0.90521  0.34501  1.0000
  C   C939      1.0  0.78955  0.80414  0.30973  1.0000
  C   C940      1.0  0.78294  0.79055  0.32366  1.0000
  C   C941      1.0  0.79802  0.76986  0.32901  1.0000
  C   C942      1.0  0.81973  0.76216  0.32047  1.0000
  C   C943      1.0  0.82617  0.77560  0.30646  1.0000
  C   C944      1.0  0.81130  0.79651  0.30122  1.0000
  H   H941      1.0  0.76633  0.79605  0.33039  1.0000
  H   H942      1.0  0.79277  0.75970  0.33986  1.0000
  H   H943      1.0  0.84278  0.77008  0.29974  1.0000
  H   H944      1.0  0.81672  0.80683  0.29045  1.0000
  H   H945      1.0  0.69710  0.80985  0.26702  1.0000
  H   H946      1.0  0.82682  0.63575  0.25729  1.0000
  C   C945      1.0  0.87483  0.59564  0.26544  1.0000
  C   C946      1.0  0.72812  0.97889  0.29997  1.0000
  C   C947      1.0  0.71836  0.97439  0.31516  1.0000
  S   S334      1.0  0.87472  0.50575  0.41111  1.0000
  H   H947      1.0  0.73149  0.96324  0.29269  1.0000
  C   C948      1.0  0.71406  0.99509  0.32438  1.0000
  C   C949      1.0  0.63889  0.85409  0.36021  1.0000
  C   C950      1.0  0.61862  0.84211  0.36858  1.0000
  C   C951      1.0  0.60347  0.85516  0.37931  1.0000
  C   C952      1.0  0.60886  0.88019  0.38202  1.0000
  C   C953      1.0  0.62947  0.89198  0.37391  1.0000
  C   C954      1.0  0.64424  0.87913  0.36292  1.0000
  H   H948      1.0  0.61448  0.82269  0.36662  1.0000
  H   H949      1.0  0.58782  0.84578  0.38557  1.0000
  H   H950      1.0  0.63391  0.91128  0.37601  1.0000
  H   H951      1.0  0.65986  0.88852  0.35661  1.0000
  C   C955      1.0  0.51928  0.88800  0.47537  1.0000
  C   C956      1.0  0.53027  0.97436  0.40817  1.0000
  C   C957      1.0  0.52193  0.89687  0.49029  1.0000
  H   H952      1.0  0.53680  0.95502  0.40930  1.0000
  H   H953      1.0  0.58512  0.89637  0.45569  1.0000
  H   H954      1.0  0.55252  0.81750  0.47120  1.0000
  H   H955      1.0  0.56759  0.98967  0.40909  1.0000
  H   H956      1.0  0.98241  0.68371  0.29698  1.0000
  N   N80       1.0  0.85403  0.64724  0.37077  1.0000
  C   C958      1.0  0.84276  0.63494  0.35949  1.0000
  C   C959      1.0  0.85412  0.67305  0.37026  1.0000
  C   C960      1.0  0.83150  0.64854  0.34718  1.0000
  C   C961      1.0  0.84274  0.68723  0.35822  1.0000
  C   C962      1.0  0.83145  0.67484  0.34659  1.0000
  C   C963      1.0  0.86580  0.63293  0.38366  1.0000
  H   H957      1.0  0.84305  0.61449  0.35967  1.0000
  H   H958      1.0  0.86323  0.68283  0.37911  1.0000
  H   H959      1.0  0.82348  0.63870  0.33795  1.0000
  H   H960      1.0  0.84311  0.70772  0.35767  1.0000
  H   H961      1.0  0.82303  0.68564  0.33702  1.0000
  H   H962      1.0  0.88565  0.63900  0.38459  1.0000
  H   H963      1.0  0.85510  0.63592  0.39471  1.0000
  H   H964      1.0  0.86647  0.61230  0.38200  1.0000
  H   H965      1.0  0.52220  0.90063  0.46518  1.0000
  H   H966      1.0  0.76817  0.94577  0.31053  1.0000
  H   H967      1.0  0.57620  0.79790  0.46206  1.0000
  C   C964      1.0  0.77182  0.92112  0.33102  1.0000
  H   H968      1.0  0.62074  0.90424  0.32812  1.0000
  H   H969      1.0  0.87481  0.62706  0.29270  1.0000
  C   C965      1.0  0.69889  0.80323  0.25537  1.0000
  C   C966      1.0  0.59387  0.87665  0.43505  1.0000
  C   C967      1.0  0.51294  0.86283  0.47369  1.0000
  C   C968      1.0  0.54659  0.85216  0.35828  1.0000
  H   H970      1.0  0.87743  0.59325  0.29581  1.0000
  C   C969      1.0  0.59255  0.85370  0.42812  1.0000
  C   C970      1.0  0.79530  0.88730  0.31177  1.0000
  H   H971      1.0  0.55133  0.83171  0.35951  1.0000
  H   H972      1.0  0.56686  0.85892  0.47018  1.0000
  H   H973      1.0  0.80397  0.87399  0.30406  1.0000
  C   C971      1.0  0.58175  0.83290  0.43651  1.0000
  C   C972      1.0  0.57044  0.89120  0.35288  1.0000
  H   H974      1.0  0.94124  0.72320  0.27334  1.0000
  C   C973      1.0  0.92374  0.50507  0.49194  1.0000
  C   C974      1.0  0.97948  0.72021  0.26407  1.0000
  H   H975      1.0  0.59306  0.92446  0.34783  1.0000
  C   C975      1.0  0.60524  0.89385  0.33396  1.0000
  C   C976      1.0  0.57426  0.85724  0.45840  1.0000
  Fe  Fe167     1.0  0.91189  0.52289  0.40275  1.0000
  C   C977      1.0  0.91070  0.62180  0.26616  1.0000
  H   H976      1.0  0.59947  0.85222  0.41621  1.0000
  H   H977      1.0  0.78907  0.91540  0.29314  1.0000
  H   H978      1.0  0.57926  0.83570  0.33662  1.0000
  C   C978      1.0  0.78024  0.89749  0.33689  1.0000
  H   H979      1.0  0.81288  0.84634  0.32559  1.0000
  H   H980      1.0  0.60169  0.89306  0.42851  1.0000
  H   H981      1.0  0.76190  0.93397  0.33853  1.0000
  H   H982      1.0  0.52871  0.85471  0.35206  1.0000
  S   S335      1.0  0.51098  0.85012  0.45510  1.0000
  H   H983      1.0  0.78262  0.84384  0.33561  1.0000
  N   N81       1.0  0.57272  0.83487  0.45144  1.0000
  C   C979      1.0  0.85816  0.66032  0.26023  1.0000
  H   H984      1.0  0.58032  0.81525  0.43094  1.0000
  H   H985      1.0  0.85866  0.58634  0.27125  1.0000
  H   H986      1.0  0.65918  0.79618  0.25407  1.0000
  C   C980      1.0  0.87852  0.67337  0.25289  1.0000
  N   N82       1.0  0.56693  0.86649  0.34992  1.0000
  C   C981      1.0  0.58183  0.85533  0.33891  1.0000
  C   C982      1.0  0.54772  0.99399  0.40792  1.0000
  C   C983      1.0  0.88688  0.61035  0.29039  1.0000
  H   H987      1.0  0.55890  0.89998  0.36175  1.0000
  C   C984      1.0  0.99727  0.70457  0.31502  1.0000
  C   C985      1.0  0.58463  0.87850  0.45028  1.0000
  H   H988      1.0  0.95313  0.74978  0.29462  1.0000
  H   H989      1.0  0.54629  0.80510  0.45313  1.0000
  C   C986      1.0  0.60129  0.86878  0.33085  1.0000
  H   H990      1.0  0.70663  0.99186  0.33616  1.0000
  H   H991      1.0  0.52682  0.91637  0.49139  1.0000
  C   C987      1.0  0.66804  0.85965  0.25386  1.0000
  H   H992      1.0  0.97448  0.70832  0.25493  1.0000
  H   H993      1.0  0.94276  0.51169  0.49297  1.0000
  H   H994      1.0  0.90492  0.61212  0.29634  1.0000
  H   H995      1.0  0.70669  0.87072  0.25555  1.0000
  C   C988      1.0  0.99930  0.69041  0.30190  1.0000
  H   H996      1.0  0.50441  0.82725  0.48607  1.0000
  C   C989      1.0  0.96076  0.72860  0.27441  1.0000
  H   H997      1.0  0.92284  0.63339  0.27253  1.0000
  H   H998      1.0  0.99762  0.76118  0.29710  1.0000
  S   S336      1.0  0.93195  0.50904  0.42437  1.0000
  H   H999      1.0  0.73886  0.81000  0.25283  1.0000
  N   N83       1.0  0.89128  0.60869  0.27365  1.0000
  C   C990      1.0  0.50445  0.97985  0.40733  1.0000
  C   C991      1.0  0.99264  0.75009  0.28757  1.0000
  H   H1000     1.0  0.97878  0.50186  0.39789  1.0000
  C   C992      1.0  0.91496  0.50103  0.47707  1.0000
  Fe  Fe168     1.0  0.70116  0.86908  0.69126  1.0000
  S   S337      1.0  0.73902  0.87199  0.67853  1.0000
  S   S338      1.0  0.70085  0.87516  0.71700  1.0000
  Fe  Fe169     1.0  0.67282  0.86548  0.66099  1.0000
  S   S339      1.0  0.70893  0.86747  0.64636  1.0000
  S   S340      1.0  0.63209  0.86736  0.65302  1.0000
  Fe  Fe170     1.0  0.72569  0.84043  0.66474  1.0000
  S   S341      1.0  0.74591  0.80189  0.66228  1.0000
  Fe  Fe171     1.0  0.71907  0.89870  0.66164  1.0000
  S   S342      1.0  0.73405  0.93694  0.65191  1.0000
  S   S343      1.0  0.68835  0.83647  0.67842  1.0000
  S   S344      1.0  0.68244  0.89777  0.67530  1.0000
  Fe  Fe172     1.0  0.54763  0.87271  0.57845  1.0000
  H   H1001     1.0  0.84489  0.80411  0.70252  1.0000
  S   S345      1.0  0.58773  0.86323  0.58584  1.0000
  Fe  Fe173     1.0  0.51754  0.88140  0.54834  1.0000
  H   H1002     1.0  0.78702  0.79234  0.69508  1.0000
  H   H1003     1.0  0.72279  0.98787  0.71298  1.0000
  N   N84       1.0  0.91263  0.61993  0.58749  1.0000
  S   S346      1.0  0.54069  0.90658  0.56221  1.0000
  S   S347      1.0  0.52666  0.84675  0.56380  1.0000
  Fe  Fe174     1.0  0.89449  0.66037  0.65688  1.0000
  S   S348      1.0  0.91181  0.69907  0.65256  1.0000
  S   S349      1.0  0.90583  0.62697  0.64222  1.0000
  Fe  Fe175     1.0  0.87494  0.67265  0.68964  1.0000
  S   S350      1.0  0.89175  0.71113  0.68767  1.0000
  S   S351      1.0  0.84928  0.65802  0.70980  1.0000
  Fe  Fe176     1.0  0.87567  0.71430  0.66395  1.0000
  S   S352      1.0  0.85752  0.75303  0.65730  1.0000
  Fe  Fe177     1.0  0.92620  0.69296  0.67659  1.0000
  S   S353      1.0  0.96525  0.70171  0.68526  1.0000
  S   S354      1.0  0.85737  0.67601  0.66629  1.0000
  S   S355      1.0  0.91031  0.65397  0.68064  1.0000
  C   C993      1.0  0.94615  0.58914  0.58571  1.0000
  C   C994      1.0  0.70632  0.94043  0.71928  1.0000
  S   S356      1.0  0.92019  0.53626  0.56374  1.0000
  C   C995      1.0  0.95931  0.60127  0.59669  1.0000
  Fe  Fe178     1.0  0.88877  0.52535  0.58092  1.0000
  S   S357      1.0  0.86516  0.55707  0.59133  1.0000
  N   N85       1.0  0.56597  0.80986  0.61276  1.0000
  H   H1004     1.0  0.82511  0.81273  0.68642  1.0000
  C   C996      1.0  0.94906  0.62300  0.60289  1.0000
  H   H1005     1.0  0.91752  0.64876  0.60325  1.0000
  C   C997      1.0  0.55315  0.98591  0.58415  1.0000
  H   H1006     1.0  0.96662  0.51306  0.54064  1.0000
  C   C998      1.0  0.00153  0.53207  0.54323  1.0000
  H   H1007     1.0  0.98225  0.68411  0.65495  1.0000
  C   C999      1.0  0.89289  0.60690  0.62893  1.0000
  C   C1000     1.0  0.90779  0.58659  0.62391  1.0000
  C   C1001     1.0  0.89914  0.57062  0.61289  1.0000
  C   C1002     1.0  0.87547  0.57487  0.60661  1.0000
  C   C1003     1.0  0.86020  0.59472  0.61197  1.0000
  C   C1004     1.0  0.86884  0.61068  0.62308  1.0000
  H   H1008     1.0  0.92643  0.58341  0.62835  1.0000
  H   H1009     1.0  0.91109  0.55542  0.60894  1.0000
  H   H1010     1.0  0.84178  0.59810  0.60724  1.0000
  H   H1011     1.0  0.85707  0.62614  0.62685  1.0000
  C   C1005     1.0  0.52960  0.82103  0.62857  1.0000
  C   C1006     1.0  0.87810  0.67140  0.73404  1.0000
  C   C1007     1.0  0.85711  0.65846  0.72948  1.0000
  C   C1008     1.0  0.84151  0.64572  0.74085  1.0000
  H   H1012     1.0  0.91230  0.58906  0.57288  1.0000
  C   C1009     1.0  0.88814  0.62985  0.58248  1.0000
  H   H1013     1.0  0.89024  0.68133  0.72541  1.0000
  H   H1014     1.0  0.82523  0.63567  0.73744  1.0000
  C   C1010     1.0  0.83728  0.79761  0.69172  1.0000
  C   C1011     1.0  0.98705  0.51168  0.53943  1.0000
  C   C1012     1.0  0.53554  0.96647  0.58411  1.0000
  H   H1015     1.0  0.51316  0.81080  0.59199  1.0000
  H   H1016     1.0  0.54196  0.94721  0.58319  1.0000
  C   C1013     1.0  0.78402  0.75239  0.70011  1.0000
  H   H1017     1.0  0.69788  0.95611  0.72575  1.0000
  H   H1018     1.0  0.54520  0.94087  0.52794  1.0000
  C   C1014     1.0  0.77707  0.78877  0.66009  1.0000
  C   C1015     1.0  0.79848  0.80367  0.65691  1.0000
  C   C1016     1.0  0.82271  0.79228  0.65556  1.0000
  C   C1017     1.0  0.82611  0.76594  0.65785  1.0000
  C   C1018     1.0  0.80469  0.75102  0.66095  1.0000
  C   C1019     1.0  0.78038  0.76235  0.66185  1.0000
  H   H1019     1.0  0.79635  0.82394  0.65531  1.0000
  H   H1020     1.0  0.83904  0.80405  0.65294  1.0000
  H   H1021     1.0  0.80683  0.73076  0.66260  1.0000
  H   H1022     1.0  0.76400  0.75056  0.66416  1.0000
  C   C1020     1.0  0.62037  0.86630  0.63418  1.0000
  C   C1021     1.0  0.63608  0.86184  0.62123  1.0000
  C   C1022     1.0  0.62580  0.86129  0.60648  1.0000
  C   C1023     1.0  0.59981  0.86538  0.60450  1.0000
  C   C1024     1.0  0.58413  0.87002  0.61744  1.0000
  C   C1025     1.0  0.59436  0.87026  0.63221  1.0000
  H   H1023     1.0  0.65609  0.85861  0.62260  1.0000
  H   H1024     1.0  0.63806  0.85746  0.59656  1.0000
  H   H1025     1.0  0.56410  0.87315  0.61609  1.0000
  H   H1026     1.0  0.58206  0.87372  0.64218  1.0000
  C   C1026     1.0  0.72459  0.96674  0.65880  1.0000
  H   H1027     1.0  0.52141  0.82630  0.63963  1.0000
  C   C1027     1.0  0.70605  0.96884  0.67066  1.0000
  H   H1028     1.0  0.68665  0.99371  0.68615  1.0000
  H   H1029     1.0  0.69650  0.95217  0.67555  1.0000
  C   C1028     1.0  0.65658  0.81924  0.73738  1.0000
  C   C1029     1.0  0.66955  0.83509  0.72615  1.0000
  C   C1030     1.0  0.68466  0.85446  0.73074  1.0000
  S   S358      1.0  0.51423  0.88064  0.59428  1.0000
  H   H1030     1.0  0.64487  0.80437  0.73372  1.0000
  H   H1031     1.0  0.66772  0.83240  0.71396  1.0000
  S   S359      1.0  0.52217  0.89338  0.52227  1.0000
  N   N86       1.0  0.63632  0.92606  0.61926  1.0000
  C   C1031     1.0  0.64588  0.92976  0.63339  1.0000
  C   C1032     1.0  0.65206  0.91997  0.60707  1.0000
  C   C1033     1.0  0.67186  0.92763  0.63552  1.0000
  C   C1034     1.0  0.67810  0.91726  0.60889  1.0000
  C   C1035     1.0  0.68803  0.92132  0.62320  1.0000
  C   C1036     1.0  0.60928  0.93021  0.61697  1.0000
  H   H1032     1.0  0.63343  0.93417  0.64314  1.0000
  H   H1033     1.0  0.64447  0.91680  0.59590  1.0000
  H   H1034     1.0  0.67945  0.93080  0.64668  1.0000
  H   H1035     1.0  0.69053  0.91203  0.59930  1.0000
  H   H1036     1.0  0.70822  0.91945  0.62481  1.0000
  H   H1037     1.0  0.59790  0.92355  0.62749  1.0000
  H   H1038     1.0  0.60535  0.95060  0.61441  1.0000
  H   H1039     1.0  0.60276  0.91957  0.60723  1.0000
  C   C1037     1.0  0.99867  0.68901  0.66110  1.0000
  C   C1038     1.0  0.73962  0.93141  0.69999  1.0000
  H   H1040     1.0  0.78703  0.71194  0.70414  1.0000
  H   H1041     1.0  0.56966  0.97936  0.53169  1.0000
  C   C1039     1.0  0.53631  0.95670  0.53351  1.0000
  H   H1042     1.0  0.98476  0.67134  0.71176  1.0000
  H   H1043     1.0  0.77941  0.97039  0.67833  1.0000
  C   C1040     1.0  0.83628  0.75184  0.69695  1.0000
  Fe  Fe179     1.0  0.50539  0.91206  0.57681  1.0000
  H   H1044     1.0  0.76352  0.75287  0.70090  1.0000
  C   C1041     1.0  0.55107  0.80805  0.60034  1.0000
  H   H1045     1.0  0.95381  0.57200  0.58102  1.0000
  H   H1046     1.0  0.60093  0.81072  0.59965  1.0000
  H   H1047     1.0  0.83389  0.71142  0.70150  1.0000
  N   N87       1.0  0.88297  0.57560  0.67532  1.0000
  C   C1042     1.0  0.88803  0.56551  0.68982  1.0000
  C   C1043     1.0  0.86760  0.59641  0.67354  1.0000
  C   C1044     1.0  0.87694  0.57580  0.70301  1.0000
  C   C1045     1.0  0.85610  0.60709  0.68647  1.0000
  C   C1046     1.0  0.86077  0.59663  0.70128  1.0000
  C   C1047     1.0  0.89508  0.56492  0.66163  1.0000
  H   H1048     1.0  0.90073  0.54943  0.69127  1.0000
  H   H1049     1.0  0.86426  0.60495  0.66206  1.0000
  H   H1050     1.0  0.88093  0.56784  0.71452  1.0000
  H   H1051     1.0  0.84392  0.62361  0.68506  1.0000
  H   H1052     1.0  0.85213  0.60487  0.71142  1.0000
  H   H1053     1.0  0.88201  0.56569  0.65188  1.0000
  H   H1054     1.0  0.91223  0.57592  0.65794  1.0000
  H   H1055     1.0  0.90053  0.54480  0.66393  1.0000
  H   H1056     1.0  0.99238  0.54878  0.54756  1.0000
  C   C1048     1.0  0.55555  0.81606  0.62679  1.0000
  C   C1049     1.0  0.92561  0.63221  0.59807  1.0000
  H   H1057     1.0  0.85670  0.75147  0.69545  1.0000
  C   C1050     1.0  0.99015  0.65249  0.70763  1.0000
  H   H1058     1.0  0.87560  0.61423  0.57966  1.0000
  S   S360      1.0  0.98070  0.52266  0.58483  1.0000
  C   C1051     1.0  0.92274  0.59888  0.58115  1.0000
  N   N88       1.0  0.72699  0.94885  0.70847  1.0000
  H   H1059     1.0  0.73453  0.91166  0.70142  1.0000
  C   C1052     1.0  0.79746  0.77472  0.69681  1.0000
  C   C1053     1.0  0.59297  0.80367  0.61120  1.0000
  H   H1060     1.0  0.57314  0.98163  0.58309  1.0000
  C   C1054     1.0  0.76520  0.96427  0.68711  1.0000
  H   H1061     1.0  0.71329  0.92572  0.72784  1.0000
  C   C1055     1.0  0.73318  0.97385  0.70660  1.0000
  C   C1056     1.0  0.51426  0.81909  0.61599  1.0000
  H   H1062     1.0  0.55933  0.80334  0.58919  1.0000
  H   H1063     1.0  0.85320  0.79454  0.68319  1.0000
  S   S361      1.0  0.92048  0.50670  0.52388  1.0000
  C   C1057     1.0  0.75883  0.93884  0.68915  1.0000
  Fe  Fe180     1.0  0.90961  0.50334  0.55010  1.0000
  N   N89       1.0  0.82326  0.77416  0.69510  1.0000
  C   C1058     1.0  0.68679  0.85774  0.74662  1.0000
  H   H1064     1.0  0.69116  0.93192  0.71283  1.0000
  H   H1065     1.0  0.60390  0.81275  0.62001  1.0000
  H   H1066     1.0  0.95886  0.63236  0.61166  1.0000
  C   C1059     1.0  0.82348  0.72916  0.70030  1.0000
  H   H1067     1.0  0.87806  0.63992  0.59184  1.0000
  H   H1068     1.0  0.59588  0.78292  0.61257  1.0000
  H   H1069     1.0  0.50883  0.84307  0.51230  1.0000
  C   C1060     1.0  0.50968  0.97205  0.58518  1.0000
  Fe  Fe181     1.0  0.94303  0.50892  0.57811  1.0000
  H   H1070     1.0  0.76812  0.92509  0.68199  1.0000
  C   C1061     1.0  0.52501  0.81244  0.60181  1.0000
  C   C1062     1.0  0.88325  0.67175  0.74989  1.0000
  H   H1071     1.0  0.56736  0.81752  0.63664  1.0000
  C   C1063     1.0  0.79717  0.72947  0.70182  1.0000
  H   H1072     1.0  0.89088  0.64298  0.57208  1.0000
  C   C1064     1.0  0.55001  0.97846  0.53569  1.0000
  H   H1073     1.0  0.69843  0.87267  0.75027  1.0000
  C   C1065     1.0  0.73674  0.98879  0.65264  1.0000
  H   H1074     1.0  0.97941  0.65031  0.69703  1.0000
  C   C1066     1.0  0.70049  0.99249  0.67667  1.0000
  C   C1067     1.0  0.51111  0.95523  0.53878  1.0000
  N   N90       1.0  0.53884  0.99826  0.54286  1.0000
  H   H1075     1.0  0.75109  0.98745  0.64344  1.0000
  H   H1076     1.0  0.97727  0.59360  0.60049  1.0000
  C   C1068     1.0  0.51400  0.99715  0.54784  1.0000
  C   C1069     1.0  0.99554  0.69850  0.67580  1.0000
  H   H1077     1.0  0.98417  0.63760  0.71654  1.0000
  C   C1070     1.0  0.51180  0.85568  0.50210  1.0000
  C   C1071     1.0  0.51816  0.88086  0.50379  1.0000
  C   C1072     1.0  0.75242  0.98192  0.69594  1.0000
  C   C1073     1.0  0.90813  0.50085  0.50544  1.0000
  Fe  Fe182     1.0  0.67285  0.77909  0.82078  1.0000
  S   S362      1.0  0.67821  0.81608  0.80659  1.0000
  S   S363      1.0  0.70929  0.75770  0.82792  1.0000
  Fe  Fe183     1.0  0.61442  0.78613  0.82153  1.0000
  S   S364      1.0  0.61656  0.82272  0.80745  1.0000
  S   S365      1.0  0.57588  0.77065  0.83008  1.0000
  Fe  Fe184     1.0  0.64611  0.80353  0.79285  1.0000
  S   S366      1.0  0.64175  0.80235  0.76692  1.0000
  Fe  Fe185     1.0  0.64821  0.83216  0.82269  1.0000
  S   S367      1.0  0.64690  0.87290  0.83025  1.0000
  S   S368      1.0  0.64222  0.76580  0.80610  1.0000
  S   S369      1.0  0.64458  0.79627  0.83778  1.0000
  Fe  Fe186     1.0  0.64779  0.96236  0.90112  1.0000
  H   H1078     1.0  0.71252  0.94084  0.88225  1.0000
  S   S370      1.0  0.65788  0.92195  0.89515  1.0000
  Fe  Fe187     1.0  0.99979  0.62093  0.90295  1.0000
  C   C1074     1.0  0.92493  0.64765  0.91913  1.0000
  N   N91       1.0  0.81098  0.71048  0.79410  1.0000
  C   C1075     1.0  0.58707  0.76007  0.78224  1.0000
  S   S371      1.0  0.61527  0.97193  0.91749  1.0000
  C   C1076     1.0  0.75913  0.55703  0.83329  1.0000
  Fe  Fe188     1.0  0.83218  0.58479  0.81087  1.0000
  S   S372      1.0  0.87016  0.60247  0.81294  1.0000
  S   S373      1.0  0.82854  0.54628  0.80063  1.0000
  Fe  Fe189     1.0  0.80327  0.63437  0.81884  1.0000
  S   S374      1.0  0.83947  0.65484  0.82197  1.0000
  S   S375      1.0  0.76254  0.64991  0.81745  1.0000
  Fe  Fe190     1.0  0.85355  0.63670  0.80023  1.0000
  S   S376      1.0  0.87446  0.66038  0.78109  1.0000
  Fe  Fe191     1.0  0.85322  0.61881  0.83449  1.0000
  S   S377      1.0  0.87133  0.61312  0.85812  1.0000
  S   S378      1.0  0.81696  0.61807  0.79655  1.0000
  S   S379      1.0  0.81560  0.59935  0.83297  1.0000
  H   H1079     1.0  0.75746  0.55562  0.84585  1.0000
  S   S380      1.0  0.97926  0.64044  0.88273  1.0000
  H   H1080     1.0  0.58847  0.96955  0.95152  1.0000
  H   H1081     1.0  0.93238  0.63788  0.96516  1.0000
  H   H1082     1.0  0.82285  0.67522  0.78550  1.0000
  H   H1083     1.0  0.73157  0.90692  0.85692  1.0000
  C   C1077     1.0  0.76013  0.58224  0.80913  1.0000
  S   S381      1.0  0.99354  0.53315  0.92700  1.0000
  C   C1078     1.0  0.66438  0.98581  0.97698  1.0000
  C   C1079     1.0  0.50898  0.96366  0.90215  1.0000
  H   H1084     1.0  0.53078  0.77457  0.76733  1.0000
  H   H1085     1.0  0.82093  0.52548  0.83280  1.0000
  C   C1080     1.0  0.90219  0.61977  0.86412  1.0000
  C   C1081     1.0  0.91028  0.60851  0.87826  1.0000
  C   C1082     1.0  0.93406  0.61406  0.88390  1.0000
  C   C1083     1.0  0.94984  0.63147  0.87562  1.0000
  C   C1084     1.0  0.94188  0.64264  0.86145  1.0000
  C   C1085     1.0  0.91831  0.63667  0.85565  1.0000
  H   H1086     1.0  0.89798  0.59541  0.88490  1.0000
  H   H1087     1.0  0.93993  0.60519  0.89478  1.0000
  H   H1088     1.0  0.95388  0.65619  0.85495  1.0000
  H   H1089     1.0  0.91233  0.64561  0.84481  1.0000
  C   C1086     1.0  0.55044  0.82182  0.84745  1.0000
  H   H1090     1.0  0.83477  0.63577  0.76523  1.0000
  C   C1087     1.0  0.54039  0.83866  0.83619  1.0000
  C   C1088     1.0  0.53420  0.95560  0.90226  1.0000
  C   C1089     1.0  0.55357  0.97294  0.89872  1.0000
  C   C1090     1.0  0.58456  0.80672  0.86399  1.0000
  H   H1091     1.0  0.98258  0.59690  0.86035  1.0000
  N   N92       1.0  0.70329  0.93531  0.85894  1.0000
  H   H1092     1.0  0.53878  0.93614  0.90558  1.0000
  H   H1093     1.0  0.57301  0.96671  0.89901  1.0000
  H   H1094     1.0  0.68859  0.97107  0.99502  1.0000
  C   C1091     1.0  0.72362  0.72753  0.82484  1.0000
  C   C1092     1.0  0.71147  0.70864  0.81744  1.0000
  C   C1093     1.0  0.72358  0.68505  0.81546  1.0000
  C   C1094     1.0  0.74817  0.68002  0.82058  1.0000
  C   C1095     1.0  0.76043  0.69898  0.82785  1.0000
  C   C1096     1.0  0.74818  0.72246  0.83002  1.0000
  H   H1095     1.0  0.69260  0.71208  0.81343  1.0000
  H   H1096     1.0  0.71377  0.67058  0.80989  1.0000
  H   H1097     1.0  0.77921  0.69548  0.83199  1.0000
  H   H1098     1.0  0.75776  0.73679  0.83584  1.0000
  C   C1097     1.0  0.52093  0.79983  0.80196  1.0000
  H   H1099     1.0  0.85096  0.70412  0.79488  1.0000
  H   H1100     1.0  0.67572  0.84449  0.77006  1.0000
  C   C1098     1.0  0.64729  0.88526  0.84889  1.0000
  C   C1099     1.0  0.64147  0.91099  0.85031  1.0000
  C   C1100     1.0  0.64339  0.92222  0.86457  1.0000
  C   C1101     1.0  0.65148  0.90790  0.87758  1.0000
  C   C1102     1.0  0.65658  0.88199  0.87629  1.0000
  C   C1103     1.0  0.65441  0.87068  0.86205  1.0000
  H   H1101     1.0  0.63577  0.92243  0.84024  1.0000
  H   H1102     1.0  0.63929  0.94213  0.86536  1.0000
  H   H1103     1.0  0.66284  0.87071  0.88628  1.0000
  H   H1104     1.0  0.65907  0.85090  0.86116  1.0000
  C   C1104     1.0  0.54451  0.79533  0.80871  1.0000
  C   C1105     1.0  0.54637  0.77869  0.82182  1.0000
  C   C1106     1.0  0.52419  0.76756  0.82845  1.0000
  H   H1105     1.0  0.56133  0.80421  0.80353  1.0000
  H   H1106     1.0  0.52532  0.75474  0.83862  1.0000
  C   C1107     1.0  0.54474  0.76511  0.77451  1.0000
  C   C1108     1.0  0.57957  0.74210  0.79398  1.0000
  C   C1109     1.0  0.70604  0.94951  0.87142  1.0000
  H   H1107     1.0  0.57957  0.78704  0.86169  1.0000
  C   C1110     1.0  0.69992  0.97526  0.87054  1.0000
  H   H1108     1.0  0.75922  0.60055  0.80285  1.0000
  C   C1111     1.0  0.55416  0.73560  0.79588  1.0000
  S   S382      1.0  0.63880  0.99311  0.88320  1.0000
  C   C1112     1.0  0.69449  0.94612  0.84541  1.0000
  C   C1113     1.0  0.67395  0.84178  0.75786  1.0000
  H   H1109     1.0  0.51987  0.81206  0.79153  1.0000
  H   H1110     1.0  0.67517  0.97714  0.96780  1.0000
  H   H1111     1.0  0.76514  0.51723  0.83136  1.0000
  H   H1112     1.0  0.60807  0.84657  0.84976  1.0000
  C   C1114     1.0  0.52824  0.96511  0.93989  1.0000
  C   C1115     1.0  0.95083  0.64093  0.95880  1.0000
  H   H1113     1.0  0.96131  0.65500  0.96499  1.0000
  H   H1114     1.0  0.79380  0.74390  0.80248  1.0000
  C   C1116     1.0  0.96258  0.67263  0.91932  1.0000
  C   C1117     1.0  0.58903  0.84420  0.84600  1.0000
  H   H1115     1.0  0.70198  0.98648  0.88046  1.0000
  H   H1116     1.0  0.75400  0.59754  0.83147  1.0000
  H   H1117     1.0  0.54766  0.87165  0.82094  1.0000
  H   H1118     1.0  0.97438  0.55182  0.86729  1.0000
  H   H1119     1.0  0.84073  0.73592  0.79739  1.0000
  H   H1120     1.0  0.90957  0.64026  0.91289  1.0000
  C   C1118     1.0  0.80740  0.68855  0.78700  1.0000
  H   H1121     1.0  0.74483  0.69507  0.78029  1.0000
  H   H1122     1.0  0.75118  0.50892  0.79612  1.0000
  C   C1119     1.0  0.94231  0.66397  0.91142  1.0000
  H   H1123     1.0  0.59458  0.78416  0.75404  1.0000
  H   H1124     1.0  0.70045  0.89765  0.85178  1.0000
  C   C1120     1.0  0.69070  0.98641  0.85686  1.0000
  H   H1125     1.0  0.59132  0.87679  0.82984  1.0000
  C   C1121     1.0  0.76949  0.51442  0.80059  1.0000
  N   N93       1.0  0.56973  0.77136  0.77273  1.0000
  H   H1126     1.0  0.96196  0.62300  0.95934  1.0000
  S   S383      1.0  0.98477  0.60526  0.92620  1.0000
  H   H1127     1.0  0.51335  0.95150  0.93885  1.0000
  H   H1128     1.0  0.53904  0.80614  0.85220  1.0000
  H   H1129     1.0  0.75158  0.73475  0.79326  1.0000
  H   H1130     1.0  0.97668  0.68457  0.91321  1.0000
  H   H1131     1.0  0.56305  0.79692  0.75304  1.0000
  H   H1132     1.0  0.94045  0.66937  0.89920  1.0000
  N   N94       1.0  0.94749  0.64954  0.94258  1.0000
  H   H1133     1.0  0.78081  0.66508  0.77653  1.0000
  C   C1122     1.0  0.92790  0.64047  0.93480  1.0000
  C   C1123     1.0  0.83567  0.71586  0.80011  1.0000
  C   C1124     1.0  0.65873  0.82250  0.75326  1.0000
  C   C1125     1.0  0.68783  0.97177  0.84422  1.0000
  H   H1134     1.0  0.60551  0.80732  0.86409  1.0000
  C   C1126     1.0  0.76733  0.72194  0.79110  1.0000
  H   H1135     1.0  0.57662  0.81127  0.87557  1.0000
  C   C1127     1.0  0.55514  0.85854  0.82977  1.0000
  H   H1136     1.0  0.60680  0.76531  0.78091  1.0000
  C   C1128     1.0  0.78367  0.68280  0.78177  1.0000
  H   H1137     1.0  0.98102  0.67159  0.94098  1.0000
  C   C1129     1.0  0.84685  0.64580  0.75665  1.0000
  H   H1138     1.0  0.76748  0.56182  0.78874  1.0000
  H   H1139     1.0  0.51664  0.74285  0.78782  1.0000
  H   H1140     1.0  0.58426  0.80788  0.76693  1.0000
  H   H1141     1.0  0.54799  0.72241  0.80533  1.0000
  H   H1142     1.0  0.52143  0.83603  0.83231  1.0000
  C   C1130     1.0  0.57959  0.86143  0.83474  1.0000
  C   C1131     1.0  0.71106  0.90866  0.85985  1.0000
  C   C1132     1.0  0.76354  0.69964  0.78384  1.0000
  C   C1133     1.0  0.96491  0.66519  0.93500  1.0000
  C   C1134     1.0  0.53660  0.74704  0.78605  1.0000
  C   C1135     1.0  0.55130  0.95751  0.94596  1.0000
  C   C1136     1.0  0.82389  0.51002  0.82532  1.0000
  C   C1137     1.0  0.86770  0.65891  0.76127  1.0000
  H   H1143     1.0  0.91463  0.62732  0.94063  1.0000
  C   C1138     1.0  0.57040  0.97515  0.94681  1.0000
  C   C1139     1.0  0.75720  0.58053  0.82524  1.0000
  C   C1140     1.0  0.82947  0.51513  0.80949  1.0000
  H   H1144     1.0  0.70705  0.89990  0.87170  1.0000
  H   H1145     1.0  0.59323  0.73389  0.80189  1.0000
  C   C1141     1.0  0.76470  0.56030  0.80124  1.0000
  N   N95       1.0  0.76623  0.53727  0.80920  1.0000
  C   C1142     1.0  0.99842  0.58379  0.86131  1.0000
  C   C1143     1.0  0.67196  0.98238  0.99248  1.0000
  C   C1144     1.0  0.76354  0.53543  0.82503  1.0000
  C   C1145     1.0  0.50302  0.98873  0.89766  1.0000
  H   H1146     1.0  0.69207  0.93479  0.83556  1.0000
  C   C1146     1.0  0.79127  0.72697  0.79634  1.0000
  H   H1147     1.0  0.83522  0.71180  0.81287  1.0000
  H   H1148     1.0  0.55445  0.93795  0.94985  1.0000
  C   C1147     1.0  0.99365  0.55829  0.86529  1.0000
  N   N96       1.0  0.57460  0.82451  0.85205  1.0000
  S   S384      1.0  0.67526  0.98573  0.91345  1.0000
  H   H1149     1.0  0.68034  0.98020  0.83360  1.0000
  Fe  Fe192     1.0  0.64175  0.99759  0.92861  1.0000
  C   C1148     1.0  0.57812  0.79104  0.76108  1.0000
  H   H1150     1.0  0.78347  0.51766  0.79073  1.0000
  H   H1151     1.0  0.89940  0.68198  0.75334  1.0000
  C   C1149     1.0  0.54767  0.99828  0.89507  1.0000
  C   C1150     1.0  0.52472  0.99028  0.93457  1.0000
  C   C1151     1.0  0.64294  0.00041  0.97347  1.0000
  H   H1152     1.0  0.50679  0.99589  0.92972  1.0000
  C   C1152     1.0  0.56638  0.00006  0.94113  1.0000
