data_image0
_chemical_formula_structural       FeS2FeS2FeSFeS3FeS2FeS2FeSFeS3FeS2FeS2FeSFeS3FeS2FeS2FeSFeS3C2H5C3NH3C2HC2HC4HC7H4CHCH2C6H4C6H4C3H3C2H6NCH5CHC2H3C2NC6H8NC3HC2H3CH3CNC6H4CH3CHCNHC2HNHC2HCHC2HCH4CH2CHC2HCHCHCHC6H2C3H2C2H2CH2C2H2CHNC2HFeS2FeS2FeSFeS3FeS2FeS2FeSFeS3FeS2FeS2FeSFeS3FeS2FeS2FeSFeS3NHC2H2C4HCHCH2CH2C4H2C7H4C6H4C6H4C4HC3HC3H4CH2CNC6H8C2HCHCH3C2H3NH4C2HC2HC2H3C2H7CH2C2H2C2H2CHC2HC4H3NHC7HCHNHCNCHC3HC3H3CH3CH2CH2CH2CHCNH2FeS2FeS2FeSFeS3FeS2FeS2FeSFeS3FeS2FeS2FeSFeS3FeS2FeS2FeSFeS3C3H2CH4C3H2C3H2C3NC7H4CHC2H2CH3C6H5C2H2C3H2CHNH2C6H4CHC2NCH5C2H2NC5H3CH5CHC2H2CNC6H6CHC5HCH3CHC3HN2C2HC2H2C3H2C2H2NCHNHC3H3CH3CH3C2H4C2HCHCH2FeS2FeS2FeSFeS3FeS2FeS2FeSFeS3FeS2FeSHFeSFeS3FeS2FeS2FeSFeS3C3H2C2H3C6H5CH3C6H4C6H4C3H3C2H2C3H2C3HC3H3C3H2C2H3C2NC2HCNCHC2H2CH3CNH3CHCHCNCHC3HCHCHCH2NH3CHC2H2CNC6H5C2H5CHSHCHNH3CH2CH2CH2CH4C2HCHC2H4FeS2FeS2FeSFeS3FeS2FeS2FeSFeS3FeS2FeS2FeSFeS3FeS2FeS2FeSFeS3CH4C2H3C6H4C2H3C6H4C3H2C6H4CHC3H2CHC4HCH2CHC4NHCH2CH2C3H4C3HCHNCH2CNC4HCH8CHC2H2CH2C2HC2N2C3HC2HCH2C2H2N2C4HCH2C3H2C2H6CH3CH2C2H3CHCH2CHNCH2C2H2C2HCH3CFeS2FeS2FeSFeS3FeS2FeS2FeSFeS3FeS2FeS2FeSFeS3FeS2FeS2FeSFeS3C6H4C6H4C6H4CHC5H3C6HCHC4H6C4HNH3C3H3C3HC3H3C3HNC6H8C2H2C3H4CNC6H11CHCH5CNH2C2HCH4C2HCHNH4C3NCHC3HNC6H8CHC5H2C2HCNCH2N2C2HC2H3CH3CH2CH2C2HFeS2FeS2FeSFeS3FeS2FeS2FeSFeS3FeS2FeS2FeSFeS3FeS2FeS2FeSFeS3C3NHCHCH2C3H2C6H4C6H4C2H3CH2C4H3C6H4CHC3HC2H2C2H2CH2CH2CNH7C3HCH2CHC2HC3HC3HC2H2CNC6H8NC3HNH3CH2NC3H8C3H4CHC2NC2H3CHCH6C2HFeSHFeS2FeSFeS3FeS2FeS2FeSFeS3FeS2FeS2FeSFeS3FeS2FeS2FeSFeS3C4HCHC2HC6H4C6H5C6H4CHC2HC3H3C3HC2H2C3H2C3H4CH3NC2HC2HCH2C4HC2NH2CSCH5CH3NC6H9CHCNC6H8C2H4C2HCH4C5HC2N2HCNCNCHCHCH3CH4CHCHCHC2H2CHCHC
_chemical_formula_sum              "Fe128 S256 C768 H768 N64"
_cell_length_a       67.782
_cell_length_b       67.7773
_cell_length_c       39.8786
_cell_angle_alpha    90.0685
_cell_angle_beta     90.0455
_cell_angle_gamma    85.2839

_space_group_name_H-M_alt    "P 1"
_space_group_IT_number       1

loop_
  _space_group_symop_operation_xyz
  'x, y, z'

loop_
  _atom_site_type_symbol
  _atom_site_label
  _atom_site_symmetry_multiplicity
  _atom_site_fract_x
  _atom_site_fract_y
  _atom_site_fract_z
  _atom_site_occupancy
  Fe  Fe1       1.0  0.25236  0.10742  0.19847  1.0000
  S   S1        1.0  0.22896  0.10530  0.23787  1.0000
  S   S2        1.0  0.28578  0.10119  0.20877  1.0000
  Fe  Fe2       1.0  0.22131  0.11051  0.14065  1.0000
  S   S3        1.0  0.19601  0.10828  0.17723  1.0000
  S   S4        1.0  0.21053  0.11302  0.08565  1.0000
  Fe  Fe3       1.0  0.21098  0.12966  0.20997  1.0000
  S   S5        1.0  0.19675  0.15856  0.23410  1.0000
  Fe  Fe4       1.0  0.21571  0.08418  0.20206  1.0000
  S   S6        1.0  0.20628  0.05528  0.22367  1.0000
  S   S7        1.0  0.23547  0.13324  0.17209  1.0000
  S   S8        1.0  0.23985  0.08494  0.16389  1.0000
  Fe  Fe5       1.0  0.09899  0.22334  0.31762  1.0000
  S   S9        1.0  0.11444  0.25015  0.33258  1.0000
  S   S10       1.0  0.11298  0.19395  0.29485  1.0000
  Fe  Fe6       1.0  0.05805  0.24315  0.34098  1.0000
  S   S11       1.0  0.07127  0.27121  0.35667  1.0000
  S   S12       1.0  0.02543  0.24239  0.35532  1.0000
  Fe  Fe7       1.0  0.08861  0.26825  0.30845  1.0000
  S   S13       1.0  0.08991  0.29026  0.26472  1.0000
  Fe  Fe8       1.0  0.09552  0.25087  0.37984  1.0000
  S   S14       1.0  0.10917  0.25422  0.43237  1.0000
  S   S15       1.0  0.07386  0.24122  0.29149  1.0000
  S   S16       1.0  0.08167  0.22297  0.36622  1.0000
  Fe  Fe9       1.0  0.07035  0.44481  0.16654  1.0000
  S   S17       1.0  0.06741  0.43432  0.11339  1.0000
  S   S18       1.0  0.05901  0.47636  0.18098  1.0000
  Fe  Fe10      1.0  0.08004  0.40171  0.19321  1.0000
  S   S19       1.0  0.07795  0.38849  0.14185  1.0000
  S   S20       1.0  0.08584  0.38409  0.24179  1.0000
  Fe  Fe11      1.0  0.09434  0.41403  0.12422  1.0000
  S   S21       1.0  0.11987  0.40702  0.08882  1.0000
  Fe  Fe12      1.0  0.05127  0.40992  0.13548  1.0000
  S   S22       1.0  0.02409  0.40169  0.10863  1.0000
  S   S23       1.0  0.09880  0.42600  0.17637  1.0000
  S   S24       1.0  0.05200  0.42161  0.18791  1.0000
  Fe  Fe13      1.0  0.37515  0.11025  0.34178  1.0000
  S   S25       1.0  0.37109  0.08119  0.36574  1.0000
  S   S26       1.0  0.34653  0.12659  0.32180  1.0000
  Fe  Fe14      1.0  0.41936  0.10811  0.36323  1.0000
  S   S27       1.0  0.41796  0.07869  0.38839  1.0000
  S   S28       1.0  0.44797  0.12360  0.36798  1.0000
  Fe  Fe15      1.0  0.40048  0.07116  0.34332  1.0000
  S   S29       1.0  0.40724  0.04114  0.32029  1.0000
  Fe  Fe16      1.0  0.38887  0.09107  0.40920  1.0000
  S   S30       1.0  0.37850  0.08093  0.45992  1.0000
  S   S31       1.0  0.40376  0.09966  0.31584  1.0000
  S   S32       1.0  0.39098  0.12133  0.38740  1.0000
  C   C1        1.0  0.01181  0.45308  0.15709  1.0000
  C   C2        1.0  0.38535  0.09248  0.49739  1.0000
  H   H1        1.0  0.15845  0.21373  0.38708  1.0000
  H   H2        1.0  0.39849  0.11669  0.47352  1.0000
  H   H3        1.0  0.19241  0.11460  0.02053  1.0000
  H   H4        1.0  0.49620  0.08016  0.30399  1.0000
  H   H5        1.0  0.02845  0.28129  0.22029  1.0000
  C   C3        1.0  0.47481  0.09743  0.33437  1.0000
  C   C4        1.0  0.47189  0.11192  0.35930  1.0000
  C   C5        1.0  0.33041  0.09642  0.43895  1.0000
  N   N1        1.0  0.35708  0.03211  0.28723  1.0000
  H   H6        1.0  0.02578  0.45402  0.14411  1.0000
  H   H7        1.0  0.46215  0.09197  0.32191  1.0000
  H   H8        1.0  0.04337  0.26239  0.24301  1.0000
  C   C6        1.0  0.20564  0.01458  0.14825  1.0000
  C   C7        1.0  0.11818  0.40836  0.04455  1.0000
  H   H9        1.0  0.01678  0.23158  0.28532  1.0000
  C   C8        1.0  0.25182  0.02501  0.21004  1.0000
  C   C9        1.0  0.13343  0.20924  0.41888  1.0000
  H   H10       1.0  0.08957  0.42475  0.04137  1.0000
  C   C10       1.0  0.24746  0.01663  0.24081  1.0000
  C   C11       1.0  0.09866  0.25374  0.47360  1.0000
  C   C12       1.0  0.03026  0.40243  0.00325  1.0000
  C   C13       1.0  0.10182  0.41760  0.02737  1.0000
  H   H11       1.0  0.47522  0.15530  0.32737  1.0000
  C   C14       1.0  0.03878  0.32104  0.29771  1.0000
  C   C15       1.0  0.08883  0.31644  0.25942  1.0000
  C   C16       1.0  0.08725  0.32419  0.22667  1.0000
  C   C17       1.0  0.08581  0.34480  0.22089  1.0000
  C   C18       1.0  0.08625  0.35799  0.24785  1.0000
  C   C19       1.0  0.08785  0.35026  0.28060  1.0000
  C   C20       1.0  0.08897  0.32962  0.28642  1.0000
  H   H12       1.0  0.08704  0.31415  0.20559  1.0000
  H   H13       1.0  0.08452  0.35046  0.19558  1.0000
  H   H14       1.0  0.08830  0.36029  0.30166  1.0000
  H   H15       1.0  0.09017  0.32393  0.31175  1.0000
  C   C21       1.0  0.22082  0.11539  0.04468  1.0000
  H   H16       1.0  0.47701  0.02220  0.34521  1.0000
  C   C22       1.0  0.24107  0.11666  0.03912  1.0000
  H   H17       1.0  0.08518  0.37476  0.06001  1.0000
  H   H18       1.0  0.25109  0.11661  0.06026  1.0000
  C   C23       1.0  0.30190  0.10772  0.24188  1.0000
  C   C24       1.0  0.32128  0.09843  0.24331  1.0000
  C   C25       1.0  0.33490  0.10361  0.26807  1.0000
  C   C26       1.0  0.32943  0.11840  0.29160  1.0000
  C   C27       1.0  0.31003  0.12762  0.29032  1.0000
  C   C28       1.0  0.29630  0.12221  0.26588  1.0000
  H   H19       1.0  0.32589  0.08740  0.22467  1.0000
  H   H20       1.0  0.34986  0.09673  0.26814  1.0000
  H   H21       1.0  0.30561  0.13920  0.30811  1.0000
  H   H22       1.0  0.28154  0.12961  0.26510  1.0000
  C   C29       1.0  0.17337  0.16783  0.25153  1.0000
  C   C30       1.0  0.15710  0.15643  0.25360  1.0000
  C   C31       1.0  0.13882  0.16473  0.26666  1.0000
  C   C32       1.0  0.13640  0.18455  0.27777  1.0000
  C   C33       1.0  0.15265  0.19598  0.27553  1.0000
  C   C34       1.0  0.17095  0.18766  0.26259  1.0000
  H   H23       1.0  0.15858  0.14119  0.24524  1.0000
  H   H24       1.0  0.12645  0.15565  0.26827  1.0000
  H   H25       1.0  0.15116  0.21123  0.28387  1.0000
  H   H26       1.0  0.18334  0.19671  0.26114  1.0000
  C   C35       1.0  0.12474  0.18018  0.37354  1.0000
  C   C36       1.0  0.39606  0.02264  0.34213  1.0000
  C   C37       1.0  0.38121  0.02743  0.36578  1.0000
  H   H27       1.0  0.06845  0.25245  0.45782  1.0000
  H   H28       1.0  0.37730  0.04251  0.37252  1.0000
  H   H29       1.0  0.33224  0.08992  0.46448  1.0000
  C   C38       1.0  0.20396  0.03330  0.20036  1.0000
  C   C39       1.0  0.20676  0.03257  0.16563  1.0000
  H   H30       1.0  0.32735  0.00487  0.33334  1.0000
  H   H31       1.0  0.20977  0.04585  0.15222  1.0000
  H   H32       1.0  0.09890  0.48435  0.15917  1.0000
  H   H33       1.0  0.14696  0.41993  0.23441  1.0000
  H   H34       1.0  0.20984  0.05045  0.05243  1.0000
  H   H35       1.0  0.48647  0.13013  0.39434  1.0000
  N   N2        1.0  0.11712  0.19894  0.42371  1.0000
  C   C40       1.0  0.09045  0.49833  0.16381  1.0000
  H   H36       1.0  0.22347  0.07148  0.06257  1.0000
  H   H37       1.0  0.25293  0.04088  0.20815  1.0000
  H   H38       1.0  0.14679  0.39241  0.03903  1.0000
  H   H39       1.0  0.13676  0.22091  0.43613  1.0000
  H   H40       1.0  0.20772  0.01414  0.12136  1.0000
  C   C41       1.0  0.21211  0.06597  0.04554  1.0000
  H   H41       1.0  0.02746  0.26626  0.29595  1.0000
  C   C42       1.0  0.03054  0.28168  0.29617  1.0000
  C   C43       1.0  0.03166  0.31237  0.32652  1.0000
  H   H42       1.0  0.26404  0.11932  0.00221  1.0000
  H   H43       1.0  0.09922  0.17711  0.40425  1.0000
  H   H44       1.0  0.36024  0.16655  0.42921  1.0000
  C   C44       1.0  0.00317  0.23950  0.33276  1.0000
  C   C45       1.0  0.47415  0.00693  0.35005  1.0000
  N   N3        1.0  0.18829  0.17226  0.15159  1.0000
  C   C46       1.0  0.18861  0.15594  0.13130  1.0000
  C   C47       1.0  0.17180  0.17798  0.17006  1.0000
  C   C48       1.0  0.17204  0.14500  0.12890  1.0000
  C   C49       1.0  0.15505  0.16725  0.16859  1.0000
  C   C50       1.0  0.15523  0.15062  0.14790  1.0000
  C   C51       1.0  0.20618  0.18283  0.15547  1.0000
  H   H45       1.0  0.20183  0.15107  0.11726  1.0000
  H   H46       1.0  0.17185  0.19039  0.18727  1.0000
  H   H47       1.0  0.17254  0.13188  0.11315  1.0000
  H   H48       1.0  0.14231  0.17145  0.18430  1.0000
  H   H49       1.0  0.14251  0.14190  0.14709  1.0000
  H   H50       1.0  0.21583  0.18108  0.13297  1.0000
  H   H51       1.0  0.20235  0.19891  0.15943  1.0000
  H   H52       1.0  0.21473  0.17688  0.17760  1.0000
  N   N4        1.0  0.33816  0.11595  0.43691  1.0000
  C   C52       1.0  0.33628  0.12629  0.40750  1.0000
  C   C53       1.0  0.08805  0.37303  0.00622  1.0000
  C   C54       1.0  0.34397  0.14473  0.40442  1.0000
  H   H53       1.0  0.09121  0.21440  0.44307  1.0000
  C   C55       1.0  0.35379  0.15249  0.43158  1.0000
  C   C56       1.0  0.00459  0.39839  0.13634  1.0000
  H   H54       1.0  0.32905  0.12017  0.38600  1.0000
  H   H55       1.0  0.47419  0.13177  0.27996  1.0000
  H   H56       1.0  0.34276  0.15265  0.38073  1.0000
  C   C57       1.0  0.39458  0.11020  0.49713  1.0000
  H   H57       1.0  0.02179  0.28561  0.34792  1.0000
  H   H58       1.0  0.33296  0.03976  0.32037  1.0000
  H   H59       1.0  0.25619  0.01963  0.15724  1.0000
  C   C58       1.0  0.05895  0.38745  0.03473  1.0000
  N   N5        1.0  0.13568  0.37890  0.17152  1.0000
  C   C59       1.0  0.14577  0.39445  0.16102  1.0000
  C   C60       1.0  0.13046  0.37731  0.20446  1.0000
  C   C61       1.0  0.15003  0.40942  0.18344  1.0000
  C   C62       1.0  0.13444  0.39201  0.22755  1.0000
  C   C63       1.0  0.14418  0.40822  0.21688  1.0000
  C   C64       1.0  0.13118  0.36337  0.14775  1.0000
  H   H60       1.0  0.15023  0.39557  0.13501  1.0000
  H   H61       1.0  0.12274  0.36484  0.21299  1.0000
  H   H62       1.0  0.15746  0.42203  0.17470  1.0000
  H   H63       1.0  0.12945  0.39101  0.25334  1.0000
  C   C65       1.0  0.34213  0.02790  0.30843  1.0000
  H   H64       1.0  0.11695  0.35724  0.15426  1.0000
  H   H65       1.0  0.12948  0.36936  0.12184  1.0000
  H   H66       1.0  0.14324  0.35126  0.14802  1.0000
  C   C66       1.0  0.34755  0.12356  0.46383  1.0000
  H   H67       1.0  0.12090  0.16921  0.35530  1.0000
  C   C67       1.0  0.20810  0.11551  0.01668  1.0000
  N   N6        1.0  0.21793  0.06710  0.01021  1.0000
  H   H68       1.0  0.02289  0.39539  0.18048  1.0000
  C   C68       1.0  0.49415  0.09080  0.32418  1.0000
  C   C69       1.0  0.04157  0.30971  0.26849  1.0000
  H   H69       1.0  0.05500  0.28241  0.22474  1.0000
  N   N7        1.0  0.03793  0.29016  0.26827  1.0000
  H   H70       1.0  0.35665  0.06250  0.30154  1.0000
  C   C70       1.0  0.07837  0.25269  0.47905  1.0000
  C   C71       1.0  0.37084  0.01258  0.38022  1.0000
  H   H71       1.0  0.37579  0.05455  0.27284  1.0000
  C   C72       1.0  0.01041  0.45721  0.19131  1.0000
  H   H72       1.0  0.05141  0.39139  0.05803  1.0000
  C   C73       1.0  0.14143  0.19053  0.36853  1.0000
  C   C74       1.0  0.39644  0.02616  0.46321  1.0000
  H   H73       1.0  0.35878  0.01643  0.39740  1.0000
  C   C75       1.0  0.19998  0.01591  0.21743  1.0000
  H   H74       1.0  0.38063  0.02048  0.25564  1.0000
  H   H75       1.0  0.04249  0.33632  0.29805  1.0000
  H   H76       1.0  0.02970  0.32085  0.34953  1.0000
  H   H77       1.0  0.33873  0.08605  0.42140  1.0000
  C   C76       1.0  0.23730  0.06878  0.00185  1.0000
  H   H78       1.0  0.24837  0.07008  0.02121  1.0000
  H   H79       1.0  0.35043  0.05803  0.25824  1.0000
  C   C77       1.0  0.48822  0.13695  0.28776  1.0000
  H   H80       1.0  0.19765  0.01640  0.24427  1.0000
  C   C78       1.0  0.40010  0.00895  0.44422  1.0000
  C   C79       1.0  0.00297  0.23435  0.29874  1.0000
  H   H81       1.0  0.04726  0.31649  0.24626  1.0000
  C   C80       1.0  0.07800  0.37782  0.03604  1.0000
  H   H82       1.0  0.10314  0.36632  0.00682  1.0000
  C   C81       1.0  0.11256  0.18472  0.40124  1.0000
  H   H83       1.0  0.40250  0.03983  0.45565  1.0000
  C   C82       1.0  0.36861  0.01715  0.27209  1.0000
  H   H84       1.0  0.31444  0.09748  0.43240  1.0000
  C   C83       1.0  0.04125  0.27851  0.23749  1.0000
  C   C84       1.0  0.14580  0.20524  0.39121  1.0000
  C   C85       1.0  0.25357  0.01310  0.18146  1.0000
  C   C86       1.0  0.33871  0.00825  0.31557  1.0000
  C   C87       1.0  0.02725  0.29263  0.32567  1.0000
  C   C88       1.0  0.48880  0.15022  0.31441  1.0000
  H   H85       1.0  0.19825  0.07552  0.05032  1.0000
  H   H86       1.0  0.40902  0.00911  0.42166  1.0000
  C   C89       1.0  0.36009  0.05279  0.27948  1.0000
  C   C90       1.0  0.10369  0.20399  0.45180  1.0000
  C   C91       1.0  0.48856  0.11892  0.37505  1.0000
  H   H87       1.0  0.09771  0.19056  0.46236  1.0000
  H   H88       1.0  0.02346  0.40431  0.02857  1.0000
  C   C92       1.0  0.35560  0.14186  0.46153  1.0000
  C   C93       1.0  0.00798  0.39652  0.17085  1.0000
  H   H89       1.0  0.15069  0.18745  0.34664  1.0000
  H   H90       1.0  0.02327  0.46145  0.20495  1.0000
  C   C94       1.0  0.13403  0.39942  0.02613  1.0000
  H   H91       1.0  0.11134  0.21134  0.47246  1.0000
  H   H92       1.0  0.34926  0.11529  0.48707  1.0000
  C   C95       1.0  0.24838  0.11817  0.00607  1.0000
  C   C96       1.0  0.40152  0.00279  0.33482  1.0000
  H   H93       1.0  0.24514  0.02601  0.26276  1.0000
  H   H94       1.0  0.44274  0.01194  0.34168  1.0000
  C   C97       1.0  0.45490  0.00115  0.34814  1.0000
  H   H95       1.0  0.36348  0.14753  0.48271  1.0000
  N   N8        1.0  0.05012  0.39209  0.00455  1.0000
  C   C98       1.0  0.38481  0.02577  0.49198  1.0000
  C   C99       1.0  0.07071  0.49852  0.17407  1.0000
  H   H96       1.0  0.12695  0.25486  0.49803  1.0000
  Fe  Fe17      1.0  0.08254  0.25053  0.63705  1.0000
  S   S33       1.0  0.07417  0.22330  0.66456  1.0000
  S   S34       1.0  0.07267  0.25228  0.58144  1.0000
  Fe  Fe18      1.0  0.09239  0.27129  0.70469  1.0000
  S   S35       1.0  0.08429  0.24518  0.73497  1.0000
  S   S36       1.0  0.10387  0.29527  0.73889  1.0000
  Fe  Fe19      1.0  0.10145  0.22601  0.69703  1.0000
  S   S37       1.0  0.12674  0.20131  0.70693  1.0000
  Fe  Fe20      1.0  0.05797  0.24478  0.70020  1.0000
  S   S38       1.0  0.02625  0.24835  0.72003  1.0000
  S   S39       1.0  0.11067  0.25227  0.66735  1.0000
  S   S40       1.0  0.06533  0.27187  0.67214  1.0000
  Fe  Fe21      1.0  0.23146  0.11447  0.88562  1.0000
  S   S41       1.0  0.20138  0.10456  0.87476  1.0000
  S   S42       1.0  0.24584  0.11964  0.93684  1.0000
  Fe  Fe22      1.0  0.24411  0.10998  0.81102  1.0000
  S   S43       1.0  0.21458  0.09914  0.79567  1.0000
  S   S44       1.0  0.26816  0.11643  0.77273  1.0000
  Fe  Fe23      1.0  0.20077  0.12406  0.82822  1.0000
  S   S45       1.0  0.17291  0.14591  0.81899  1.0000
  Fe  Fe24      1.0  0.21734  0.08068  0.84310  1.0000
  S   S46       1.0  0.21354  0.04880  0.85960  1.0000
  S   S47       1.0  0.23016  0.13555  0.84160  1.0000
  S   S48       1.0  0.24760  0.09004  0.85575  1.0000
  Fe  Fe25      1.0  0.40040  0.10504  0.64315  1.0000
  S   S49       1.0  0.40031  0.11881  0.69488  1.0000
  S   S50       1.0  0.39790  0.12383  0.59621  1.0000
  Fe  Fe26      1.0  0.41206  0.06420  0.66923  1.0000
  S   S51       1.0  0.41290  0.07465  0.72227  1.0000
  S   S52       1.0  0.42327  0.03258  0.66034  1.0000
  Fe  Fe27      1.0  0.38402  0.09246  0.71073  1.0000
  S   S53       1.0  0.36026  0.08893  0.75130  1.0000
  Fe  Fe28      1.0  0.42891  0.09965  0.70180  1.0000
  S   S54       1.0  0.45674  0.10826  0.72836  1.0000
  S   S55       1.0  0.38230  0.08004  0.65837  1.0000
  S   S56       1.0  0.42991  0.08792  0.64956  1.0000
  Fe  Fe29      1.0  0.09207  0.41445  0.89445  1.0000
  S   S57       1.0  0.09633  0.42500  0.84118  1.0000
  S   S58       1.0  0.11762  0.40607  0.92933  1.0000
  Fe  Fe30      1.0  0.04827  0.41443  0.88733  1.0000
  S   S59       1.0  0.04880  0.42513  0.83446  1.0000
  S   S60       1.0  0.02062  0.40792  0.91465  1.0000
  Fe  Fe31      1.0  0.07473  0.40254  0.82728  1.0000
  S   S61       1.0  0.07226  0.38406  0.77920  1.0000
  Fe  Fe32      1.0  0.07004  0.44670  0.85266  1.0000
  S   S62       1.0  0.06092  0.47833  0.83473  1.0000
  S   S63       1.0  0.07263  0.39057  0.87948  1.0000
  S   S64       1.0  0.06741  0.43738  0.90657  1.0000
  N   N9        1.0  0.06975  0.45400  0.75817  1.0000
  H   H97       1.0  0.02251  0.39527  0.84570  1.0000
  C   C100      1.0  0.37941  0.01801  0.59839  1.0000
  C   C101      1.0  0.10407  0.45967  0.76510  1.0000
  H   H98       1.0  0.17283  0.03276  0.88428  1.0000
  H   H99       1.0  0.02028  0.21670  0.67159  1.0000
  C   C102      1.0  0.40889  0.01976  0.63255  1.0000
  C   C103      1.0  0.44091  0.14036  0.64086  1.0000
  C   C104      1.0  0.39234  0.02921  0.61649  1.0000
  C   C105      1.0  0.07900  0.37792  0.97558  1.0000
  H   H100      1.0  0.38921  0.04501  0.61873  1.0000
  C   C106      1.0  0.48088  0.10811  0.71110  1.0000
  H   H101      1.0  0.09856  0.41108  0.74972  1.0000
  C   C107      1.0  0.39237  0.02142  0.73214  1.0000
  H   H102      1.0  0.36619  0.02522  0.58713  1.0000
  H   H103      1.0  0.08703  0.37504  0.95230  1.0000
  C   C108      1.0  0.49652  0.11252  0.73219  1.0000
  H   H104      1.0  0.19054  0.01003  0.76436  1.0000
  H   H105      1.0  0.05310  0.27971  0.77711  1.0000
  C   C109      1.0  0.38025  0.08427  0.52816  1.0000
  C   C110      1.0  0.04828  0.29219  0.76014  1.0000
  C   C111      1.0  0.21144  0.02698  0.83553  1.0000
  C   C112      1.0  0.20237  0.02738  0.80398  1.0000
  H   H106      1.0  0.06509  0.33531  0.84303  1.0000
  H   H107      1.0  0.19790  0.04145  0.79231  1.0000
  C   C113      1.0  0.05993  0.38755  0.97522  1.0000
  C   C114      1.0  0.29334  0.10729  0.76580  1.0000
  C   C115      1.0  0.30340  0.09330  0.78682  1.0000
  C   C116      1.0  0.32375  0.08773  0.78169  1.0000
  C   C117      1.0  0.33431  0.09578  0.75522  1.0000
  C   C118      1.0  0.32414  0.10945  0.73383  1.0000
  C   C119      1.0  0.30386  0.11521  0.73921  1.0000
  H   H108      1.0  0.29558  0.08702  0.80733  1.0000
  H   H109      1.0  0.33140  0.07711  0.79841  1.0000
  H   H110      1.0  0.33196  0.11585  0.71342  1.0000
  H   H111      1.0  0.29628  0.12601  0.72272  1.0000
  C   C120      1.0  0.09466  0.31992  0.74967  1.0000
  C   C121      1.0  0.08007  0.33073  0.73084  1.0000
  C   C122      1.0  0.07354  0.35031  0.74017  1.0000
  C   C123      1.0  0.08121  0.35930  0.76872  1.0000
  C   C124      1.0  0.09566  0.34842  0.78774  1.0000
  C   C125      1.0  0.10242  0.32895  0.77810  1.0000
  H   H112      1.0  0.07410  0.32416  0.70869  1.0000
  H   H113      1.0  0.06246  0.35858  0.72509  1.0000
  H   H114      1.0  0.10184  0.35510  0.80961  1.0000
  H   H115      1.0  0.11381  0.32085  0.79277  1.0000
  C   C126      1.0  0.13873  0.18537  0.73832  1.0000
  C   C127      1.0  0.13219  0.18487  0.77163  1.0000
  C   C128      1.0  0.14256  0.17243  0.79551  1.0000
  C   C129      1.0  0.15984  0.16043  0.78686  1.0000
  C   C130      1.0  0.16637  0.16092  0.75354  1.0000
  C   C131      1.0  0.15589  0.17321  0.72959  1.0000
  H   H116      1.0  0.11904  0.19397  0.77898  1.0000
  H   H117      1.0  0.13720  0.17220  0.82104  1.0000
  H   H118      1.0  0.17952  0.15182  0.74617  1.0000
  H   H119      1.0  0.16116  0.17328  0.70399  1.0000
  C   C132      1.0  0.48024  0.14711  0.63070  1.0000
  C   C133      1.0  0.39352  0.11136  0.55837  1.0000
  C   C134      1.0  0.38461  0.09348  0.55854  1.0000
  C   C135      1.0  0.13355  0.39926  0.99106  1.0000
  H   H120      1.0  0.38060  0.08700  0.58208  1.0000
  C   C136      1.0  0.00347  0.23367  0.54958  1.0000
  C   C137      1.0  0.00481  0.23926  0.70187  1.0000
  C   C138      1.0  0.20393  0.06588  0.98569  1.0000
  H   H121      1.0  0.14591  0.39211  0.97730  1.0000
  C   C139      1.0  0.19813  0.00952  0.78827  1.0000
  C   C140      1.0  0.10369  0.25340  0.53483  1.0000
  C   C141      1.0  0.08336  0.25260  0.54031  1.0000
  H   H122      1.0  0.42551  0.13783  0.64501  1.0000
  H   H123      1.0  0.11359  0.25376  0.55607  1.0000
  H   H124      1.0  0.23303  0.06903  0.91685  1.0000
  H   H125      1.0  0.03098  0.41732  0.99183  1.0000
  C   C142      1.0  0.23567  0.11817  0.97806  1.0000
  H   H126      1.0  0.17869  0.19728  0.77902  1.0000
  H   H127      1.0  0.20543  0.11680  0.96250  1.0000
  C   C143      1.0  0.16997  0.01792  0.87640  1.0000
  N   N10       1.0  0.29668  0.12437  0.87433  1.0000
  C   C144      1.0  0.28098  0.13730  0.86552  1.0000
  C   C145      1.0  0.31316  0.12213  0.85439  1.0000
  C   C146      1.0  0.28153  0.14845  0.83609  1.0000
  C   C147      1.0  0.31431  0.13326  0.82503  1.0000
  C   C148      1.0  0.29831  0.14636  0.81574  1.0000
  C   C149      1.0  0.29520  0.11220  0.90445  1.0000
  H   H128      1.0  0.26777  0.13875  0.88103  1.0000
  H   H129      1.0  0.32536  0.11140  0.86061  1.0000
  H   H130      1.0  0.26875  0.15808  0.82841  1.0000
  H   H131      1.0  0.32711  0.13099  0.80867  1.0000
  H   H132      1.0  0.29855  0.15423  0.79207  1.0000
  H   H133      1.0  0.28490  0.10057  0.89967  1.0000
  H   H134      1.0  0.30980  0.10500  0.91218  1.0000
  H   H135      1.0  0.28926  0.12146  0.92580  1.0000
  C   C150      1.0  0.17337  0.21050  0.79401  1.0000
  C   C151      1.0  0.15561  0.24028  0.71913  1.0000
  H   H136      1.0  0.15676  0.23950  0.69201  1.0000
  C   C152      1.0  0.15150  0.24089  0.78826  1.0000
  H   H137      1.0  0.14973  0.24119  0.81528  1.0000
  C   C153      1.0  0.14202  0.25616  0.76909  1.0000
  H   H138      1.0  0.17338  0.21303  0.72685  1.0000
  H   H139      1.0  0.03709  0.24512  0.63071  1.0000
  H   H140      1.0  0.48157  0.17426  0.68968  1.0000
  C   C154      1.0  0.02921  0.34375  0.78416  1.0000
  C   C155      1.0  0.48736  0.05343  0.70477  1.0000
  H   H141      1.0  0.03983  0.36156  0.82412  1.0000
  H   H142      1.0  0.46500  0.01506  0.67048  1.0000
  H   H143      1.0  0.05313  0.39164  0.95137  1.0000
  N   N11       1.0  0.16280  0.22575  0.77316  1.0000
  H   H144      1.0  0.10090  0.49057  0.84953  1.0000
  H   H145      1.0  0.05507  0.25169  0.51575  1.0000
  H   H146      1.0  0.38060  0.04992  0.75095  1.0000
  H   H147      1.0  0.49571  0.14948  0.62662  1.0000
  C   C156      1.0  0.44936  0.13677  0.60936  1.0000
  C   C157      1.0  0.10937  0.43960  0.75954  1.0000
  H   H148      1.0  0.06343  0.42410  0.74924  1.0000
  C   C158      1.0  0.04877  0.46130  0.75817  1.0000
  C   C159      1.0  0.39840  0.11975  0.52757  1.0000
  H   H149      1.0  0.04138  0.45667  0.73494  1.0000
  C   C160      1.0  0.10137  0.41753  0.99181  1.0000
  C   C161      1.0  0.00209  0.40309  0.88576  1.0000
  H   H150      1.0  0.12479  0.43389  0.76069  1.0000
  H   H151      1.0  0.11529  0.46973  0.77071  1.0000
  H   H152      1.0  0.45677  0.04833  0.69541  1.0000
  C   C162      1.0  0.24303  0.06949  0.96818  1.0000
  C   C163      1.0  0.46917  0.14014  0.60416  1.0000
  H   H153      1.0  0.04677  0.47772  0.76001  1.0000
  H   H154      1.0  0.44584  0.14933  0.69159  1.0000
  H   H155      1.0  0.05980  0.29327  0.74060  1.0000
  H   H156      1.0  0.01850  0.35537  0.77530  1.0000
  H   H157      1.0  0.16342  0.20523  0.81363  1.0000
  H   H158      1.0  0.18634  0.21650  0.80616  1.0000
  H   H159      1.0  0.22402  0.00804  0.87479  1.0000
  C   C164      1.0  0.20917  0.06652  0.95176  1.0000
  H   H160      1.0  0.18578  0.00373  0.91762  1.0000
  H   H161      1.0  0.13695  0.26763  0.71925  1.0000
  C   C165      1.0  0.16493  0.22529  0.73903  1.0000
  C   C166      1.0  0.48467  0.10494  0.67691  1.0000
  H   H162      1.0  0.06893  0.30326  0.81279  1.0000
  H   H163      1.0  0.13287  0.26812  0.78089  1.0000
  C   C167      1.0  0.04113  0.34722  0.81173  1.0000
  C   C168      1.0  0.47211  0.04240  0.69343  1.0000
  H   H164      1.0  0.03412  0.26883  0.61008  1.0000
  H   H165      1.0  0.00826  0.22698  0.52590  1.0000
  C   C169      1.0  0.49653  0.01635  0.67679  1.0000
  H   H166      1.0  0.40526  0.13361  0.52727  1.0000
  C   C170      1.0  0.11725  0.40811  0.97361  1.0000
  C   C171      1.0  0.05735  0.31436  0.80523  1.0000
  H   H167      1.0  0.02261  0.32302  0.74579  1.0000
  C   C172      1.0  0.14424  0.25587  0.73435  1.0000
  C   C173      1.0  0.00596  0.22365  0.67877  1.0000
  C   C174      1.0  0.09467  0.42680  0.75336  1.0000
  C   C175      1.0  0.21545  0.11674  0.98364  1.0000
  H   H168      1.0  0.35293  0.05300  0.71010  1.0000
  H   H169      1.0  0.48354  0.06785  0.71583  1.0000
  H   H170      1.0  0.08877  0.42457  0.97856  1.0000
  N   N12       1.0  0.47188  0.15025  0.66170  1.0000
  H   H171      1.0  0.47281  0.10140  0.66036  1.0000
  C   C176      1.0  0.45244  0.14707  0.66695  1.0000
  C   C177      1.0  0.41314  0.99936  0.62882  1.0000
  C   C178      1.0  0.08408  0.46668  0.76414  1.0000
  C   C179      1.0  0.36327  0.03986  0.71003  1.0000
  C   C180      1.0  0.22885  0.06833  0.94306  1.0000
  C   C181      1.0  0.03161  0.32546  0.76765  1.0000
  C   C182      1.0  0.07480  0.43427  0.75306  1.0000
  H   H172      1.0  0.01952  0.26407  0.64655  1.0000
  C   C183      1.0  0.17733  0.00143  0.89505  1.0000
  H   H173      1.0  0.03438  0.28827  0.74790  1.0000
  N   N13       1.0  0.39023  0.00660  0.70944  1.0000
  H   H174      1.0  0.44052  0.13132  0.58912  1.0000
  C   C184      1.0  0.21698  0.00854  0.85041  1.0000
  N   N14       1.0  0.04538  0.31096  0.77855  1.0000
  C   C185      1.0  0.07082  0.25222  0.51209  1.0000
  H   H175      1.0  0.04128  0.45536  0.78034  1.0000
  C   C186      1.0  0.05528  0.33245  0.82240  1.0000
  C   C187      1.0  0.47675  0.02373  0.67940  1.0000
  C   C188      1.0  0.36119  0.02469  0.68694  1.0000
  H   H176      1.0  0.34929  0.02590  0.66867  1.0000
  C   C189      1.0  0.37477  0.00798  0.68722  1.0000
  C   C190      1.0  0.16001  0.01509  0.84639  1.0000
  C   C191      1.0  0.01723  0.24141  0.57113  1.0000
  H   H177      1.0  0.37270  0.07085  0.52865  1.0000
  H   H178      1.0  0.25826  0.07147  0.96157  1.0000
  H   H179      1.0  0.40470  0.02043  0.74955  1.0000
  C   C192      1.0  0.02613  0.25742  0.62322  1.0000
  H   H180      1.0  0.47592  0.13727  0.57979  1.0000
  H   H181      1.0  0.47901  0.15193  0.71367  1.0000
  H   H182      1.0  0.02032  0.39399  0.98751  1.0000
  C   C193      1.0  0.37887  0.03818  0.73294  1.0000
  H   H183      1.0  0.49379  0.11489  0.75870  1.0000
  H   H184      1.0  0.38210  0.03901  0.50710  1.0000
  C   C194      1.0  0.00716  0.39750  0.85292  1.0000
  H   H185      1.0  0.08009  0.48224  0.76915  1.0000
  H   H186      1.0  0.36766  0.00806  0.52349  1.0000
  C   C195      1.0  0.37666  0.00822  0.50105  1.0000
  H   H187      1.0  0.15495  0.02772  0.83103  1.0000
  H   H188      1.0  0.19811  0.06580  0.93218  1.0000
  C   C196      1.0  0.48357  0.15785  0.68909  1.0000
  H   H189      1.0  0.03276  0.24053  0.56400  1.0000
  C   C197      1.0  0.11123  0.25404  0.50177  1.0000
  N   N15       1.0  0.01127  0.24988  0.60098  1.0000
  H   H190      1.0  0.18858  0.06461  0.99233  1.0000
  H   H191      1.0  0.49960  0.15314  0.68610  1.0000
  Fe  Fe33      1.0  0.08966  0.63040  0.18896  1.0000
  S   S65       1.0  0.06574  0.64358  0.15521  1.0000
  S   S66       1.0  0.10751  0.64848  0.22422  1.0000
  Fe  Fe34      1.0  0.08585  0.58794  0.16160  1.0000
  S   S67       1.0  0.06145  0.59808  0.12592  1.0000
  S   S68       1.0  0.10089  0.55666  0.16266  1.0000
  Fe  Fe35      1.0  0.07955  0.62373  0.11511  1.0000
  S   S69       1.0  0.08761  0.63655  0.06517  1.0000
  Fe  Fe36      1.0  0.04998  0.61704  0.16927  1.0000
  S   S70       1.0  0.01899  0.62162  0.18866  1.0000
  S   S71       1.0  0.10492  0.61239  0.14780  1.0000
  S   S72       1.0  0.07296  0.60491  0.20595  1.0000
  Fe  Fe37      1.0  0.08363  0.76102  0.29535  1.0000
  S   S73       1.0  0.07612  0.79260  0.27858  1.0000
  S   S74       1.0  0.07586  0.73733  0.25776  1.0000
  Fe  Fe38      1.0  0.09345  0.77436  0.36742  1.0000
  S   S75       1.0  0.08714  0.80653  0.35497  1.0000
  S   S76       1.0  0.10210  0.76207  0.41941  1.0000
  Fe  Fe39      1.0  0.06029  0.79631  0.32824  1.0000
  S   S77       1.0  0.02952  0.81032  0.34100  1.0000
  Fe  Fe40      1.0  0.10371  0.80001  0.30621  1.0000
  S   S78       1.0  0.13057  0.81580  0.28625  1.0000
  S   S79       1.0  0.06606  0.76459  0.34296  1.0000
  S   S80       1.0  0.11191  0.76801  0.32077  1.0000
  Fe  Fe41      1.0  0.18887  0.90367  0.18703  1.0000
  S   S81       1.0  0.21799  0.88650  0.17561  1.0000
  S   S82       1.0  0.16025  0.89138  0.20769  1.0000
  Fe  Fe42      1.0  0.20474  0.94287  0.16057  1.0000
  S   S83       1.0  0.23467  0.92782  0.14830  1.0000
  S   S84       1.0  0.20129  0.97485  0.14224  1.0000
  Fe  Fe43      1.0  0.21762  0.90368  0.12651  1.0000
  S   S85       1.0  0.22431  0.88879  0.07535  1.0000
  Fe  Fe44      1.0  0.23243  0.91255  0.19803  1.0000
  S   S86       1.0  0.25405  0.91310  0.24233  1.0000
  S   S87       1.0  0.18775  0.91927  0.13662  1.0000
  S   S88       1.0  0.20315  0.92902  0.21156  1.0000
  Fe  Fe45      1.0  0.36587  0.91594  0.30772  1.0000
  S   S89       1.0  0.35455  0.91941  0.36050  1.0000
  S   S90       1.0  0.34789  0.90890  0.26130  1.0000
  Fe  Fe46      1.0  0.40854  0.92588  0.32798  1.0000
  S   S91       1.0  0.40017  0.92975  0.38226  1.0000
  S   S92       1.0  0.43767  0.93709  0.31017  1.0000
  Fe  Fe47      1.0  0.38334  0.90297  0.37545  1.0000
  S   S93       1.0  0.38344  0.87763  0.41203  1.0000
  Fe  Fe48      1.0  0.37239  0.94579  0.36286  1.0000
  S   S94       1.0  0.36178  0.97441  0.38745  1.0000
  S   S95       1.0  0.39384  0.89739  0.32220  1.0000
  S   S96       1.0  0.38138  0.94388  0.30884  1.0000
  C   C198      1.0  0.38050  0.88053  0.45595  1.0000
  C   C199      1.0  0.37976  0.86333  0.47509  1.0000
  C   C200      1.0  0.37885  0.89903  0.47218  1.0000
  H   H192      1.0  0.38105  0.84901  0.46289  1.0000
  H   H193      1.0  0.37942  0.91241  0.45760  1.0000
  C   C201      1.0  0.13005  0.84436  0.35609  1.0000
  H   H194      1.0  0.24129  0.95851  0.24207  1.0000
  H   H195      1.0  0.30882  0.87115  0.25497  1.0000
  H   H196      1.0  0.39669  0.97261  0.34576  1.0000
  H   H197      1.0  0.30775  0.87912  0.37151  1.0000
  C   C202      1.0  0.46199  0.92518  0.31214  1.0000
  C   C203      1.0  0.46589  0.90577  0.32371  1.0000
  C   C204      1.0  0.47794  0.93585  0.30222  1.0000
  H   H198      1.0  0.45378  0.89735  0.33134  1.0000
  H   H199      1.0  0.47507  0.95079  0.29284  1.0000
  C   C205      1.0  0.22088  0.89890  0.03406  1.0000
  C   C206      1.0  0.01595  0.56427  0.14466  1.0000
  C   C207      1.0  0.21382  0.91862  0.02854  1.0000
  H   H200      1.0  0.10756  0.62027  0.28050  1.0000
  H   H201      1.0  0.21079  0.92840  0.04972  1.0000
  C   C208      1.0  0.02444  0.80080  0.46342  1.0000
  C   C209      1.0  0.09891  0.76020  0.48827  1.0000
  C   C210      1.0  0.32346  0.86347  0.26146  1.0000
  N   N16       1.0  0.04340  0.76484  0.44310  1.0000
  C   C211      1.0  0.13225  0.79854  0.42886  1.0000
  C   C212      1.0  0.28017  0.91356  0.24614  1.0000
  C   C213      1.0  0.29300  0.91026  0.21890  1.0000
  C   C214      1.0  0.31369  0.90959  0.22379  1.0000
  C   C215      1.0  0.32178  0.91240  0.25582  1.0000
  C   C216      1.0  0.30892  0.91624  0.28288  1.0000
  C   C217      1.0  0.28827  0.91667  0.27807  1.0000
  H   H202      1.0  0.28703  0.90777  0.19422  1.0000
  H   H203      1.0  0.32349  0.90653  0.20268  1.0000
  H   H204      1.0  0.31490  0.91838  0.30766  1.0000
  H   H205      1.0  0.27847  0.91926  0.29931  1.0000
  C   C218      1.0  0.09437  0.77161  0.45939  1.0000
  H   H206      1.0  0.46445  0.95251  0.36681  1.0000
  C   C219      1.0  0.08410  0.79025  0.46312  1.0000
  C   C220      1.0  0.14070  0.79500  0.39734  1.0000
  H   H207      1.0  0.08048  0.79923  0.44121  1.0000
  H   H208      1.0  0.06901  0.73020  0.18144  1.0000
  C   C221      1.0  0.45145  0.98145  0.35427  1.0000
  H   H209      1.0  0.19611  0.98459  0.21355  1.0000
  H   H210      1.0  0.02359  0.77545  0.30029  1.0000
  H   H211      1.0  0.14317  0.84291  0.33923  1.0000
  C   C222      1.0  0.15246  0.87026  0.22995  1.0000
  C   C223      1.0  0.16575  0.85479  0.24141  1.0000
  C   C224      1.0  0.15875  0.83835  0.25831  1.0000
  C   C225      1.0  0.13836  0.83693  0.26403  1.0000
  C   C226      1.0  0.12507  0.85238  0.25254  1.0000
  C   C227      1.0  0.13208  0.86884  0.23568  1.0000
  H   H212      1.0  0.18146  0.85552  0.23737  1.0000
  H   H213      1.0  0.16927  0.82659  0.26701  1.0000
  H   H214      1.0  0.10937  0.85169  0.25662  1.0000
  H   H215      1.0  0.12157  0.88062  0.22704  1.0000
  H   H216      1.0  0.29897  0.87459  0.31183  1.0000
  C   C228      1.0  0.07420  0.63040  0.02933  1.0000
  C   C229      1.0  0.05745  0.61976  0.03199  1.0000
  H   H217      1.0  0.43665  0.97653  0.35217  1.0000
  H   H218      1.0  0.05229  0.61556  0.05640  1.0000
  C   C230      1.0  0.08865  0.53458  0.16610  1.0000
  C   C231      1.0  0.09939  0.51627  0.16011  1.0000
  C   C232      1.0  0.06882  0.53481  0.17589  1.0000
  H   H219      1.0  0.11474  0.51593  0.15253  1.0000
  H   H220      1.0  0.06045  0.54878  0.18086  1.0000
  C   C233      1.0  0.48556  0.89710  0.32492  1.0000
  H   H221      1.0  0.07848  0.67844  0.09691  1.0000
  N   N17       1.0  0.48621  0.97356  0.36382  1.0000
  H   H222      1.0  0.14006  0.55937  0.20185  1.0000
  H   H223      1.0  0.02094  0.61259  0.11766  1.0000
  C   C234      1.0  0.09780  0.67246  0.23691  1.0000
  C   C235      1.0  0.07904  0.68019  0.22654  1.0000
  C   C236      1.0  0.07229  0.69981  0.23454  1.0000
  C   C237      1.0  0.08410  0.71194  0.25319  1.0000
  C   C238      1.0  0.10265  0.70406  0.26449  1.0000
  C   C239      1.0  0.10948  0.68439  0.25631  1.0000
  H   H224      1.0  0.06979  0.67118  0.21195  1.0000
  H   H225      1.0  0.05786  0.70571  0.22589  1.0000
  H   H226      1.0  0.11194  0.71328  0.27870  1.0000
  H   H227      1.0  0.12401  0.67855  0.26453  1.0000
  C   C240      1.0  0.25087  0.99290  0.18408  1.0000
  H   H228      1.0  0.03501  0.77370  0.39328  1.0000
  C   C241      1.0  0.35047  0.99290  0.30043  1.0000
  C   C242      1.0  0.24329  0.96374  0.21597  1.0000
  N   N18       1.0  0.24678  0.98477  0.21442  1.0000
  C   C243      1.0  0.05329  0.74583  0.43237  1.0000
  H   H229      1.0  0.04221  0.73489  0.42824  1.0000
  H   H230      1.0  0.06168  0.74760  0.40881  1.0000
  H   H231      1.0  0.48842  0.88197  0.33337  1.0000
  H   H232      1.0  0.06441  0.73994  0.45114  1.0000
  H   H233      1.0  0.09035  0.58854  0.01756  1.0000
  C   C244      1.0  0.36549  0.99733  0.27845  1.0000
  C   C245      1.0  0.09738  0.57244  0.26884  1.0000
  H   H234      1.0  0.08734  0.56176  0.27708  1.0000
  H   H235      1.0  0.25601  0.95447  0.20508  1.0000
  N   N19       1.0  0.09069  0.71110  0.15644  1.0000
  C   C246      1.0  0.08049  0.70335  0.13060  1.0000
  C   C247      1.0  0.10690  0.70060  0.16992  1.0000
  C   C248      1.0  0.08661  0.68471  0.11729  1.0000
  C   C249      1.0  0.11331  0.68185  0.15742  1.0000
  C   C250      1.0  0.10312  0.67393  0.13085  1.0000
  H   H236      1.0  0.08512  0.59577  0.30143  1.0000
  H   H237      1.0  0.06746  0.71153  0.12028  1.0000
  H   H238      1.0  0.11465  0.70642  0.19110  1.0000
  C   C251      1.0  0.09613  0.59149  0.28246  1.0000
  H   H239      1.0  0.12574  0.67329  0.16894  1.0000
  H   H240      1.0  0.10777  0.65931  0.12110  1.0000
  H   H241      1.0  0.08313  0.74195  0.14966  1.0000
  H   H242      1.0  0.04470  0.51715  0.18814  1.0000
  H   H243      1.0  0.13250  0.78669  0.44721  1.0000
  C   C252      1.0  0.04732  0.61459  0.00295  1.0000
  H   H244      1.0  0.32297  0.84737  0.25694  1.0000
  C   C253      1.0  0.13825  0.57563  0.20623  1.0000
  C   C254      1.0  0.04237  0.76952  0.47649  1.0000
  H   H245      1.0  0.03016  0.56021  0.13296  1.0000
  H   H246      1.0  0.14733  0.78035  0.39098  1.0000
  C   C255      1.0  0.00087  0.62215  0.15737  1.0000
  N   N20       1.0  0.17058  0.87751  0.08726  1.0000
  C   C256      1.0  0.18463  0.86281  0.09631  1.0000
  C   C257      1.0  0.15425  0.88179  0.10694  1.0000
  C   C258      1.0  0.18239  0.85178  0.12550  1.0000
  C   C259      1.0  0.15134  0.87077  0.13587  1.0000
  C   C260      1.0  0.16557  0.85576  0.14527  1.0000
  C   C261      1.0  0.49759  0.92741  0.30433  1.0000
  H   H247      1.0  0.19784  0.85972  0.08124  1.0000
  H   H248      1.0  0.14355  0.89400  0.10067  1.0000
  H   H249      1.0  0.19381  0.84051  0.13304  1.0000
  H   H250      1.0  0.13860  0.87444  0.15187  1.0000
  H   H251      1.0  0.16380  0.84766  0.16839  1.0000
  H   H252      1.0  0.24103  0.99007  0.26641  1.0000
  C   C262      1.0  0.01515  0.57269  0.17660  1.0000
  H   H253      1.0  0.37500  0.98547  0.26716  1.0000
  C   C263      1.0  0.34819  0.86421  0.30617  1.0000
  C   C264      1.0  0.31433  0.87216  0.31956  1.0000
  C   C265      1.0  0.35351  0.86637  0.33980  1.0000
  C   C266      1.0  0.31918  0.87472  0.35334  1.0000
  C   C267      1.0  0.33890  0.87167  0.36348  1.0000
  H   H254      1.0  0.13303  0.58264  0.18231  1.0000
  C   C268      1.0  0.46734  0.96781  0.36241  1.0000
  H   H255      1.0  0.36891  0.86415  0.34750  1.0000
  H   H256      1.0  0.13192  0.61064  0.23625  1.0000
  H   H257      1.0  0.35970  0.86051  0.28779  1.0000
  C   C269      1.0  0.02512  0.79569  0.42951  1.0000
  H   H258      1.0  0.39429  0.97840  0.43872  1.0000
  C   C270      1.0  0.05995  0.51686  0.18004  1.0000
  C   C271      1.0  0.19920  0.99785  0.20013  1.0000
  C   C272      1.0  0.12284  0.81710  0.43623  1.0000
  H   H259      1.0  0.25136  0.98386  0.16155  1.0000
  N   N21       1.0  0.12386  0.58089  0.23287  1.0000
  N   N22       1.0  0.13117  0.82864  0.38144  1.0000
  C   C273      1.0  0.12254  0.59967  0.24575  1.0000
  C   C274      1.0  0.10877  0.60521  0.27086  1.0000
  H   H260      1.0  0.34295  0.87364  0.38958  1.0000
  C   C275      1.0  0.08389  0.73065  0.16985  1.0000
  C   C276      1.0  0.48974  0.99284  0.35785  1.0000
  H   H261      1.0  0.22971  0.96116  0.20158  1.0000
  H   H262      1.0  0.10698  0.74582  0.48577  1.0000
  C   C277      1.0  0.00931  0.78156  0.30928  1.0000
  C   C278      1.0  0.00806  0.79846  0.32957  1.0000
  C   C279      1.0  0.14008  0.81033  0.37381  1.0000
  H   H263      1.0  0.09388  0.73559  0.18979  1.0000
  H   H264      1.0  0.14662  0.80740  0.34930  1.0000
  C   C280      1.0  0.11138  0.56738  0.24385  1.0000
  C   C281      1.0  0.07839  0.79726  0.49534  1.0000
  H   H265      1.0  0.15297  0.58063  0.21271  1.0000
  H   H266      1.0  0.11194  0.55267  0.23287  1.0000
  N   N23       1.0  0.37986  0.99156  0.48175  1.0000
  C   C282      1.0  0.22472  0.88652  0.00598  1.0000
  H   H267      1.0  0.01851  0.80579  0.41071  1.0000
  N   N24       1.0  0.32880  0.86704  0.29647  1.0000
  H   H268      1.0  0.11460  0.84632  0.41760  1.0000
  C   C283      1.0  0.03462  0.77749  0.41974  1.0000
  C   C284      1.0  0.12228  0.83204  0.41196  1.0000
  C   C285      1.0  0.37597  0.99279  0.37216  1.0000
  H   H269      1.0  0.34826  0.97761  0.30642  1.0000
  H   H270      1.0  0.33443  0.86940  0.24418  1.0000
  H   H271      1.0  0.12958  0.85928  0.36773  1.0000
  C   C286      1.0  0.39192  0.98788  0.35071  1.0000
  H   H272      1.0  0.23019  0.87124  0.00980  1.0000
  H   H273      1.0  0.04943  0.75959  0.49508  1.0000
  H   H274      1.0  0.11661  0.84335  0.34036  1.0000
  C   C287      1.0  0.39167  0.99165  0.45395  1.0000
  H   H275      1.0  0.02868  0.57556  0.18965  1.0000
  H   H276      1.0  0.11573  0.81972  0.46040  1.0000
  H   H277      1.0  0.03440  0.60630  0.00518  1.0000
  C   C288      1.0  0.00572  0.61643  0.12448  1.0000
  C   C289      1.0  0.03298  0.78759  0.48715  1.0000
  H   H278      1.0  0.49819  0.94400  0.37560  1.0000
  H   H279      1.0  0.36844  0.96393  0.46961  1.0000
  H   H280      1.0  0.18048  0.90323  0.06504  1.0000
  H   H281      1.0  0.18351  0.88150  0.03908  1.0000
  C   C290      1.0  0.24499  0.99634  0.24259  1.0000
  C   C291      1.0  0.17354  0.88960  0.05752  1.0000
  H   H282      1.0  0.01743  0.81502  0.47124  1.0000
  C   C292      1.0  0.37138  0.97324  0.49180  1.0000
  H   H283      1.0  0.15931  0.89382  0.04461  1.0000
  C   C293      1.0  0.20205  0.99710  0.16542  1.0000
  H   H284      1.0  0.07035  0.81165  0.49789  1.0000
  H   H285      1.0  0.41293  0.99891  0.31647  1.0000
  Fe  Fe49      1.0  0.07783  0.78465  0.61863  1.0000
  S   S97       1.0  0.06826  0.80906  0.65523  1.0000
  S   S98       1.0  0.07311  0.79459  0.56363  1.0000
  Fe  Fe50      1.0  0.08773  0.75561  0.67733  1.0000
  S   S99       1.0  0.07955  0.77860  0.71676  1.0000
  S   S100      1.0  0.09537  0.72252  0.68743  1.0000
  Fe  Fe51      1.0  0.05293  0.78619  0.68371  1.0000
  S   S101      1.0  0.02312  0.78809  0.71060  1.0000
  Fe  Fe52      1.0  0.09585  0.79975  0.68503  1.0000
  S   S102      1.0  0.11503  0.82563  0.69880  1.0000
  S   S103      1.0  0.06048  0.76249  0.64562  1.0000
  S   S104      1.0  0.10601  0.77606  0.64718  1.0000
  Fe  Fe53      1.0  0.19002  0.89505  0.81159  1.0000
  S   S105      1.0  0.21778  0.88601  0.84133  1.0000
  S   S106      1.0  0.16867  0.87022  0.80443  1.0000
  Fe  Fe54      1.0  0.20246  0.93827  0.80671  1.0000
  S   S107      1.0  0.23065  0.93148  0.83510  1.0000
  S   S108      1.0  0.19569  0.96916  0.78472  1.0000
  Fe  Fe55      1.0  0.23378  0.90387  0.80352  1.0000
  S   S109      1.0  0.25983  0.89084  0.77193  1.0000
  Fe  Fe56      1.0  0.21207  0.91453  0.87054  1.0000
  S   S110      1.0  0.21050  0.92368  0.92631  1.0000
  S   S111      1.0  0.20640  0.91150  0.77283  1.0000
  S   S112      1.0  0.18347  0.92273  0.84286  1.0000
  Fe  Fe57      1.0  0.05342  0.61606  0.88329  1.0000
  S   S113      1.0  0.08498  0.61667  0.86683  1.0000
  S   S114      1.0  0.04097  0.61271  0.93550  1.0000
  Fe  Fe58      1.0  0.03885  0.61432  0.81117  1.0000
  S   S115      1.0  0.06926  0.61400  0.78886  1.0000
  H   H286      1.0  0.03801  0.74579  0.70385  1.0000
  Fe  Fe59      1.0  0.07783  0.59234  0.83088  1.0000
  S   S116      1.0  0.09688  0.56284  0.83091  1.0000
  Fe  Fe60      1.0  0.07339  0.63828  0.82638  1.0000
  S   S117      1.0  0.08233  0.66989  0.81810  1.0000
  S   S118      1.0  0.04697  0.59098  0.84944  1.0000
  S   S119      1.0  0.04232  0.63933  0.84651  1.0000
  Fe  Fe61      1.0  0.37169  0.90965  0.60331  1.0000
  S   S120      1.0  0.37652  0.90627  0.65932  1.0000
  S   S121      1.0  0.37251  0.88247  0.57047  1.0000
  Fe  Fe62      1.0  0.36878  0.95368  0.60619  1.0000
  S   S122      1.0  0.37333  0.95397  0.66163  1.0000
  S   S123      1.0  0.36524  0.98294  0.57960  1.0000
  Fe  Fe63      1.0  0.39756  0.93005  0.65223  1.0000
  S   S124      1.0  0.42648  0.93198  0.68087  1.0000
  Fe  Fe64      1.0  0.35174  0.93047  0.66422  1.0000
  S   S125      1.0  0.32858  0.93724  0.70575  1.0000
  S   S126      1.0  0.39446  0.93143  0.59632  1.0000
  S   S127      1.0  0.34547  0.93209  0.60864  1.0000
  C   C294      1.0  0.45061  0.93049  0.66318  1.0000
  C   C295      1.0  0.46688  0.93287  0.68429  1.0000
  C   C296      1.0  0.45411  0.92535  0.62958  1.0000
  H   H287      1.0  0.46436  0.93685  0.71031  1.0000
  H   H288      1.0  0.44176  0.92357  0.61298  1.0000
  C   C297      1.0  0.15746  0.99591  0.83543  1.0000
  C   C298      1.0  0.22568  0.85205  0.77177  1.0000
  H   H289      1.0  0.20547  0.94113  0.99172  1.0000
  H   H290      1.0  0.22701  0.83764  0.83207  1.0000
  H   H291      1.0  0.41780  0.87571  0.56314  1.0000
  C   C299      1.0  0.27949  0.90357  0.75483  1.0000
  C   C300      1.0  0.28396  0.92210  0.76676  1.0000
  C   C301      1.0  0.29950  0.93179  0.75216  1.0000
  C   C302      1.0  0.31056  0.92328  0.72512  1.0000
  C   C303      1.0  0.30618  0.90467  0.71337  1.0000
  C   C304      1.0  0.29084  0.89484  0.72833  1.0000
  H   H292      1.0  0.27557  0.92892  0.78738  1.0000
  H   H293      1.0  0.30283  0.94610  0.76162  1.0000
  H   H294      1.0  0.31456  0.89790  0.69268  1.0000
  H   H295      1.0  0.28765  0.88043  0.71906  1.0000
  H   H296      1.0  0.07305  0.56176  0.89154  1.0000
  C   C305      1.0  0.03791  0.67554  0.76406  1.0000
  H   H297      1.0  0.24366  0.97322  0.78463  1.0000
  H   H298      1.0  0.27729  0.97900  0.71619  1.0000
  H   H299      1.0  0.08617  0.81707  0.75111  1.0000
  C   C306      1.0  0.09143  0.70822  0.72405  1.0000
  C   C307      1.0  0.09362  0.68740  0.72192  1.0000
  C   C308      1.0  0.09045  0.67543  0.75010  1.0000
  C   C309      1.0  0.08548  0.68416  0.78113  1.0000
  C   C310      1.0  0.08332  0.70498  0.78328  1.0000
  C   C311      1.0  0.08602  0.71694  0.75490  1.0000
  H   H300      1.0  0.09789  0.68047  0.69827  1.0000
  H   H301      1.0  0.09241  0.65948  0.74803  1.0000
  H   H302      1.0  0.07962  0.71192  0.80714  1.0000
  H   H303      1.0  0.08432  0.73289  0.75706  1.0000
  C   C312      1.0  0.15347  0.85845  0.77461  1.0000
  C   C313      1.0  0.14436  0.84137  0.78440  1.0000
  C   C314      1.0  0.13279  0.83106  0.76169  1.0000
  C   C315      1.0  0.12993  0.83774  0.72866  1.0000
  C   C316      1.0  0.13900  0.85485  0.71889  1.0000
  C   C317      1.0  0.15071  0.86507  0.74153  1.0000
  H   H304      1.0  0.14634  0.83598  0.80981  1.0000
  H   H305      1.0  0.12610  0.81793  0.76982  1.0000
  H   H306      1.0  0.13698  0.86026  0.69349  1.0000
  H   H307      1.0  0.15756  0.87810  0.73336  1.0000
  C   C318      1.0  0.09893  0.52234  0.84152  1.0000
  C   C319      1.0  0.08668  0.53943  0.83308  1.0000
  C   C320      1.0  0.06668  0.53748  0.82627  1.0000
  H   H308      1.0  0.11443  0.52363  0.84678  1.0000
  H   H309      1.0  0.05710  0.55036  0.81934  1.0000
  H   H310      1.0  0.00806  0.63537  0.90272  1.0000
  C   C321      1.0  0.37648  0.90011  0.50749  1.0000
  C   C322      1.0  0.19588  0.83970  0.73105  1.0000
  H   H311      1.0  0.40306  0.97228  0.60982  1.0000
  H   H312      1.0  0.02563  0.74360  0.76198  1.0000
  C   C323      1.0  0.47370  0.92144  0.61788  1.0000
  C   C324      1.0  0.10993  0.59267  0.97609  1.0000
  C   C325      1.0  0.08066  0.63593  0.99751  1.0000
  H   H313      1.0  0.18619  0.82525  0.77521  1.0000
  H   H314      1.0  0.21708  0.97670  0.84658  1.0000
  C   C326      1.0  0.03788  0.73148  0.71597  1.0000
  C   C327      1.0  0.37561  0.88269  0.52637  1.0000
  C   C328      1.0  0.11346  0.58913  0.94205  1.0000
  H   H315      1.0  0.05439  0.56871  0.92196  1.0000
  C   C329      1.0  0.10022  0.57867  0.92352  1.0000
  C   C330      1.0  0.22164  0.89371  0.97290  1.0000
  C   C331      1.0  0.21469  0.91347  0.96738  1.0000
  H   H316      1.0  0.23547  0.86741  0.72828  1.0000
  H   H317      1.0  0.22477  0.88399  0.95170  1.0000
  H   H318      1.0  0.05050  0.68272  0.70203  1.0000
  C   C332      1.0  0.09294  0.76709  0.52046  1.0000
  C   C333      1.0  0.08251  0.78565  0.52420  1.0000
  C   C334      1.0  0.40456  0.98916  0.70961  1.0000
  H   H319      1.0  0.09628  0.75798  0.54233  1.0000
  H   H320      1.0  0.18382  0.83513  0.71567  1.0000
  C   C335      1.0  0.05393  0.61991  0.97113  1.0000
  C   C336      1.0  0.07061  0.63061  0.96841  1.0000
  H   H321      1.0  0.10314  0.57593  0.89711  1.0000
  H   H322      1.0  0.07577  0.63481  0.94396  1.0000
  H   H323      1.0  0.12628  0.59458  0.92994  1.0000
  C   C337      1.0  0.45951  0.87674  0.61066  1.0000
  C   C338      1.0  0.20965  0.85175  0.71774  1.0000
  N   N25       1.0  0.25285  0.96451  0.73543  1.0000
  C   C339      1.0  0.04473  0.69596  0.71521  1.0000
  C   C340      1.0  0.38298  0.99739  0.59674  1.0000
  H   H324      1.0  0.22943  0.94711  0.74969  1.0000
  C   C341      1.0  0.43080  0.88069  0.64489  1.0000
  N   N26       1.0  0.03823  0.69487  0.74759  1.0000
  C   C342      1.0  0.27385  0.95168  0.69056  1.0000
  H   H325      1.0  0.01671  0.65473  0.92825  1.0000
  C   C343      1.0  0.20303  0.99113  0.80377  1.0000
  C   C344      1.0  0.24695  0.93343  0.70984  1.0000
  H   H326      1.0  0.21041  0.81893  0.82345  1.0000
  H   H327      1.0  0.45455  0.87373  0.55735  1.0000
  C   C345      1.0  0.04480  0.71428  0.69902  1.0000
  H   H328      1.0  0.40297  0.98040  0.73282  1.0000
  H   H329      1.0  0.38166  0.96470  0.50919  1.0000
  H   H330      1.0  0.37310  0.99640  0.66895  1.0000
  C   C346      1.0  0.08021  0.57554  0.97176  1.0000
  N   N27       1.0  0.45095  0.87954  0.64157  1.0000
  H   H331      1.0  0.40274  0.87974  0.61945  1.0000
  H   H332      1.0  0.08815  0.84179  0.76635  1.0000
  H   H333      1.0  0.47627  0.91669  0.59223  1.0000
  C   C347      1.0  0.21263  0.83487  0.82024  1.0000
  H   H334      1.0  0.37663  0.85090  0.52417  1.0000
  C   C348      1.0  0.05913  0.51871  0.82740  1.0000
  H   H335      1.0  0.07022  0.54590  0.92687  1.0000
  C   C349      1.0  0.18368  0.96555  0.90269  1.0000
  N   N28       1.0  0.17469  0.98267  0.88418  1.0000
  C   C350      1.0  0.40006  0.98815  0.61134  1.0000
  H   H336      1.0  0.26764  0.92316  0.67128  1.0000
  C   C351      1.0  0.03125  0.71167  0.76429  1.0000
  C   C352      1.0  0.09333  0.58565  0.99118  1.0000
  C   C353      1.0  0.03099  0.73022  0.74875  1.0000
  H   H337      1.0  0.02324  0.66962  0.76071  1.0000
  C   C354      1.0  0.00326  0.64886  0.91734  1.0000
  H   H338      1.0  0.04116  0.67671  0.79131  1.0000
  C   C355      1.0  0.22470  0.85793  0.73817  1.0000
  H   H339      1.0  0.47550  0.87597  0.60800  1.0000
  C   C356      1.0  0.41868  0.87907  0.61678  1.0000
  H   H340      1.0  0.05080  0.71521  0.67388  1.0000
  H   H341      1.0  0.41988  0.99379  0.70785  1.0000
  N   N29       1.0  0.21210  0.84023  0.78462  1.0000
  H   H342      1.0  0.00457  0.57221  0.80061  1.0000
  H   H343      1.0  0.11988  0.60105  0.99072  1.0000
  H   H344      1.0  0.46590  0.86552  0.68294  1.0000
  C   C357      1.0  0.46340  0.88044  0.67154  1.0000
  H   H345      1.0  0.23879  0.92032  0.70911  1.0000
  C   C358      1.0  0.19733  0.83407  0.76475  1.0000
  C   C359      1.0  0.48645  0.92932  0.67243  1.0000
  H   H346      1.0  0.06700  0.57067  0.98341  1.0000
  H   H347      1.0  0.23730  0.85717  0.78751  1.0000
  C   C360      1.0  0.09129  0.50355  0.84312  1.0000
  N   N30       1.0  0.06357  0.83806  0.73399  1.0000
  C   C361      1.0  0.04533  0.83086  0.73191  1.0000
  C   C362      1.0  0.06927  0.85128  0.71071  1.0000
  C   C363      1.0  0.03202  0.83734  0.70661  1.0000
  C   C364      1.0  0.05638  0.85798  0.68495  1.0000
  C   C365      1.0  0.03762  0.85097  0.68299  1.0000
  C   C366      1.0  0.07751  0.83068  0.76011  1.0000
  H   H348      1.0  0.04105  0.81974  0.74945  1.0000
  H   H349      1.0  0.08403  0.85641  0.71155  1.0000
  H   H350      1.0  0.18596  0.96897  0.92961  1.0000
  H   H351      1.0  0.16377  0.96492  0.84517  1.0000
  H   H352      1.0  0.15052  0.99348  0.81140  1.0000
  C   C367      1.0  0.42721  0.87665  0.58510  1.0000
  C   C368      1.0  0.26308  0.93504  0.68857  1.0000
  H   H353      1.0  0.04371  0.51741  0.82151  1.0000
  H   H354      1.0  0.02603  0.71080  0.78989  1.0000
  H   H355      1.0  0.20065  0.84382  0.83379  1.0000
  H   H356      1.0  0.01035  0.80042  0.64298  1.0000
  H   H357      1.0  0.04953  0.66465  0.75376  1.0000
  C   C369      1.0  0.48997  0.92305  0.63937  1.0000
  H   H358      1.0  0.28684  0.95274  0.67491  1.0000
  S   S128      1.0  0.01072  0.61589  0.78146  1.0000
  H   H359      1.0  0.02760  0.85570  0.66279  1.0000
  C   C370      1.0  0.21296  0.99071  0.83454  1.0000
  H   H360      1.0  0.47797  0.88600  0.66538  1.0000
  N   N31       1.0  0.08369  0.57229  0.93835  1.0000
  H   H361      1.0  0.06114  0.86815  0.66619  1.0000
  H   H362      1.0  0.17421  0.95292  0.90178  1.0000
  H   H363      1.0  0.20854  0.85643  0.69176  1.0000
  C   C371      1.0  0.26850  0.96638  0.71430  1.0000
  H   H364      1.0  0.37518  0.91432  0.52001  1.0000
  H   H365      1.0  0.45629  0.89089  0.69033  1.0000
  C   C372      1.0  0.06966  0.56161  0.91877  1.0000
  H   H366      1.0  0.40255  0.97923  0.68791  1.0000
  H   H367      1.0  0.00929  0.61037  0.85282  1.0000
  C   C373      1.0  0.16503  0.97977  0.85467  1.0000
  H   H368      1.0  0.23398  0.98922  0.75131  1.0000
  H   H369      1.0  0.25940  0.98967  0.76489  1.0000
  C   C374      1.0  0.24192  0.94848  0.73309  1.0000
  H   H370      1.0  0.19830  0.96061  0.89160  1.0000
  H   H371      1.0  0.35703  0.97649  0.50500  1.0000
  H   H372      1.0  0.06965  0.82723  0.78354  1.0000
  H   H373      1.0  0.42396  0.88311  0.66932  1.0000
  C   C375      1.0  0.44777  0.87550  0.58192  1.0000
  C   C376      1.0  0.37730  0.86440  0.50991  1.0000
  H   H374      1.0  0.09359  0.64421  0.99533  1.0000
  C   C377      1.0  0.07132  0.50163  0.83588  1.0000
  H   H375      1.0  0.01767  0.83135  0.70483  1.0000
  C   C378      1.0  0.24726  0.97997  0.76020  1.0000
  C   C379      1.0  0.21079  0.92582  0.99550  1.0000
  H   H376      1.0  0.49879  0.93047  0.68935  1.0000
  H   H377      1.0  0.03295  0.79153  0.51359  1.0000
  H   H378      1.0  0.01179  0.63850  0.98063  1.0000
  H   H379      1.0  0.42609  0.99201  0.64071  1.0000
  Fe  Fe65      1.0  0.60134  0.07309  0.37027  1.0000
  S   S129      1.0  0.59099  0.08106  0.31838  1.0000
  S   S130      1.0  0.61282  0.04260  0.38538  1.0000
  Fe  Fe66      1.0  0.59117  0.11359  0.39734  1.0000
  S   S131      1.0  0.57997  0.12554  0.34735  1.0000
  S   S132      1.0  0.58994  0.12983  0.44678  1.0000
  Fe  Fe67      1.0  0.56475  0.09725  0.34391  1.0000
  S   S133      1.0  0.53460  0.09170  0.32174  1.0000
  Fe  Fe68      1.0  0.60724  0.10832  0.32583  1.0000
  S   S134      1.0  0.62449  0.11945  0.28118  1.0000
  S   S135      1.0  0.57405  0.08677  0.39519  1.0000
  S   S136      1.0  0.61948  0.09898  0.37636  1.0000
  Fe  Fe69      1.0  0.76951  0.08229  0.16401  1.0000
  S   S137      1.0  0.73885  0.09487  0.15082  1.0000
  S   S138      1.0  0.77774  0.05066  0.14606  1.0000
  Fe  Fe70      1.0  0.78137  0.12280  0.19259  1.0000
  S   S139      1.0  0.75092  0.13741  0.18122  1.0000
  S   S140      1.0  0.80907  0.13732  0.21284  1.0000
  Fe  Fe71      1.0  0.73877  0.10951  0.20159  1.0000
  S   S141      1.0  0.71647  0.10279  0.24291  1.0000
  Fe  Fe72      1.0  0.75360  0.12105  0.13127  1.0000
  S   S142      1.0  0.74559  0.13558  0.08046  1.0000
  S   S143      1.0  0.76924  0.09571  0.21551  1.0000
  S   S144      1.0  0.78436  0.10785  0.14173  1.0000
  Fe  Fe73      1.0  0.86921  0.22980  0.30150  1.0000
  S   S145      1.0  0.86250  0.25346  0.34131  1.0000
  S   S146      1.0  0.84149  0.21486  0.28249  1.0000
  Fe  Fe74      1.0  0.91378  0.23764  0.30261  1.0000
  S   S147      1.0  0.90956  0.26096  0.34213  1.0000
  S   S148      1.0  0.94410  0.23251  0.27772  1.0000
  Fe  Fe75      1.0  0.88992  0.24058  0.36807  1.0000
  S   S149      1.0  0.89494  0.23071  0.42289  1.0000
  Fe  Fe76      1.0  0.88281  0.27201  0.31199  1.0000
  S   S150      1.0  0.88004  0.30565  0.30465  1.0000
  S   S151      1.0  0.89577  0.21604  0.32983  1.0000
  S   S152      1.0  0.88778  0.24955  0.27091  1.0000
  Fe  Fe77      1.0  0.88936  0.43309  0.16235  1.0000
  S   S153      1.0  0.92011  0.42946  0.14196  1.0000
  S   S154      1.0  0.87427  0.46396  0.17247  1.0000
  Fe  Fe78      1.0  0.88618  0.38772  0.16389  1.0000
  S   S155      1.0  0.91652  0.38140  0.14207  1.0000
  S   S156      1.0  0.87004  0.36018  0.17525  1.0000
  Fe  Fe79      1.0  0.92491  0.40439  0.17829  1.0000
  S   S157      1.0  0.95259  0.39841  0.20849  1.0000
  Fe  Fe80      1.0  0.90869  0.40687  0.10732  1.0000
  S   S158      1.0  0.92125  0.40918  0.05509  1.0000
  S   S159      1.0  0.89510  0.40958  0.20233  1.0000
  S   S160      1.0  0.87729  0.41163  0.12557  1.0000
  C   C380      1.0  0.90967  0.40050  0.01905  1.0000
  H   H380      1.0  0.82642  0.36755  0.18805  1.0000
  H   H381      1.0  0.57463  0.01045  0.28564  1.0000
  H   H382      1.0  0.83264  0.31667  0.29566  1.0000
  H   H383      1.0  0.88409  0.39103  0.04448  1.0000
  C   C381      1.0  0.88817  0.23937  0.46400  1.0000
  C   C382      1.0  0.87507  0.25611  0.46962  1.0000
  H   H384      1.0  0.82155  0.32116  0.23676  1.0000
  H   H385      1.0  0.86898  0.26458  0.44853  1.0000
  H   H386      1.0  0.55467  0.12654  0.28455  1.0000
  C   C383      1.0  0.88046  0.31924  0.26665  1.0000
  C   C384      1.0  0.87348  0.31192  0.23645  1.0000
  C   C385      1.0  0.87114  0.32439  0.20815  1.0000
  C   C386      1.0  0.87619  0.34411  0.20950  1.0000
  C   C387      1.0  0.88422  0.35105  0.23915  1.0000
  C   C388      1.0  0.88612  0.33874  0.26764  1.0000
  H   H387      1.0  0.86894  0.29699  0.23536  1.0000
  H   H388      1.0  0.86494  0.31885  0.18531  1.0000
  H   H389      1.0  0.88809  0.36620  0.24064  1.0000
  H   H390      1.0  0.89148  0.34458  0.29090  1.0000
  C   C389      1.0  0.75161  0.12590  0.03962  1.0000
  C   C390      1.0  0.76403  0.10857  0.03493  1.0000
  H   H391      1.0  0.95082  0.46405  0.21457  1.0000
  H   H392      1.0  0.76967  0.10025  0.05653  1.0000
  H   H393      1.0  0.81995  0.12203  0.06195  1.0000
  C   C391      1.0  0.81762  0.15908  0.23239  1.0000
  C   C392      1.0  0.80481  0.17522  0.24278  1.0000
  C   C393      1.0  0.81240  0.19206  0.25770  1.0000
  C   C394      1.0  0.83291  0.19321  0.26255  1.0000
  C   C395      1.0  0.84573  0.17710  0.25202  1.0000
  C   C396      1.0  0.83814  0.16026  0.23715  1.0000
  H   H394      1.0  0.78901  0.17470  0.23964  1.0000
  H   H395      1.0  0.80222  0.20428  0.26573  1.0000
  H   H396      1.0  0.86152  0.17759  0.25534  1.0000
  H   H397      1.0  0.84831  0.14798  0.22932  1.0000
  C   C397      1.0  0.59291  0.11365  0.48132  1.0000
  C   C398      1.0  0.60143  0.09428  0.47725  1.0000
  C   C399      1.0  0.58997  0.00771  0.29330  1.0000
  H   H398      1.0  0.60575  0.08891  0.45254  1.0000
  H   H399      1.0  0.83960  0.12777  0.11345  1.0000
  C   C400      1.0  0.65010  0.11451  0.27082  1.0000
  C   C401      1.0  0.65734  0.12213  0.24077  1.0000
  C   C402      1.0  0.67751  0.11875  0.23170  1.0000
  C   C403      1.0  0.69080  0.10776  0.25271  1.0000
  C   C404      1.0  0.68354  0.10008  0.28271  1.0000
  C   C405      1.0  0.66336  0.10336  0.29168  1.0000
  H   H400      1.0  0.64727  0.13080  0.22442  1.0000
  H   H401      1.0  0.68278  0.12479  0.20858  1.0000
  H   H402      1.0  0.69365  0.09170  0.29936  1.0000
  H   H403      1.0  0.65813  0.09751  0.31496  1.0000
  C   C406      1.0  0.97264  0.39716  0.18070  1.0000
  H   H404      1.0  0.78175  0.18601  0.14335  1.0000
  C   C407      1.0  0.50699  0.15608  0.32537  1.0000
  C   C408      1.0  0.54206  0.12791  0.26663  1.0000
  C   C409      1.0  0.96931  0.39822  0.14609  1.0000
  H   H405      1.0  0.84871  0.37666  0.29692  1.0000
  H   H406      1.0  0.83027  0.34139  0.18356  1.0000
  C   C410      1.0  0.82704  0.33354  0.25011  1.0000
  H   H407      1.0  0.95444  0.39894  0.13622  1.0000
  C   C411      1.0  0.96667  0.23533  0.29942  1.0000
  C   C412      1.0  0.98480  0.23232  0.28220  1.0000
  C   C413      1.0  0.81450  0.13294  0.08038  1.0000
  C   C414      1.0  0.95755  0.44894  0.20875  1.0000
  H   H408      1.0  0.90600  0.21563  0.48802  1.0000
  C   C415      1.0  0.96691  0.24054  0.33336  1.0000
  H   H409      1.0  0.98479  0.22812  0.25602  1.0000
  H   H410      1.0  0.84628  0.34443  0.32597  1.0000
  C   C416      1.0  0.93344  0.34504  0.21567  1.0000
  H   H411      1.0  0.95315  0.24278  0.34706  1.0000
  C   C417      1.0  0.84080  0.34658  0.30052  1.0000
  C   C418      1.0  0.56084  0.02208  0.35916  1.0000
  C   C419      1.0  0.57589  0.03462  0.36485  1.0000
  C   C420      1.0  0.59347  0.02738  0.38061  1.0000
  N   N32       1.0  0.52371  0.13535  0.28350  1.0000
  H   H412      1.0  0.98256  0.40007  0.09724  1.0000
  C   C421      1.0  0.84227  0.36459  0.28416  1.0000
  H   H413      1.0  0.57398  0.04974  0.35625  1.0000
  H   H414      1.0  0.84836  0.22024  0.44500  1.0000
  C   C422      1.0  0.56322  0.01296  0.46861  1.0000
  H   H415      1.0  0.54554  0.13801  0.24596  1.0000
  H   H416      1.0  0.72692  0.05334  0.14068  1.0000
  C   C423      1.0  0.76710  0.02716  0.19924  1.0000
  C   C424      1.0  0.77176  0.02826  0.16515  1.0000
  C   C425      1.0  0.77181  0.01102  0.14544  1.0000
  H   H417      1.0  0.78350  0.16569  0.17279  1.0000
  H   H418      1.0  0.75902  0.00832  0.23972  1.0000
  H   H419      1.0  0.76725  0.04026  0.21476  1.0000
  H   H420      1.0  0.77557  0.01169  0.11912  1.0000
  C   C426      1.0  0.83310  0.33095  0.28348  1.0000
  C   C427      1.0  0.50591  0.12967  0.27241  1.0000
  C   C428      1.0  0.56437  0.03216  0.45659  1.0000
  H   H421      1.0  0.54752  0.02756  0.34601  1.0000
  C   C429      1.0  0.52441  0.14849  0.30948  1.0000
  H   H422      1.0  0.91277  0.47384  0.14647  1.0000
  N   N33       1.0  0.82872  0.35118  0.23413  1.0000
  C   C430      1.0  0.79184  0.17394  0.15421  1.0000
  H   H423      1.0  0.89159  0.16759  0.40765  1.0000
  H   H424      1.0  0.98498  0.24646  0.37619  1.0000
  C   C431      1.0  0.99526  0.44745  0.13983  1.0000
  N   N34       1.0  0.92796  0.30858  0.24481  1.0000
  C   C432      1.0  0.92274  0.31199  0.21202  1.0000
  C   C433      1.0  0.93613  0.32292  0.26319  1.0000
  C   C434      1.0  0.92526  0.33030  0.19704  1.0000
  C   C435      1.0  0.97745  0.44614  0.15711  1.0000
  H   H425      1.0  0.50537  0.11895  0.25230  1.0000
  C   C436      1.0  0.92546  0.28923  0.25997  1.0000
  H   H426      1.0  0.91621  0.30067  0.19746  1.0000
  H   H427      1.0  0.94027  0.32020  0.28916  1.0000
  H   H428      1.0  0.92055  0.33321  0.17135  1.0000
  H   H429      1.0  0.64405  0.03460  0.33132  1.0000
  H   H430      1.0  0.63187  0.12983  0.47296  1.0000
  H   H431      1.0  0.92243  0.29065  0.28732  1.0000
  H   H432      1.0  0.91260  0.28240  0.24892  1.0000
  H   H433      1.0  0.62512  0.05081  0.31326  1.0000
  C   C437      1.0  0.87264  0.17191  0.36435  1.0000
  H   H434      1.0  0.55902  0.00135  0.45189  1.0000
  C   C438      1.0  0.74456  0.13650  0.01105  1.0000
  C   C439      1.0  0.90411  0.48746  0.15256  1.0000
  H   H435      1.0  0.83804  0.38045  0.23779  1.0000
  H   H436      1.0  0.77427  0.16446  0.09709  1.0000
  C   C440      1.0  0.76253  0.00901  0.21333  1.0000
  H   H437      1.0  0.72713  0.06031  0.25885  1.0000
  H   H438      1.0  0.93897  0.27900  0.25624  1.0000
  C   C441      1.0  0.88497  0.48679  0.16543  1.0000
  C   C442      1.0  0.82249  0.35329  0.19900  1.0000
  H   H439      1.0  0.70066  0.06169  0.25435  1.0000
  C   C443      1.0  0.81802  0.15006  0.13286  1.0000
  C   C444      1.0  0.50793  0.11203  0.36524  1.0000
  N   N35       1.0  0.62121  0.02002  0.30726  1.0000
  N   N36       1.0  0.85444  0.20381  0.39970  1.0000
  C   C445      1.0  0.86972  0.19230  0.41401  1.0000
  C   C446      1.0  0.84817  0.19978  0.36797  1.0000
  C   C447      1.0  0.87912  0.17627  0.39653  1.0000
  H   H440      1.0  0.78737  0.14096  0.05371  1.0000
  C   C448      1.0  0.59566  0.00784  0.39195  1.0000
  C   C449      1.0  0.84543  0.22121  0.41756  1.0000
  H   H441      1.0  0.87518  0.19589  0.43871  1.0000
  C   C450      1.0  0.63396  0.03645  0.30933  1.0000
  H   H442      1.0  0.94520  0.35285  0.26354  1.0000
  H   H443      1.0  0.87991  0.15968  0.35028  1.0000
  C   C451      1.0  0.85700  0.18364  0.35004  1.0000
  C   C452      1.0  0.60210  0.02337  0.29627  1.0000
  H   H444      1.0  0.85185  0.23473  0.40823  1.0000
  H   H445      1.0  0.82914  0.22278  0.41383  1.0000
  N   N37       1.0  0.79995  0.16028  0.12821  1.0000
  N   N38       1.0  0.71649  0.04188  0.22094  1.0000
  C   C453      1.0  0.71452  0.02204  0.21739  1.0000
  C   C454      1.0  0.72034  0.05316  0.19370  1.0000
  C   C455      1.0  0.71683  0.01294  0.18594  1.0000
  C   C456      1.0  0.72294  0.04452  0.16196  1.0000
  H   H446      1.0  0.72399  0.01726  0.13395  1.0000
  C   C457      1.0  0.71433  0.05142  0.25389  1.0000
  H   H447      1.0  0.71176  0.01297  0.23896  1.0000
  H   H448      1.0  0.72179  0.06887  0.19672  1.0000
  C   C458      1.0  0.89117  0.39278  0.02049  1.0000
  C   C459      1.0  0.72125  0.02427  0.15816  1.0000
  C   C460      1.0  0.79618  0.14351  0.07576  1.0000
  H   H449      1.0  0.83647  0.20921  0.35609  1.0000
  H   H450      1.0  0.54084  0.11276  0.25649  1.0000
  C   C461      1.0  0.93894  0.34137  0.24893  1.0000
  C   C462      1.0  0.82552  0.13619  0.10915  1.0000
  H   H451      1.0  0.80384  0.18089  0.16776  1.0000
  H   H452      1.0  0.85202  0.18055  0.32486  1.0000
  H   H453      1.0  0.71369  0.04055  0.27454  1.0000
  H   H454      1.0  0.59597  0.03825  0.29045  1.0000
  H   H455      1.0  0.73502  0.14997  0.01425  1.0000
  H   H456      1.0  0.96000  0.44031  0.23230  1.0000
  C   C463      1.0  0.98503  0.24259  0.34986  1.0000
  H   H457      1.0  0.88893  0.44017  0.03171  1.0000
  H   H458      1.0  0.94675  0.44113  0.19385  1.0000
  H   H459      1.0  0.99152  0.45867  0.23453  1.0000
  C   C464      1.0  0.78893  0.15696  0.10031  1.0000
  H   H460      1.0  0.80625  0.35253  0.19685  1.0000
  H   H461      1.0  0.93538  0.35936  0.20447  1.0000
  C   C465      1.0  0.51081  0.09830  0.33912  1.0000
  C   C466      1.0  0.83617  0.36664  0.25070  1.0000
  H   H462      1.0  0.52058  0.11792  0.37701  1.0000
  H   H463      1.0  0.56095  0.03563  0.43058  1.0000
  H   H464      1.0  0.82657  0.15232  0.15536  1.0000
  C   C467      1.0  0.89588  0.22861  0.49196  1.0000
  H   H465      1.0  0.53853  0.15283  0.31849  1.0000
  C   C468      1.0  0.98527  0.39880  0.12394  1.0000
  H   H466      1.0  0.96473  0.44154  0.14353  1.0000
  H   H467      1.0  0.50762  0.16598  0.34666  1.0000
  C   C469      1.0  0.76938  0.10207  0.00223  1.0000
  H   H468      1.0  0.64273  0.03733  0.28597  1.0000
  N   N39       1.0  0.97628  0.45003  0.19077  1.0000
  C   C470      1.0  0.57000  0.04690  0.47818  1.0000
  H   H469      1.0  0.57112  0.06185  0.46897  1.0000
  H   H470      1.0  0.99638  0.44360  0.11343  1.0000
  C   C471      1.0  0.99200  0.39601  0.19306  1.0000
  C   C472      1.0  0.89027  0.44420  0.00549  1.0000
  H   H471      1.0  0.91918  0.45460  0.01177  1.0000
  H   H472      1.0  0.99466  0.39497  0.21978  1.0000
  C   C473      1.0  0.99244  0.45557  0.20787  1.0000
  C   C474      1.0  0.62884  0.00124  0.31486  1.0000
  H   H473      1.0  0.77910  0.08873  0.99910  1.0000
  C   C475      1.0  0.56342  0.00229  0.36914  1.0000
  H   H474      1.0  0.60907  0.00234  0.40479  1.0000
  H   H475      1.0  0.64432  0.15049  0.48860  1.0000
  H   H476      1.0  0.61774  0.14981  0.49281  1.0000
  C   C476      1.0  0.63223  0.14082  0.49367  1.0000
  Fe  Fe81      1.0  0.57120  0.10904  0.67129  1.0000
  S   S161      1.0  0.57526  0.07680  0.65812  1.0000
  S   S162      1.0  0.53972  0.12353  0.66666  1.0000
  Fe  Fe82      1.0  0.61667  0.11231  0.67749  1.0000
  S   S163      1.0  0.62303  0.08042  0.66361  1.0000
  S   S164      1.0  0.64545  0.12729  0.68286  1.0000
  Fe  Fe83      1.0  0.59949  0.08568  0.62433  1.0000
  S   S165      1.0  0.60459  0.07296  0.57223  1.0000
  Fe  Fe84      1.0  0.59832  0.07546  0.69860  1.0000
  S   S166      1.0  0.60259  0.05289  0.73922  1.0000
  S   S167      1.0  0.59466  0.11808  0.63535  1.0000
  S   S168      1.0  0.59273  0.10711  0.71481  1.0000
  Fe  Fe85      1.0  0.88099  0.24766  0.62365  1.0000
  S   S169      1.0  0.89189  0.21620  0.63504  1.0000
  S   S170      1.0  0.87043  0.25933  0.57198  1.0000
  Fe  Fe86      1.0  0.88738  0.26068  0.69657  1.0000
  S   S171      1.0  0.89880  0.22969  0.71203  1.0000
  S   S172      1.0  0.88933  0.28277  0.73977  1.0000
  Fe  Fe87      1.0  0.91624  0.22943  0.66406  1.0000
  S   S173      1.0  0.94828  0.21678  0.65597  1.0000
  Fe  Fe88      1.0  0.87326  0.21921  0.68235  1.0000
  S   S174      1.0  0.85596  0.19219  0.69690  1.0000
  S   S175      1.0  0.90634  0.26075  0.65023  1.0000
  S   S176      1.0  0.86086  0.25023  0.66936  1.0000
  Fe  Fe89      1.0  0.76181  0.11266  0.87870  1.0000
  S   S177      1.0  0.78595  0.10688  0.83976  1.0000
  S   S178      1.0  0.77005  0.10376  0.93302  1.0000
  Fe  Fe90      1.0  0.73049  0.12233  0.82316  1.0000
  S   S179      1.0  0.75243  0.11736  0.78136  1.0000
  S   S180      1.0  0.69723  0.12915  0.81615  1.0000
  Fe  Fe91      1.0  0.76350  0.09047  0.81157  1.0000
  S   S181      1.0  0.76884  0.06037  0.78629  1.0000
  Fe  Fe92      1.0  0.77303  0.13436  0.81304  1.0000
  S   S182      1.0  0.78954  0.16142  0.79621  1.0000
  S   S183      1.0  0.74043  0.09461  0.85140  1.0000
  S   S184      1.0  0.74996  0.14106  0.85379  1.0000
  Fe  Fe93      1.0  0.88830  0.43441  0.83284  1.0000
  S   S185      1.0  0.91066  0.42066  0.86942  1.0000
  S   S186      1.0  0.87601  0.46580  0.84684  1.0000
  Fe  Fe94      1.0  0.88350  0.39340  0.79873  1.0000
  S   S187      1.0  0.90485  0.37755  0.83410  1.0000
  S   S188      1.0  0.86971  0.37588  0.75710  1.0000
  Fe  Fe95      1.0  0.89012  0.39654  0.87434  1.0000
  S   S189      1.0  0.87824  0.38443  0.92232  1.0000
  Fe  Fe96      1.0  0.92301  0.40314  0.82518  1.0000
  S   S190      1.0  0.95414  0.39521  0.80782  1.0000
  S   S191      1.0  0.86710  0.41071  0.83967  1.0000
  S   S192      1.0  0.90229  0.41859  0.78779  1.0000
  C   C477      1.0  0.88465  0.30883  0.74214  1.0000
  C   C478      1.0  0.87351  0.31993  0.71814  1.0000
  C   C479      1.0  0.86905  0.34047  0.72292  1.0000
  C   C480      1.0  0.87594  0.35012  0.75138  1.0000
  C   C481      1.0  0.88729  0.33899  0.77499  1.0000
  C   C482      1.0  0.89148  0.31850  0.77052  1.0000
  H   H477      1.0  0.86797  0.31262  0.69633  1.0000
  H   H478      1.0  0.86014  0.34889  0.70453  1.0000
  H   H479      1.0  0.89252  0.34601  0.79714  1.0000
  H   H480      1.0  0.90001  0.31004  0.78933  1.0000
  C   C483      1.0  0.83732  0.18411  0.72474  1.0000
  C   C484      1.0  0.82764  0.19653  0.74873  1.0000
  C   C485      1.0  0.81321  0.18929  0.77023  1.0000
  C   C486      1.0  0.80822  0.16950  0.76842  1.0000
  C   C487      1.0  0.81801  0.15704  0.74457  1.0000
  C   C488      1.0  0.83238  0.16430  0.72298  1.0000
  H   H481      1.0  0.83115  0.21177  0.75064  1.0000
  H   H482      1.0  0.80584  0.19916  0.78846  1.0000
  H   H483      1.0  0.81445  0.14182  0.74259  1.0000
  H   H484      1.0  0.83964  0.15447  0.70459  1.0000
  C   C489      1.0  0.65981  0.12556  0.72018  1.0000
  C   C490      1.0  0.65089  0.12703  0.75179  1.0000
  C   C491      1.0  0.66261  0.12767  0.78090  1.0000
  C   C492      1.0  0.68338  0.12637  0.77889  1.0000
  C   C493      1.0  0.69236  0.12412  0.74738  1.0000
  C   C494      1.0  0.68061  0.12406  0.71814  1.0000
  H   H485      1.0  0.63490  0.12843  0.75374  1.0000
  H   H486      1.0  0.65550  0.12951  0.80513  1.0000
  H   H487      1.0  0.70834  0.12307  0.74545  1.0000
  H   H488      1.0  0.68766  0.12298  0.69380  1.0000
  C   C495      1.0  0.64123  0.11355  0.58893  1.0000
  H   H489      1.0  0.64822  0.08654  0.56132  1.0000
  C   C496      1.0  0.76427  0.02039  0.78534  1.0000
  C   C497      1.0  0.76180  0.03799  0.80414  1.0000
  C   C498      1.0  0.75543  0.03707  0.83742  1.0000
  C   C499      1.0  0.75271  0.01862  0.85222  1.0000
  C   C500      1.0  0.72782  0.16700  0.73135  1.0000
  H   H490      1.0  0.76915  0.02092  0.75954  1.0000
  H   H491      1.0  0.75350  0.05044  0.85228  1.0000
  H   H492      1.0  0.74860  0.01801  0.87838  1.0000
  C   C501      1.0  0.56248  0.01324  0.75425  1.0000
  C   C502      1.0  0.57562  0.02782  0.75942  1.0000
  C   C503      1.0  0.58628  0.03469  0.73245  1.0000
  C   C504      1.0  0.58399  0.02683  0.70033  1.0000
  C   C505      1.0  0.56058  0.00500  0.72239  1.0000
  C   C506      1.0  0.57138  0.01168  0.69540  1.0000
  H   H493      1.0  0.57734  0.03398  0.78421  1.0000
  C   C507      1.0  0.79494  0.06189  0.88961  1.0000
  H   H494      1.0  0.67247  0.16872  0.76628  1.0000
  C   C508      1.0  0.98214  0.40525  0.89527  1.0000
  C   C509      1.0  0.96726  0.40261  0.87155  1.0000
  C   C510      1.0  0.97236  0.39770  0.83841  1.0000
  C   C511      1.0  0.51888  0.11337  0.68457  1.0000
  H   H495      1.0  0.74886  0.17665  0.80627  1.0000
  H   H496      1.0  0.58008  0.03181  0.57364  1.0000
  H   H497      1.0  0.95189  0.40452  0.87890  1.0000
  H   H498      1.0  0.51768  0.06851  0.73319  1.0000
  H   H499      1.0  0.67728  0.19234  0.78438  1.0000
  H   H500      1.0  0.90221  0.47867  0.79361  1.0000
  C   C512      1.0  0.93745  0.35310  0.76170  1.0000
  C   C513      1.0  0.87563  0.44004  0.98240  1.0000
  C   C514      1.0  0.96973  0.22557  0.67451  1.0000
  C   C515      1.0  0.96859  0.24125  0.69743  1.0000
  H   H501      1.0  0.90193  0.39497  0.71722  1.0000
  N   N40       1.0  0.70302  0.17338  0.77395  1.0000
  H   H502      1.0  0.58097  0.13542  0.51683  1.0000
  H   H503      1.0  0.95426  0.24816  0.70470  1.0000
  H   H504      1.0  0.94459  0.32150  0.76174  1.0000
  C   C516      1.0  0.90922  0.39776  0.95810  1.0000
  C   C517      1.0  0.89068  0.39019  0.95942  1.0000
  C   C518      1.0  0.99232  0.39484  0.82926  1.0000
  H   H505      1.0  0.91637  0.39959  0.93423  1.0000
  H   H506      1.0  0.92587  0.31615  0.70928  1.0000
  H   H507      1.0  0.86743  0.38159  0.99184  1.0000
  C   C519      1.0  0.87767  0.25127  0.53072  1.0000
  C   C520      1.0  0.89076  0.23452  0.52505  1.0000
  C   C521      1.0  0.56771  0.00879  0.50227  1.0000
  H   H508      1.0  0.89688  0.22609  0.54618  1.0000
  C   C522      1.0  0.91653  0.34722  0.70326  1.0000
  C   C523      1.0  0.76230  0.11263  0.97363  1.0000
  C   C524      1.0  0.74976  0.12989  0.97830  1.0000
  H   H509      1.0  0.99630  0.39092  0.80371  1.0000
  H   H510      1.0  0.74420  0.13825  0.95671  1.0000
  H   H511      1.0  0.52675  0.02218  0.68533  1.0000
  C   C525      1.0  0.59956  0.08876  0.53755  1.0000
  C   C526      1.0  0.59081  0.10804  0.54154  1.0000
  C   C527      1.0  0.80147  0.05193  0.86041  1.0000
  H   H512      1.0  0.58640  0.11338  0.56611  1.0000
  N   N41       1.0  0.85061  0.32288  0.81793  1.0000
  C   C528      1.0  0.84166  0.34029  0.80587  1.0000
  C   C529      1.0  0.86120  0.32264  0.84722  1.0000
  C   C530      1.0  0.84350  0.35810  0.82292  1.0000
  C   C531      1.0  0.86328  0.34020  0.86496  1.0000
  C   C532      1.0  0.85431  0.35799  0.85268  1.0000
  C   C533      1.0  0.84819  0.30426  0.80017  1.0000
  H   H513      1.0  0.83354  0.34061  0.78240  1.0000
  H   H514      1.0  0.86824  0.30885  0.85686  1.0000
  H   H515      1.0  0.83699  0.37198  0.81264  1.0000
  H   H516      1.0  0.87184  0.34016  0.88802  1.0000
  H   H517      1.0  0.85586  0.37168  0.86617  1.0000
  H   H518      1.0  0.86183  0.29398  0.80203  1.0000
  H   H519      1.0  0.83552  0.29697  0.81076  1.0000
  H   H520      1.0  0.84561  0.30681  0.77289  1.0000
  C   C534      1.0  0.57435  0.04220  0.51168  1.0000
  C   C535      1.0  0.98357  0.23449  0.55896  1.0000
  H   H521      1.0  0.59230  0.03212  0.67948  1.0000
  H   H522      1.0  0.73176  0.16327  0.70561  1.0000
  C   C536      1.0  0.76131  0.00194  0.80005  1.0000
  C   C537      1.0  0.64421  0.10235  0.55974  1.0000
  C   C538      1.0  0.98850  0.21674  0.66544  1.0000
  H   H523      1.0  0.97275  0.22835  0.54272  1.0000
  H   H524      1.0  0.86297  0.43272  0.99115  1.0000
  H   H525      1.0  0.79494  0.07785  0.89144  1.0000
  H   H526      1.0  0.93304  0.40871  0.98658  1.0000
  C   C539      1.0  0.78839  0.03065  0.91420  1.0000
  N   N42       1.0  0.67083  0.07568  0.76121  1.0000
  C   C540      1.0  0.68549  0.07052  0.73850  1.0000
  C   C541      1.0  0.67544  0.07910  0.79402  1.0000
  C   C542      1.0  0.70540  0.06890  0.74837  1.0000
  C   C543      1.0  0.69519  0.07772  0.80468  1.0000
  C   C544      1.0  0.71023  0.07255  0.78167  1.0000
  C   C545      1.0  0.65009  0.07674  0.75034  1.0000
  H   H527      1.0  0.68181  0.06771  0.71255  1.0000
  H   H528      1.0  0.66389  0.08334  0.81206  1.0000
  H   H529      1.0  0.71706  0.06486  0.73039  1.0000
  H   H530      1.0  0.69881  0.08102  0.83050  1.0000
  H   H531      1.0  0.72561  0.07143  0.78958  1.0000
  H   H532      1.0  0.64822  0.08469  0.72604  1.0000
  H   H533      1.0  0.64513  0.06160  0.74736  1.0000
  H   H534      1.0  0.64006  0.08495  0.76856  1.0000
  H   H535      1.0  0.57867  0.05374  0.52831  1.0000
  H   H536      1.0  0.69653  0.16688  0.72292  1.0000
  H   H537      1.0  0.78268  0.05899  0.93890  1.0000
  C   C546      1.0  0.92666  0.33101  0.71918  1.0000
  H   H538      1.0  0.89164  0.37823  0.68915  1.0000
  C   C547      1.0  0.71744  0.17606  0.79715  1.0000
  H   H539      1.0  0.98495  0.25991  0.72922  1.0000
  H   H540      1.0  0.98956  0.20457  0.64777  1.0000
  H   H541      1.0  0.71357  0.17932  0.82308  1.0000
  H   H542      1.0  0.61176  0.06709  0.50194  1.0000
  H   H543      1.0  0.52689  0.11984  0.73536  1.0000
  C   C548      1.0  0.51540  0.11512  0.71905  1.0000
  N   N43       1.0  0.63511  0.13123  0.52647  1.0000
  H   H544      1.0  0.89568  0.45630  0.91157  1.0000
  H   H545      1.0  0.97818  0.40940  0.92075  1.0000
  C   C549      1.0  0.64119  0.11151  0.52850  1.0000
  C   C550      1.0  0.70796  0.16904  0.74133  1.0000
  H   H546      1.0  0.85843  0.45245  0.90823  1.0000
  C   C551      1.0  0.74261  0.16981  0.75481  1.0000
  H   H547      1.0  0.96227  0.24349  0.59740  1.0000
  H   H548      1.0  0.75811  0.16832  0.74750  1.0000
  H   H549      1.0  0.56721  0.00970  0.56982  1.0000
  H   H550      1.0  0.91508  0.38802  0.67893  1.0000
  C   C552      1.0  0.78817  0.05121  0.91648  1.0000
  C   C553      1.0  0.92720  0.36896  0.74507  1.0000
  H   H551      1.0  0.50598  0.10667  0.63691  1.0000
  C   C554      1.0  0.52260  0.05829  0.71243  1.0000
  H   H552      1.0  0.53575  0.04891  0.72164  1.0000
  N   N44       1.0  0.91664  0.36584  0.71657  1.0000
  H   H553      1.0  0.86842  0.42694  0.90928  1.0000
  H   H554      1.0  0.67992  0.16986  0.80907  1.0000
  H   H555      1.0  0.52716  0.06728  0.69091  1.0000
  H   H556      1.0  0.94545  0.35569  0.78469  1.0000
  C   C555      1.0  0.68214  0.17631  0.78383  1.0000
  C   C556      1.0  0.93707  0.33400  0.74872  1.0000
  C   C557      1.0  0.99175  0.25098  0.61016  1.0000
  N   N45       1.0  0.87760  0.44454  0.94917  1.0000
  C   C558      1.0  0.63521  0.13367  0.58664  1.0000
  H   H557      1.0  0.92758  0.38374  0.75538  1.0000
  C   C559      1.0  0.90590  0.38260  0.69946  1.0000
  C   C560      1.0  0.73741  0.17446  0.78788  1.0000
  C   C561      1.0  0.88278  0.48940  0.83342  1.0000
  H   H558      1.0  0.90808  0.34472  0.68075  1.0000
  N   N46       1.0  0.90074  0.17279  0.73211  1.0000
  C   C562      1.0  0.91762  0.18219  0.73695  1.0000
  C   C563      1.0  0.89707  0.16439  0.70173  1.0000
  C   C564      1.0  0.93143  0.18321  0.71109  1.0000
  C   C565      1.0  0.91044  0.16536  0.67519  1.0000
  C   C566      1.0  0.92774  0.17479  0.68001  1.0000
  C   C567      1.0  0.88611  0.17281  0.75918  1.0000
  H   H559      1.0  0.92027  0.18938  0.76065  1.0000
  H   H560      1.0  0.88338  0.15752  0.69744  1.0000
  H   H561      1.0  0.94462  0.19105  0.71468  1.0000
  H   H562      1.0  0.90713  0.15932  0.65083  1.0000
  H   H563      1.0  0.93806  0.17605  0.65945  1.0000
  H   H564      1.0  0.87470  0.16228  0.75407  1.0000
  H   H565      1.0  0.89334  0.16858  0.78340  1.0000
  H   H566      1.0  0.87824  0.18782  0.76146  1.0000
  C   C568      1.0  0.98603  0.24793  0.71121  1.0000
  H   H567      1.0  0.56982  0.00538  0.67069  1.0000
  C   C569      1.0  0.57860  0.01837  0.55807  1.0000
  C   C570      1.0  0.60484  0.08193  0.50529  1.0000
  C   C571      1.0  0.63214  0.14233  0.55500  1.0000
  C   C572      1.0  0.50355  0.10778  0.66368  1.0000
  C   C573      1.0  0.51142  0.02792  0.68793  1.0000
  H   H568      1.0  0.63273  0.14239  0.60937  1.0000
  H   H569      1.0  0.78303  0.02222  0.93489  1.0000
  C   C574      1.0  0.88175  0.38753  0.99068  1.0000
  C   C575      1.0  0.58764  0.12049  0.51354  1.0000
  H   H570      1.0  0.64336  0.10664  0.61335  1.0000
  C   C576      1.0  0.86251  0.43962  0.92492  1.0000
  N   N47       1.0  0.57320  0.02334  0.52330  1.0000
  C   C577      1.0  0.89408  0.45287  0.93800  1.0000
  H   H571      1.0  0.62724  0.15793  0.55337  1.0000
  H   H572      1.0  0.80619  0.06045  0.83927  1.0000
  N   N48       1.0  0.80145  0.03178  0.85823  1.0000
  N   N49       1.0  0.50673  0.04612  0.70203  1.0000
  C   C578      1.0  0.79532  0.02108  0.88483  1.0000
  C   C579      1.0  0.89574  0.49162  0.80665  1.0000
  H   H573      1.0  0.98702  0.25749  0.63398  1.0000
  C   C580      1.0  0.97765  0.24314  0.58948  1.0000
  C   C581      1.0  0.86984  0.26195  0.50273  1.0000
  H   H574      1.0  0.80530  0.03083  0.80514  1.0000
  H   H575      1.0  0.84882  0.43541  0.93733  1.0000
  H   H576      1.0  0.64319  0.10259  0.50596  1.0000
  C   C582      1.0  0.80878  0.02154  0.82773  1.0000
  H   H577      1.0  0.80152  0.00757  0.82387  1.0000
  H   H578      1.0  0.59299  0.00923  0.55859  1.0000
  H   H579      1.0  0.85971  0.27492  0.50674  1.0000
  C   C583      1.0  0.91872  0.40277  0.98782  1.0000
  H   H580      1.0  0.82503  0.01807  0.82940  1.0000
  H   H581      1.0  0.92256  0.46281  0.95112  1.0000
  C   C584      1.0  0.90926  0.45675  0.96028  1.0000
  H   H582      1.0  0.55405  0.00810  0.77508  1.0000
  H   H583      1.0  0.79512  0.00511  0.88296  1.0000
  C   C585      1.0  0.75606  0.00092  0.83388  1.0000
  C   C586      1.0  0.90731  0.45231  0.99424  1.0000
  H   H584      1.0  0.50037  0.00176  0.66621  1.0000
  Fe  Fe97      1.0  0.87992  0.61362  0.10689  1.0000
  S   S193      1.0  0.87744  0.60140  0.15940  1.0000
  S   S194      1.0  0.85266  0.62083  0.07533  1.0000
  Fe  Fe98      1.0  0.92415  0.61247  0.10952  1.0000
  S   S195      1.0  0.92525  0.60025  0.16161  1.0000
  S   S196      1.0  0.95204  0.61636  0.08065  1.0000
  Fe  Fe99      1.0  0.90297  0.57966  0.14403  1.0000
  S   S197      1.0  0.91232  0.54638  0.14844  1.0000
  Fe  Fe100     1.0  0.89997  0.62322  0.17248  1.0000
  S   S198      1.0  0.90384  0.64146  0.22043  1.0000
  S   S199      1.0  0.90363  0.59072  0.09093  1.0000
  S   S200      1.0  0.90055  0.63663  0.12097  1.0000
  Fe  Fe101     1.0  0.76669  0.89505  0.18991  1.0000
  S   S201      1.0  0.74302  0.88760  0.15305  1.0000
  S   S202      1.0  0.78389  0.86924  0.21905  1.0000
  Fe  Fe102     1.0  0.75208  0.94002  0.18584  1.0000
  S   S203      1.0  0.72745  0.93495  0.14974  1.0000
  S   S204      1.0  0.75466  0.96987  0.21188  1.0000
  Fe  Fe103     1.0  0.72190  0.90876  0.18252  1.0000
  S   S205      1.0  0.69354  0.89757  0.20464  1.0000
  Fe  Fe104     1.0  0.75043  0.91436  0.12310  1.0000
  S   S206      1.0  0.75832  0.91735  0.06684  1.0000
  S   S207      1.0  0.74517  0.91503  0.22002  1.0000
  S   S208      1.0  0.77553  0.92070  0.15852  1.0000
  Fe  Fe105     1.0  0.88952  0.77211  0.37029  1.0000
  S   S209      1.0  0.90302  0.79791  0.34563  1.0000
  S   S210      1.0  0.89426  0.76811  0.42752  1.0000
  Fe  Fe106     1.0  0.88291  0.75200  0.30137  1.0000
  S   S211      1.0  0.89619  0.77659  0.27401  1.0000
  S   S212      1.0  0.87157  0.72960  0.26407  1.0000
  Fe  Fe107     1.0  0.91980  0.77485  0.31368  1.0000
  S   S213      1.0  0.95195  0.76931  0.29676  1.0000
  Fe  Fe108     1.0  0.87796  0.79756  0.30767  1.0000
  S   S214      1.0  0.86402  0.82572  0.28090  1.0000
  S   S215      1.0  0.90747  0.74905  0.33925  1.0000
  S   S216      1.0  0.86341  0.77304  0.33409  1.0000
  Fe  Fe109     1.0  0.58176  0.91996  0.38465  1.0000
  S   S217      1.0  0.58309  0.90207  0.33673  1.0000
  S   S218      1.0  0.59135  0.90849  0.43574  1.0000
  Fe  Fe110     1.0  0.56090  0.95559  0.35146  1.0000
  S   S219      1.0  0.56026  0.94108  0.30118  1.0000
  S   S220      1.0  0.54590  0.98604  0.35772  1.0000
  Fe  Fe111     1.0  0.55141  0.91481  0.32985  1.0000
  S   S221      1.0  0.52602  0.89650  0.31605  1.0000
  Fe  Fe112     1.0  0.59201  0.92998  0.31185  1.0000
  S   S222      1.0  0.61424  0.93786  0.27159  1.0000
  S   S223      1.0  0.54972  0.93033  0.37933  1.0000
  S   S224      1.0  0.59304  0.94666  0.36052  1.0000
  C   C587      1.0  0.58640  0.92558  0.46866  1.0000
  C   C588      1.0  0.58052  0.99536  0.38651  1.0000
  C   C589      1.0  0.59284  0.94465  0.46689  1.0000
  N   N50       1.0  0.98037  0.56679  0.14239  1.0000
  H   H585      1.0  0.59967  0.94948  0.44413  1.0000
  C   C590      1.0  0.88305  0.77155  0.46791  1.0000
  H   H586      1.0  0.92694  0.50607  0.13776  1.0000
  C   C591      1.0  0.86330  0.77886  0.47225  1.0000
  H   H587      1.0  0.58549  0.86334  0.28856  1.0000
  H   H588      1.0  0.85409  0.78216  0.45048  1.0000
  C   C592      1.0  0.74944  0.91104  0.02618  1.0000
  C   C593      1.0  0.89473  0.76734  0.49672  1.0000
  C   C594      1.0  0.73122  0.90313  0.02118  1.0000
  H   H589      1.0  0.75431  0.92560  0.30677  1.0000
  H   H590      1.0  0.72235  0.89974  0.04265  1.0000
  C   C595      1.0  0.67268  0.90968  0.22573  1.0000
  C   C596      1.0  0.66646  0.92963  0.22035  1.0000
  C   C597      1.0  0.64876  0.93804  0.23510  1.0000
  C   C598      1.0  0.63728  0.92681  0.25608  1.0000
  C   C599      1.0  0.64384  0.90705  0.26241  1.0000
  C   C600      1.0  0.66125  0.89850  0.24691  1.0000
  H   H591      1.0  0.67493  0.93838  0.20387  1.0000
  H   H592      1.0  0.64382  0.95330  0.22982  1.0000
  H   H593      1.0  0.63534  0.89823  0.27865  1.0000
  H   H594      1.0  0.66589  0.88305  0.25122  1.0000
  C   C601      1.0  0.80637  0.85746  0.23623  1.0000
  C   C602      1.0  0.80547  0.84057  0.25665  1.0000
  C   C603      1.0  0.82279  0.83075  0.27079  1.0000
  C   C604      1.0  0.84136  0.83779  0.26498  1.0000
  C   C605      1.0  0.84220  0.85482  0.24491  1.0000
  C   C606      1.0  0.82494  0.86448  0.23045  1.0000
  H   H595      1.0  0.79125  0.83497  0.26151  1.0000
  H   H596      1.0  0.82175  0.81778  0.28625  1.0000
  H   H597      1.0  0.85641  0.86045  0.24013  1.0000
  H   H598      1.0  0.82605  0.87733  0.21472  1.0000
  C   C607      1.0  0.85231  0.61829  0.03126  1.0000
  C   C608      1.0  0.86932  0.61319  0.01198  1.0000
  H   H599      1.0  0.99611  0.58572  0.21531  1.0000
  H   H600      1.0  0.77491  0.92119  0.00112  1.0000
  H   H601      1.0  0.82069  0.62462  0.03004  1.0000
  C   C609      1.0  0.90112  0.52379  0.15526  1.0000
  H   H602      1.0  0.88007  0.54150  0.02691  1.0000
  H   H603      1.0  0.59675  0.85828  0.24796  1.0000
  C   C610      1.0  0.77240  0.94479  0.27996  1.0000
  C   C611      1.0  0.59145  0.95709  0.49519  1.0000
  C   C612      1.0  0.88197  0.52315  0.16816  1.0000
  C   C613      1.0  0.50294  0.95910  0.37115  1.0000
  H   H604      1.0  0.74769  0.95943  0.03330  1.0000
  H   H605      1.0  0.96368  0.66750  0.24325  1.0000
  H   H606      1.0  0.87347  0.53671  0.17518  1.0000
  C   C614      1.0  0.89424  0.66582  0.23245  1.0000
  C   C615      1.0  0.90109  0.67412  0.26228  1.0000
  C   C616      1.0  0.89447  0.69358  0.27230  1.0000
  C   C617      1.0  0.88065  0.70496  0.25278  1.0000
  C   C618      1.0  0.87370  0.69662  0.22307  1.0000
  C   C619      1.0  0.88052  0.67726  0.21282  1.0000
  H   H607      1.0  0.91166  0.66544  0.27774  1.0000
  H   H608      1.0  0.89986  0.69964  0.29534  1.0000
  H   H609      1.0  0.86293  0.70517  0.20781  1.0000
  H   H610      1.0  0.87504  0.67115  0.18989  1.0000
  C   C620      1.0  0.85041  0.56399  0.99962  1.0000
  H   H611      1.0  0.86936  0.55869  0.12921  1.0000
  C   C621      1.0  0.97948  0.57540  0.17346  1.0000
  C   C622      1.0  0.94156  0.67479  0.20549  1.0000
  C   C623      1.0  0.59003  0.90080  0.23514  1.0000
  H   H612      1.0  0.50471  0.99738  0.35890  1.0000
  C   C624      1.0  0.97324  0.78063  0.31079  1.0000
  C   C625      1.0  0.97199  0.79730  0.33169  1.0000
  H   H613      1.0  0.81386  0.92925  0.23643  1.0000
  H   H614      1.0  0.95766  0.80354  0.34018  1.0000
  C   C626      1.0  0.97092  0.61980  0.10945  1.0000
  C   C627      1.0  0.96617  0.62620  0.14199  1.0000
  H   H615      1.0  0.85923  0.50444  0.18338  1.0000
  H   H616      1.0  0.95097  0.63039  0.14868  1.0000
  C   C628      1.0  0.74420  0.96021  0.00669  1.0000
  H   H617      1.0  0.88365  0.61133  0.02407  1.0000
  H   H618      1.0  0.76780  0.89146  0.32273  1.0000
  C   C629      1.0  0.98111  0.62720  0.16602  1.0000
  H   H619      1.0  0.83177  0.58334  0.05096  1.0000
  H   H620      1.0  0.60604  0.90014  0.23306  1.0000
  C   C630      1.0  0.93121  0.72964  0.25671  1.0000
  N   N51       1.0  0.58109  0.88654  0.25236  1.0000
  H   H621      1.0  0.97734  0.63169  0.19142  1.0000
  H   H622      1.0  0.76665  0.97991  0.14375  1.0000
  H   H623      1.0  0.93876  0.74140  0.24368  1.0000
  H   H624      1.0  0.51107  0.96370  0.39369  1.0000
  H   H625      1.0  0.55371  0.87612  0.26840  1.0000
  H   H626      1.0  0.64400  0.99855  0.32344  1.0000
  H   H627      1.0  0.95785  0.69978  0.27245  1.0000
  C   C631      1.0  0.96203  0.56414  0.12405  1.0000
  C   C632      1.0  0.87630  0.54824  0.07923  1.0000
  C   C633      1.0  0.50150  0.90794  0.31556  1.0000
  H   H628      1.0  0.79243  0.95993  0.24911  1.0000
  C   C634      1.0  0.59324  0.86989  0.26721  1.0000
  H   H629      1.0  0.91508  0.73409  0.25801  1.0000
  H   H630      1.0  0.94354  0.66046  0.19317  1.0000
  C   C635      1.0  0.87118  0.55000  0.04530  1.0000
  H   H631      1.0  0.76248  0.88516  0.27964  1.0000
  C   C636      1.0  0.99200  0.77280  0.29980  1.0000
  C   C637      1.0  0.95268  0.67867  0.23384  1.0000
  H   H632      1.0  0.60730  0.87488  0.27736  1.0000
  C   C638      1.0  0.87397  0.50477  0.17313  1.0000
  C   C639      1.0  0.99072  0.61511  0.10055  1.0000
  C   C640      1.0  0.98933  0.80621  0.34090  1.0000
  H   H633      1.0  0.53314  0.90393  0.24322  1.0000
  C   C641      1.0  0.76683  0.99297  0.15936  1.0000
  C   C642      1.0  0.78914  0.94586  0.25991  1.0000
  C   C643      1.0  0.83387  0.62068  0.01539  1.0000
  H   H634      1.0  0.54921  0.93035  0.21267  1.0000
  C   C644      1.0  0.61718  0.98523  0.31190  1.0000
  C   C645      1.0  0.54914  0.90308  0.24034  1.0000
  H   H635      1.0  0.76263  0.95802  0.28452  1.0000
  H   H636      1.0  0.62324  0.97032  0.31788  1.0000
  C   C646      1.0  0.84417  0.57322  0.05864  1.0000
  N   N52       1.0  0.83858  0.79269  0.21742  1.0000
  C   C647      1.0  0.81890  0.79616  0.20983  1.0000
  C   C648      1.0  0.85204  0.80480  0.20512  1.0000
  C   C649      1.0  0.81230  0.81196  0.18899  1.0000
  C   C650      1.0  0.84597  0.82068  0.18411  1.0000
  C   C651      1.0  0.82595  0.82428  0.17612  1.0000
  C   C652      1.0  0.84518  0.77692  0.24095  1.0000
  H   H637      1.0  0.80813  0.78702  0.22057  1.0000
  H   H638      1.0  0.86747  0.80269  0.21266  1.0000
  H   H639      1.0  0.79662  0.81511  0.18383  1.0000
  H   H640      1.0  0.85661  0.83061  0.17533  1.0000
  H   H641      1.0  0.82089  0.83701  0.16095  1.0000
  H   H642      1.0  0.84703  0.78336  0.26626  1.0000
  H   H643      1.0  0.83455  0.76532  0.24263  1.0000
  H   H644      1.0  0.85956  0.76932  0.23289  1.0000
  N   N53       1.0  0.77967  0.90964  0.28535  1.0000
  C   C653      1.0  0.79611  0.91058  0.26572  1.0000
  C   C654      1.0  0.76778  0.92643  0.29238  1.0000
  C   C655      1.0  0.80108  0.92866  0.25266  1.0000
  H   H645      1.0  0.88901  0.53855  0.08714  1.0000
  N   N54       1.0  0.90764  0.81294  0.49640  1.0000
  H   H646      1.0  0.58838  0.97626  0.29905  1.0000
  H   H647      1.0  0.80529  0.89728  0.25953  1.0000
  H   H648      1.0  0.50967  0.93578  0.29641  1.0000
  C   C656      1.0  0.76211  0.99189  0.19339  1.0000
  H   H649      1.0  0.95766  0.57757  0.10903  1.0000
  H   H650      1.0  0.99315  0.75995  0.28359  1.0000
  N   N55       1.0  0.85533  0.56244  0.03539  1.0000
  C   C657      1.0  0.91211  0.50582  0.14762  1.0000
  C   C658      1.0  0.77387  0.89041  0.29688  1.0000
  C   C659      1.0  0.55815  0.91789  0.22330  1.0000
  H   H651      1.0  0.58202  0.98044  0.39604  1.0000
  H   H652      1.0  0.58604  0.92839  0.20814  1.0000
  H   H653      1.0  0.93669  0.72878  0.28301  1.0000
  H   H654      1.0  0.98819  0.81932  0.35648  1.0000
  H   H655      1.0  0.78667  0.87902  0.29700  1.0000
  H   H656      1.0  0.91273  0.71808  0.20217  1.0000
  H   H657      1.0  0.91832  0.68607  0.17216  1.0000
  H   H658      1.0  0.91005  0.76176  0.49375  1.0000
  C   C660      1.0  0.98305  0.63326  0.99973  1.0000
  C   C661      1.0  0.84903  0.57200  0.09270  1.0000
  C   C662      1.0  0.92740  0.68921  0.19364  1.0000
  H   H659      1.0  0.96371  0.55110  0.10711  1.0000
  H   H660      1.0  0.89271  0.81149  0.44922  1.0000
  H   H661      1.0  0.84065  0.58124  0.11083  1.0000
  H   H662      1.0  0.91750  0.80075  0.44935  1.0000
  C   C663      1.0  0.86520  0.55943  0.10297  1.0000
  H   H663      1.0  0.96531  0.58034  0.18454  1.0000
  C   C664      1.0  0.56090  0.88738  0.25472  1.0000
  C   C665      1.0  0.57874  0.91677  0.22066  1.0000
  N   N56       1.0  0.93490  0.71071  0.23906  1.0000
  C   C666      1.0  0.94922  0.69689  0.25032  1.0000
  C   C667      1.0  0.92425  0.70721  0.21081  1.0000
  H   H664      1.0  0.94978  0.56157  0.14159  1.0000
  H   H665      1.0  0.71618  0.94810  0.01275  1.0000
  H   H666      1.0  0.95271  0.62846  0.01115  1.0000
  C   C668      1.0  0.99682  0.57831  0.19113  1.0000
  H   H667      1.0  0.59727  0.97147  0.49400  1.0000
  C   C669      1.0  0.90769  0.81330  0.45962  1.0000
  H   H668      1.0  0.91280  0.82747  0.45046  1.0000
  H   H669      1.0  0.71616  0.99705  0.18345  1.0000
  H   H670      1.0  0.62120  0.90231  0.49507  1.0000
  H   H671      1.0  0.51337  0.95813  0.34960  1.0000
  H   H672      1.0  0.99444  0.60997  0.07550  1.0000
  H   H673      1.0  0.98838  0.62931  0.02468  1.0000
  C   C670      1.0  0.59761  0.98854  0.30114  1.0000
  C   C671      1.0  0.99828  0.56153  0.12770  1.0000
  H   H674      1.0  0.99898  0.55531  0.10263  1.0000
  Fe  Fe113     1.0  0.55561  0.96421  0.67827  1.0000
  S   S225      1.0  0.55386  0.93263  0.69350  1.0000
  H   H675      1.0  0.62167  0.89177  0.63221  1.0000
  Fe  Fe114     1.0  0.57251  0.95321  0.60979  1.0000
  S   S226      1.0  0.57202  0.92073  0.62029  1.0000
  S   S227      1.0  0.58358  0.96581  0.56130  1.0000
  Fe  Fe115     1.0  0.54152  0.92909  0.64169  1.0000
  S   S228      1.0  0.51404  0.91410  0.62588  1.0000
  Fe  Fe116     1.0  0.58447  0.92804  0.67105  1.0000
  S   S229      1.0  0.60971  0.90954  0.69761  1.0000
  S   S230      1.0  0.54155  0.96114  0.62803  1.0000
  S   S231      1.0  0.58679  0.96003  0.65913  1.0000
  Fe  Fe117     1.0  0.87062  0.78243  0.62632  1.0000
  S   S232      1.0  0.87975  0.81133  0.64661  1.0000
  S   S233      1.0  0.85619  0.78151  0.57416  1.0000
  Fe  Fe118     1.0  0.88516  0.75945  0.68972  1.0000
  S   S234      1.0  0.89578  0.78703  0.71306  1.0000
  S   S235      1.0  0.89453  0.72971  0.71547  1.0000
  Fe  Fe119     1.0  0.86655  0.80271  0.69597  1.0000
  S   S236      1.0  0.85033  0.82382  0.73511  1.0000
  Fe  Fe120     1.0  0.90794  0.79349  0.66212  1.0000
  S   S237      1.0  0.93756  0.80317  0.64320  1.0000
  S   S238      1.0  0.85545  0.77455  0.67486  1.0000
  S   S239      1.0  0.89911  0.76517  0.63959  1.0000
  Fe  Fe121     1.0  0.73371  0.91230  0.86708  1.0000
  S   S240      1.0  0.76409  0.91954  0.85119  1.0000
  S   S241      1.0  0.72559  0.90037  0.91890  1.0000
  Fe  Fe122     1.0  0.71413  0.92811  0.80000  1.0000
  S   S242      1.0  0.74358  0.93696  0.78113  1.0000
  S   S243      1.0  0.68632  0.93973  0.77001  1.0000
  Fe  Fe123     1.0  0.75662  0.90712  0.80025  1.0000
  S   S244      1.0  0.77452  0.88555  0.76393  1.0000
  Fe  Fe124     1.0  0.74858  0.94852  0.83323  1.0000
  S   S245      1.0  0.75655  0.97802  0.85555  1.0000
  S   S246      1.0  0.72678  0.89795  0.81736  1.0000
  S   S247      1.0  0.71857  0.94144  0.85092  1.0000
  Fe  Fe125     1.0  0.86881  0.60666  0.87878  1.0000
  S   S248      1.0  0.86028  0.60069  0.82531  1.0000
  S   S249      1.0  0.84516  0.60719  0.91867  1.0000
  Fe  Fe126     1.0  0.91073  0.61219  0.85970  1.0000
  S   S250      1.0  0.90577  0.60675  0.80496  1.0000
  S   S251      1.0  0.93979  0.61717  0.88371  1.0000
  Fe  Fe127     1.0  0.87776  0.62664  0.81195  1.0000
  S   S252      1.0  0.86311  0.65068  0.77729  1.0000
  Fe  Fe128     1.0  0.88896  0.58138  0.82313  1.0000
  S   S253      1.0  0.89680  0.55157  0.79753  1.0000
  S   S254      1.0  0.88408  0.63371  0.86583  1.0000
  S   S255      1.0  0.89603  0.58567  0.87746  1.0000
  C   C672      1.0  0.89149  0.52781  0.81249  1.0000
  C   C673      1.0  0.89995  0.51073  0.79615  1.0000
  C   C674      1.0  0.96299  0.63283  0.99217  1.0000
  C   C675      1.0  0.89055  0.81885  0.54872  1.0000
  H   H676      1.0  0.61935  0.87540  0.57682  1.0000
  C   C676      1.0  0.87886  0.52556  0.83970  1.0000
  H   H677      1.0  0.90969  0.51227  0.77501  1.0000
  C   C677      1.0  0.95625  0.63782  0.95998  1.0000
  C   C678      1.0  0.97861  0.61340  0.86622  1.0000
  H   H678      1.0  0.87214  0.53853  0.85240  1.0000
  C   C679      1.0  0.88511  0.70836  0.73384  1.0000
  C   C680      1.0  0.89843  0.69430  0.74978  1.0000
  C   C681      1.0  0.89196  0.67679  0.76372  1.0000
  C   C682      1.0  0.87206  0.67289  0.76138  1.0000
  C   C683      1.0  0.85869  0.68699  0.74564  1.0000
  C   C684      1.0  0.86509  0.70468  0.73222  1.0000
  H   H679      1.0  0.91394  0.69695  0.75125  1.0000
  H   H680      1.0  0.90247  0.66615  0.77567  1.0000
  H   H681      1.0  0.84325  0.68418  0.74372  1.0000
  H   H682      1.0  0.85458  0.71536  0.72043  1.0000
  C   C685      1.0  0.83007  0.84243  0.74075  1.0000
  C   C686      1.0  0.81468  0.84574  0.71741  1.0000
  C   C687      1.0  0.79822  0.85940  0.72450  1.0000
  C   C688      1.0  0.79677  0.87006  0.75496  1.0000
  C   C689      1.0  0.81241  0.86715  0.77790  1.0000
  C   C690      1.0  0.82883  0.85345  0.77085  1.0000
  H   H683      1.0  0.81529  0.83754  0.69410  1.0000
  H   H684      1.0  0.78635  0.86151  0.70638  1.0000
  H   H685      1.0  0.81175  0.87524  0.80130  1.0000
  H   H686      1.0  0.84062  0.85120  0.78910  1.0000
  H   H687      1.0  0.93882  0.80339  0.56208  1.0000
  C   C691      1.0  0.63171  0.91777  0.71579  1.0000
  C   C692      1.0  0.63754  0.93684  0.71046  1.0000
  C   C693      1.0  0.65476  0.94290  0.72611  1.0000
  C   C694      1.0  0.66630  0.93015  0.74768  1.0000
  C   C695      1.0  0.66065  0.91095  0.75255  1.0000
  C   C696      1.0  0.64352  0.90481  0.73661  1.0000
  H   H688      1.0  0.62874  0.94703  0.69453  1.0000
  H   H689      1.0  0.65897  0.95776  0.72203  1.0000
  H   H690      1.0  0.66930  0.90094  0.76902  1.0000
  H   H691      1.0  0.63928  0.88997  0.74081  1.0000
  C   C697      1.0  0.94834  0.56996  0.78829  1.0000
  H   H692      1.0  0.90297  0.70751  0.65165  1.0000
  C   C698      1.0  0.96003  0.57481  0.76109  1.0000
  C   C699      1.0  0.63352  0.96314  0.78961  1.0000
  H   H693      1.0  0.93249  0.56968  0.78475  1.0000
  C   C700      1.0  0.95564  0.62184  0.82103  1.0000
  C   C701      1.0  0.95921  0.61750  0.85489  1.0000
  C   C702      1.0  0.84164  0.73516  0.61811  1.0000
  H   H694      1.0  0.94076  0.62569  0.81232  1.0000
  H   H695      1.0  0.97680  0.80650  0.61789  1.0000
  H   H696      1.0  0.86790  0.71819  0.66182  1.0000
  C   C703      1.0  0.96125  0.79776  0.66189  1.0000
  C   C704      1.0  0.96347  0.79090  0.69487  1.0000
  C   C705      1.0  0.59226  0.93094  0.77310  1.0000
  H   H697      1.0  0.95049  0.78835  0.70951  1.0000
  C   C706      1.0  0.57608  0.93195  0.52649  1.0000
  C   C707      1.0  0.58328  0.95069  0.52522  1.0000
  H   H698      1.0  0.96432  0.64706  0.91079  1.0000
  H   H699      1.0  0.56942  0.92699  0.54921  1.0000
  C   C708      1.0  0.59767  0.96478  0.75571  1.0000
  C   C709      1.0  0.88689  0.77052  0.52930  1.0000
  C   C710      1.0  0.86709  0.77767  0.53362  1.0000
  H   H700      1.0  0.98143  0.60978  0.89229  1.0000
  H   H701      1.0  0.89619  0.76748  0.55105  1.0000
  C   C711      1.0  0.72440  0.89963  0.98830  1.0000
  C   C712      1.0  0.75374  0.91207  0.96484  1.0000
  C   C713      1.0  0.73545  0.90430  0.95985  1.0000
  H   H702      1.0  0.58227  0.93197  0.79518  1.0000
  H   H703      1.0  0.76254  0.91561  0.94340  1.0000
  H   H704      1.0  0.99637  0.66021  0.89991  1.0000
  H   H705      1.0  0.60573  0.88542  0.51428  1.0000
  C   C714      1.0  0.84899  0.61233  0.96147  1.0000
  H   H706      1.0  0.96872  0.62484  0.77214  1.0000
  H   H707      1.0  0.88074  0.60636  0.96204  1.0000
  H   H708      1.0  0.62466  0.92793  0.63510  1.0000
  N   N57       1.0  0.86254  0.72887  0.61199  1.0000
  C   C715      1.0  0.87397  0.72012  0.63702  1.0000
  C   C716      1.0  0.87030  0.73116  0.58071  1.0000
  H   H709      1.0  0.94014  0.57575  0.86150  1.0000
  C   C717      1.0  0.62190  0.94700  0.78956  1.0000
  C   C718      1.0  0.89015  0.72509  0.57408  1.0000
  H   H710      1.0  0.98322  0.56415  0.84817  1.0000
  C   C719      1.0  0.62706  0.98023  0.77199  1.0000
  H   H711      1.0  0.77199  0.97109  0.99267  1.0000
  H   H712      1.0  0.83829  0.73630  0.64536  1.0000
  C   C720      1.0  0.96969  0.64342  0.93587  1.0000
  C   C721      1.0  0.99442  0.61360  0.84378  1.0000
  C   C722      1.0  0.60903  0.98110  0.75495  1.0000
  C   C723      1.0  0.70365  0.94667  0.94939  1.0000
  H   H713      1.0  0.62310  0.93071  0.52763  1.0000
  C   C724      1.0  0.62091  0.89119  0.57790  1.0000
  C   C725      1.0  0.97150  0.62168  0.79840  1.0000
  N   N58       1.0  0.60434  0.94790  0.77242  1.0000
  H   H714      1.0  0.71033  0.89343  0.98491  1.0000
  H   H715      1.0  0.95196  0.55091  0.86498  1.0000
  C   C726      1.0  0.75791  0.96657  0.98384  1.0000
  S   S256      1.0  0.54455  0.98644  0.71677  1.0000
  C   C727      1.0  0.73557  0.96013  0.93871  1.0000
  H   H716      1.0  0.76406  0.97141  0.93139  1.0000
  H   H717      1.0  0.62736  0.93354  0.80241  1.0000
  H   H718      1.0  0.73240  0.96019  0.91205  1.0000
  H   H719      1.0  0.86120  0.73803  0.56082  1.0000
  H   H720      1.0  0.91751  0.71202  0.59510  1.0000
  C   C728      1.0  0.75355  0.96664  0.94960  1.0000
  H   H721      1.0  0.76403  0.98845  0.78565  1.0000
  H   H722      1.0  0.83212  0.72444  0.60655  1.0000
  H   H723      1.0  0.64786  0.96203  0.80202  1.0000
  N   N59       1.0  0.83108  0.65447  0.87280  1.0000
  C   C729      1.0  0.83681  0.66476  0.84551  1.0000
  C   C730      1.0  0.83900  0.65767  0.90374  1.0000
  C   C731      1.0  0.85075  0.67877  0.84876  1.0000
  C   C732      1.0  0.85297  0.67158  0.90792  1.0000
  C   C733      1.0  0.85889  0.68215  0.88017  1.0000
  C   C734      1.0  0.81723  0.63917  0.86822  1.0000
  H   H724      1.0  0.83097  0.66183  0.82081  1.0000
  H   H725      1.0  0.83482  0.64921  0.92529  1.0000
  H   H726      1.0  0.85562  0.68646  0.82676  1.0000
  H   H727      1.0  0.85945  0.67377  0.93240  1.0000
  H   H728      1.0  0.87002  0.69267  0.88282  1.0000
  H   H729      1.0  0.82519  0.62572  0.85714  1.0000
  H   H730      1.0  0.81077  0.63480  0.89246  1.0000
  H   H731      1.0  0.80488  0.64445  0.85134  1.0000
  H   H732      1.0  0.86432  0.50497  0.87053  1.0000
  C   C735      1.0  0.83220  0.61752  0.98090  1.0000
  H   H733      1.0  0.94077  0.63706  0.95346  1.0000
  C   C736      1.0  0.90801  0.81341  0.56610  1.0000
  N   N60       1.0  0.77829  0.84269  0.82075  1.0000
  C   C737      1.0  0.79622  0.83327  0.82930  1.0000
  C   C738      1.0  0.76951  0.83855  0.79092  1.0000
  C   C739      1.0  0.80574  0.81914  0.80789  1.0000
  C   C740      1.0  0.77859  0.82448  0.76896  1.0000
  C   C741      1.0  0.79688  0.81481  0.77748  1.0000
  C   C742      1.0  0.76930  0.85854  0.84226  1.0000
  H   H734      1.0  0.80360  0.83717  0.85222  1.0000
  H   H735      1.0  0.75589  0.84688  0.78320  1.0000
  H   H736      1.0  0.82036  0.81232  0.81393  1.0000
  H   H737      1.0  0.77201  0.82188  0.74473  1.0000
  H   H738      1.0  0.80463  0.80466  0.75991  1.0000
  H   H739      1.0  0.75292  0.86007  0.83953  1.0000
  H   H740      1.0  0.77261  0.85559  0.86916  1.0000
  H   H741      1.0  0.77506  0.87284  0.83509  1.0000
  C   C743      1.0  0.87445  0.50648  0.84992  1.0000
  C   C744      1.0  0.97666  0.56662  0.82356  1.0000
  H   H742      1.0  0.81771  0.61893  0.96929  1.0000
  H   H743      1.0  0.62486  0.94757  0.58237  1.0000
  H   H744      1.0  0.60175  0.91674  0.77391  1.0000
  H   H745      1.0  0.58359  0.96564  0.74254  1.0000
  C   C745      1.0  0.89387  0.71390  0.63131  1.0000
  C   C746      1.0  0.90201  0.71649  0.59965  1.0000
  H   H746      1.0  0.90821  0.81347  0.59327  1.0000
  C   C747      1.0  0.62418  0.93163  0.58136  1.0000
  H   H747      1.0  0.93040  0.55536  0.83949  1.0000
  H   H748      1.0  0.83777  0.75007  0.60715  1.0000
  H   H749      1.0  0.87692  0.82274  0.56240  1.0000
  H   H750      1.0  0.63613  0.99269  0.77116  1.0000
  C   C748      1.0  0.94421  0.56178  0.84767  1.0000
  C   C749      1.0  0.62018  0.89197  0.51657  1.0000
  C   C750      1.0  0.99091  0.61750  0.80979  1.0000
  C   C751      1.0  0.62307  0.92200  0.55044  1.0000
  C   C752      1.0  0.98040  0.57540  0.76545  1.0000
  H   H751      1.0  0.58321  0.93032  0.74993  1.0000
  C   C753      1.0  0.85536  0.78171  0.50486  1.0000
  C   C754      1.0  0.97833  0.80113  0.64335  1.0000
  N   N61       1.0  0.98932  0.64388  0.94350  1.0000
  N   N62       1.0  0.62146  0.90202  0.54902  1.0000
  H   H752      1.0  0.84000  0.78718  0.50778  1.0000
  C   C755      1.0  0.86769  0.61044  0.97690  1.0000
  N   N63       1.0  0.72243  0.95345  0.96123  1.0000
  C   C756      1.0  0.62390  0.92067  0.61090  1.0000
  N   N64       1.0  0.95674  0.56583  0.81898  1.0000
  C   C757      1.0  0.72641  0.95369  0.99488  1.0000
  H   H753      1.0  0.98398  0.78290  0.73500  1.0000
  C   C758      1.0  0.98251  0.78783  0.70926  1.0000
  H   H754      1.0  0.95324  0.57841  0.73698  1.0000
  C   C759      1.0  0.92527  0.80773  0.54842  1.0000
  H   H755      1.0  0.60396  0.99428  0.74104  1.0000
  H   H756      1.0  0.63237  0.88009  0.51399  1.0000
  H   H757      1.0  0.89629  0.72727  0.54935  1.0000
  C   C760      1.0  0.62223  0.90031  0.60924  1.0000
  H   H758      1.0  0.69199  0.95915  0.94939  1.0000
  H   H759      1.0  0.70519  0.94041  0.92365  1.0000
  H   H760      1.0  0.86332  0.56852  0.98518  1.0000
  H   H761      1.0  0.83792  0.57531  0.99474  1.0000
  C   C761      1.0  0.98883  0.57111  0.79678  1.0000
  H   H762      1.0  0.69896  0.93449  0.96543  1.0000
  C   C762      1.0  0.99739  0.79770  0.65754  1.0000
  H   H763      1.0  0.84616  0.54957  0.98995  1.0000
  C   C763      1.0  0.92484  0.80763  0.51332  1.0000
  H   H764      1.0  0.98962  0.57978  0.74494  1.0000
  C   C764      1.0  0.89065  0.81865  0.51362  1.0000
  C   C765      1.0  0.99614  0.63863  0.97483  1.0000
  H   H765      1.0  0.56680  0.99384  0.51150  1.0000
  H   H766      1.0  0.57261  0.90474  0.49983  1.0000
  C   C766      1.0  0.57783  0.91938  0.49842  1.0000
  H   H767      1.0  0.87693  0.82257  0.50031  1.0000
  C   C767      1.0  0.76074  0.91518  0.99771  1.0000
  H   H768      1.0  0.93830  0.80314  0.49967  1.0000
  C   C768      1.0  0.99956  0.79119  0.69071  1.0000
