data_image0
_chemical_formula_structural       HC2HSHSHC2HFeC2HSHCFeHSCHCHCH3FeC2HNHCS2CFeS2CHFeSCSHFeCSC4H2NHC6H6NHC2H4CSCHCH2CSCH2SH2C4FeCSCSC2SFeCH5CSCFeSHFeSFeSHSFeC2HSC2SHSFeHCSH2CFeCNH2CSCHCHC2HC2FeCHCHCH3CHCHCFeCHCHC2HCHC2HNH2C2HCS2HNHCNCS2HS2H4C3H2CH2C4H2CH3C2HFeHSCH2C2HCHCFeCHCSH4SCFeSHFeS2FeH2Fe2S3FeS2FeS2FeSFeS3CSFeS2FeS2FeSFeS3HNSH2C4H2C6H2C7H3C6H4CH2C6H5CH2NCSC7H4FeSH2SH4NCFeCFeH4FeC2H2CHCH4C3HC2HCHNC6H3CH2CHCHCHCHC2SCNC2HC2SC2H2CNC2HCSHCHFe2H8C4H2CHCNH2CH2CHCH2SC4HCHCHCHNHC3H2CH4CNH3CHC2H2C2SC3SHCSNFeS2FeS2FeSFeHS2H2FeS2HCFeSCS3H2CSH4CHC7H4C6H3C2FeC6H4SHCHCHSCHCH2CHC3HC2H4NC2NH2CSCHCHSH2CH2SC2HSC3H2FeC3HFeHCH2NH2NCH2C2HFeCHFeH3NH5CHCHCHC3HCH2CHCHCH3SCNCHCHC2H3C2HSFeS2FeSHFeHFeS3CHSNSFeSCHSC7H5NC2HSCH4CHC2HC6H3CSCHCHCH2C2H4C5NCH2CHC2HCHCHCFeH2NHCFeHC2H3CH3FeCSCH3C2HCFeSCFeSFeSFeHS2FeS2FeS2FeS2FeS2FeSFeS3HSH2SFeS2FeS2FeSFeS3H2C3HSCH3C6H4C6H4C6H2FeHCHC4H4C6H5C4H4CHC6H5CSH2CNC3SNCHFeH2CH2SC3S2HS2CH3C2NC5SHCH3CH2NC6H7NC6H8NC6H3CH4FeC3H4C2H4CHNC2H2C2HC2HCHSH2CH2CHC4HCHC3H2CNH2C2H2CSHNFeS2FeC4FeH2SH3FeS2H2C2HSFeS2FeS2Fe2SHSFeSFeSHFeS2C6H5C2HCHC2HC4H2C5HCSCHC5H5SCHCSH2SC2H2C2HC2HCHC2HSH2NHCFeSH2C2HC2HCNCHCH3CH3CSHCHC2H2CH3CNCH2CHSH3SCSCNC2HC3HC2H2C2HCFeH2NSHC2HCH5CSHC3HCH2CH4C2H2S2CHC2HCNH2C2HSCFeC3SHC3HC2FeCH2C2HCHNH2SCHNCH4SCS2Fe2C3HSNFeHFeH2SHCFeCFeHC5HFeHNC4HC4SCH3SH2CHC3SHSNCNFeHCH3C2HCH3CH2SHCHCH2CH2SHC2S2CSCH3SCSH2
_chemical_formula_sum              "H576 C576 S192 Fe96 N48"
_cell_length_a       58.3039
_cell_length_b       60.6746
_cell_length_c       59.9739
_cell_angle_alpha    79.2003
_cell_angle_beta     74.6159
_cell_angle_gamma    77.2841

_space_group_name_H-M_alt    "P 1"
_space_group_IT_number       1

loop_
  _space_group_symop_operation_xyz
  'x, y, z'

loop_
  _atom_site_type_symbol
  _atom_site_label
  _atom_site_symmetry_multiplicity
  _atom_site_fract_x
  _atom_site_fract_y
  _atom_site_fract_z
  _atom_site_occupancy
  H   H1        1.0  0.45297  0.14604  0.39815  1.0000
  C   C1        1.0  0.49017  0.03006  0.40479  1.0000
  C   C2        1.0  0.40580  0.06133  0.40947  1.0000
  H   H2        1.0  0.49253  0.03195  0.45184  1.0000
  S   S1        1.0  0.40036  0.03681  0.40105  1.0000
  H   H3        1.0  0.48553  0.03493  0.35626  1.0000
  S   S2        1.0  0.46462  0.11504  0.46600  1.0000
  H   H4        1.0  0.47330  0.02566  0.40446  1.0000
  C   C3        1.0  0.49164  0.05299  0.40415  1.0000
  C   C4        1.0  0.47044  0.13406  0.39783  1.0000
  H   H5        1.0  0.47525  0.16477  0.42169  1.0000
  Fe  Fe1       1.0  0.42757  0.13156  0.46131  1.0000
  C   C5        1.0  0.39418  0.10226  0.41036  1.0000
  C   C6        1.0  0.38251  0.03495  0.46774  1.0000
  H   H6        1.0  0.43431  0.04466  0.42681  1.0000
  S   S3        1.0  0.41307  0.12780  0.43115  1.0000
  H   H7        1.0  0.37489  0.07168  0.46105  1.0000
  C   C7        1.0  0.41095  0.10169  0.42345  1.0000
  Fe  Fe2       1.0  0.46624  0.14904  0.47504  1.0000
  H   H8        1.0  0.47265  0.12227  0.38500  1.0000
  S   S4        1.0  0.44146  0.99547  0.43610  1.0000
  C   C8        1.0  0.42311  0.06065  0.42219  1.0000
  H   H9        1.0  0.38296  0.11829  0.40555  1.0000
  C   C9        1.0  0.39148  0.08226  0.40363  1.0000
  H   H10       1.0  0.37814  0.08307  0.39379  1.0000
  C   C10       1.0  0.42556  0.08081  0.42935  1.0000
  H   H11       1.0  0.47581  0.06611  0.40357  1.0000
  H   H12       1.0  0.46948  0.12344  0.41515  1.0000
  H   H13       1.0  0.43882  0.08024  0.43919  1.0000
  Fe  Fe3       1.0  0.42175  0.00147  0.40776  1.0000
  C   C11       1.0  0.48994  0.16224  0.40636  1.0000
  C   C12       1.0  0.49295  0.23837  0.47739  1.0000
  H   H14       1.0  0.37209  0.03271  0.45601  1.0000
  N   N1        1.0  0.49043  0.14668  0.39236  1.0000
  H   H15       1.0  0.39398  0.99901  0.47704  1.0000
  C   C13       1.0  0.39513  0.01600  0.47948  1.0000
  S   S5        1.0  0.43112  0.16626  0.46648  1.0000
  S   S6        1.0  0.49409  0.17158  0.46227  1.0000
  C   C14       1.0  0.38415  0.05684  0.47051  1.0000
  Fe  Fe4       1.0  0.44542  0.10806  0.50371  1.0000
  S   S7        1.0  0.40814  0.12362  0.49861  1.0000
  S   S8        1.0  0.44640  0.07236  0.52325  1.0000
  C   C15       1.0  0.47451  0.05442  0.52360  1.0000
  H   H16       1.0  0.46627  0.12456  0.57396  1.0000
  Fe  Fe5       1.0  0.41589  0.15656  0.50444  1.0000
  S   S9        1.0  0.39062  0.18375  0.52485  1.0000
  C   C16       1.0  0.49493  0.06322  0.52301  1.0000
  S   S10       1.0  0.45130  0.14016  0.51333  1.0000
  H   H17       1.0  0.42878  0.18305  0.57741  1.0000
  Fe  Fe6       1.0  0.43133  0.29163  0.55236  1.0000
  C   C17       1.0  0.40151  0.13299  0.56532  1.0000
  S   S11       1.0  0.44134  0.25315  0.55338  1.0000
  C   C18       1.0  0.39878  0.05954  0.48447  1.0000
  C   C19       1.0  0.43968  0.10845  0.56769  1.0000
  C   C20       1.0  0.41021  0.15100  0.56989  1.0000
  C   C21       1.0  0.49661  0.27425  0.48678  1.0000
  H   H18       1.0  0.46925  0.25471  0.50625  1.0000
  H   H19       1.0  0.49051  0.28770  0.49782  1.0000
  N   N2        1.0  0.40919  0.01880  0.49339  1.0000
  H   H20       1.0  0.44032  0.99288  0.49208  1.0000
  C   C22       1.0  0.40465  0.20471  0.53018  1.0000
  C   C23       1.0  0.39053  0.22377  0.54047  1.0000
  C   C24       1.0  0.40154  0.23964  0.54644  1.0000
  C   C25       1.0  0.42673  0.23615  0.54271  1.0000
  C   C26       1.0  0.44079  0.21720  0.53226  1.0000
  C   C27       1.0  0.42985  0.20183  0.52560  1.0000
  H   H21       1.0  0.37102  0.22613  0.54407  1.0000
  H   H22       1.0  0.39053  0.25401  0.55479  1.0000
  H   H23       1.0  0.46026  0.21425  0.52950  1.0000
  H   H24       1.0  0.44097  0.18751  0.51737  1.0000
  H   H25       1.0  0.40080  0.07651  0.48608  1.0000
  H   H26       1.0  0.45769  0.17112  0.56076  1.0000
  N   N3        1.0  0.43323  0.14791  0.57285  1.0000
  H   H27       1.0  0.38360  0.13589  0.56196  1.0000
  C   C28       1.0  0.47612  0.03076  0.52552  1.0000
  C   C29       1.0  0.41638  0.11160  0.56420  1.0000
  H   H28       1.0  0.45153  0.09197  0.56625  1.0000
  H   H29       1.0  0.46029  0.02383  0.52641  1.0000
  H   H30       1.0  0.41012  0.09759  0.56008  1.0000
  H   H31       1.0  0.39860  0.16765  0.57033  1.0000
  C   C30       1.0  0.44789  0.12694  0.57197  1.0000
  S   S12       1.0  0.45608  0.30648  0.56615  1.0000
  C   C31       1.0  0.44278  0.16726  0.57604  1.0000
  H   H32       1.0  0.44965  0.16333  0.59219  1.0000
  C   C32       1.0  0.42317  0.99869  0.50460  1.0000
  H   H33       1.0  0.42308  0.04253  0.50618  1.0000
  H   H34       1.0  0.49380  0.08143  0.52176  1.0000
  C   C33       1.0  0.41141  0.04022  0.49571  1.0000
  S   S13       1.0  0.43754  0.31375  0.51766  1.0000
  C   C34       1.0  0.48474  0.25568  0.49155  1.0000
  H   H35       1.0  0.42745  0.00236  0.52037  1.0000
  H   H36       1.0  0.34719  0.31656  0.54126  1.0000
  S   S14       1.0  0.39817  0.31541  0.56886  1.0000
  H   H37       1.0  0.49551  0.01574  0.47972  1.0000
  H   H38       1.0  0.48395  0.22373  0.48109  1.0000
  C   C35       1.0  0.03528  0.55983  0.44668  1.0000
  C   C36       1.0  0.33936  0.57574  0.29811  1.0000
  C   C37       1.0  0.38180  0.58541  0.26735  1.0000
  C   C38       1.0  0.09592  0.57922  0.47520  1.0000
  Fe  Fe7       1.0  0.44061  0.61239  0.00899  1.0000
  C   C39       1.0  0.17215  0.58438  0.44763  1.0000
  S   S15       1.0  0.43564  0.57881  0.00129  1.0000
  C   C40       1.0  0.36166  0.56825  0.30417  1.0000
  S   S16       1.0  0.26650  0.61428  0.46255  1.0000
  C   C41       1.0  0.07676  0.60368  0.44625  1.0000
  C   C42       1.0  0.43743  0.54110  0.05041  1.0000
  S   S17       1.0  0.45141  0.61259  0.04219  1.0000
  Fe  Fe8       1.0  0.47761  0.63473  0.02061  1.0000
  C   C43       1.0  0.33945  0.64505  0.27967  1.0000
  H   H39       1.0  0.07943  0.54499  0.45035  1.0000
  H   H40       1.0  0.48544  0.59465  0.25188  1.0000
  H   H41       1.0  0.05307  0.51530  0.41648  1.0000
  H   H42       1.0  0.44334  0.52397  0.05968  1.0000
  H   H43       1.0  0.26748  0.57723  0.43708  1.0000
  C   C44       1.0  0.17109  0.64939  0.39341  1.0000
  S   S18       1.0  0.05931  0.63603  0.34899  1.0000
  C   C45       1.0  0.48623  0.50803  0.99277  1.0000
  Fe  Fe9       1.0  0.03921  0.62096  0.41512  1.0000
  S   S19       1.0  0.06309  0.59480  0.39287  1.0000
  H   H44       1.0  0.48079  0.33504  0.43898  1.0000
  Fe  Fe10      1.0  0.08263  0.62377  0.37493  1.0000
  S   S20       1.0  0.12357  0.61718  0.36363  1.0000
  Fe  Fe11      1.0  0.03805  0.60869  0.36876  1.0000
  S   S21       1.0  0.02639  0.59026  0.34539  1.0000
  H   H45       1.0  0.14228  0.61027  0.44010  1.0000
  S   S22       1.0  0.01224  0.63155  0.39306  1.0000
  Fe  Fe12      1.0  0.42521  0.64537  0.04554  1.0000
  C   C46       1.0  0.18152  0.63254  0.37889  1.0000
  C   C47       1.0  0.40949  0.57572  0.06249  1.0000
  H   H46       1.0  0.48289  0.56902  0.07926  1.0000
  S   S23       1.0  0.44968  0.57289  0.24298  1.0000
  C   C48       1.0  0.49653  0.57318  0.06383  1.0000
  C   C49       1.0  0.42928  0.57308  0.10036  1.0000
  S   S24       1.0  0.24764  0.61748  0.40350  1.0000
  H   H47       1.0  0.47378  0.49976  0.98725  1.0000
  S   S25       1.0  0.41327  0.62606  0.21416  1.0000
  Fe  Fe13      1.0  0.43907  0.61123  0.23727  1.0000
  H   H48       1.0  0.08747  0.53899  0.42077  1.0000
  C   C50       1.0  0.33995  0.62230  0.31752  1.0000
  S   S26       1.0  0.46993  0.63087  0.98712  1.0000
  H   H49       1.0  0.34992  0.61265  0.33013  1.0000
  H   H50       1.0  0.48444  0.54400  0.19772  1.0000
  C   C51       1.0  0.35980  0.59338  0.26081  1.0000
  Fe  Fe14      1.0  0.27831  0.62748  0.37412  1.0000
  C   C52       1.0  0.30210  0.63566  0.30571  1.0000
  N   N4        1.0  0.05002  0.54174  0.43657  1.0000
  H   H51       1.0  0.28281  0.63626  0.30909  1.0000
  H   H52       1.0  0.32116  0.59529  0.27187  1.0000
  C   C53       1.0  0.14138  0.62840  0.37685  1.0000
  S   S27       1.0  0.02799  0.61746  0.45393  1.0000
  C   C54       1.0  0.01375  0.48729  0.47598  1.0000
  H   H53       1.0  0.01773  0.48798  0.43912  1.0000
  C   C55       1.0  0.40585  0.56537  0.29527  1.0000
  H   H54       1.0  0.35924  0.60387  0.24410  1.0000
  C   C56       1.0  0.01089  0.56693  0.35342  1.0000
  C   C57       1.0  0.35218  0.63321  0.29636  1.0000
  H   H55       1.0  0.26992  0.53550  0.44984  1.0000
  C   C58       1.0  0.04151  0.52991  0.42415  1.0000
  C   C59       1.0  0.43820  0.65249  0.14000  1.0000
  Fe  Fe15      1.0  0.43729  0.65196  0.19935  1.0000
  C   C60       1.0  0.47872  0.56220  0.24806  1.0000
  H   H56       1.0  0.00015  0.58169  0.45154  1.0000
  C   C61       1.0  0.00529  0.48755  0.45607  1.0000
  H   H57       1.0  0.02763  0.55477  0.32037  1.0000
  C   C62       1.0  0.48829  0.53891  0.24781  1.0000
  H   H58       1.0  0.07956  0.51691  0.44486  1.0000
  H   H59       1.0  0.21951  0.63507  0.45794  1.0000
  H   H60       1.0  0.11354  0.58589  0.43886  1.0000
  C   C63       1.0  0.45223  0.64895  0.11755  1.0000
  H   H61       1.0  0.45334  0.54647  0.03735  1.0000
  C   C64       1.0  0.01768  0.53620  0.42153  1.0000
  H   H62       1.0  0.15884  0.64170  0.44745  1.0000
  C   C65       1.0  0.20326  0.59826  0.45787  1.0000
  Fe  Fe16      1.0  0.26584  0.63055  0.42558  1.0000
  C   C66       1.0  0.26950  0.58444  0.47027  1.0000
  H   H63       1.0  0.17487  0.60972  0.35863  1.0000
  C   C67       1.0  0.31496  0.62316  0.32201  1.0000
  H   H64       1.0  0.01099  0.52665  0.41179  1.0000
  C   C68       1.0  0.33845  0.58854  0.27636  1.0000
  C   C69       1.0  0.19433  0.58010  0.45386  1.0000
  H   H65       1.0  0.20101  0.62797  0.37352  1.0000
  C   C70       1.0  0.27033  0.54651  0.46194  1.0000
  H   H66       1.0  0.40219  0.57732  0.04727  1.0000
  C   C71       1.0  0.16885  0.62439  0.44939  1.0000
  C   C72       1.0  0.26893  0.57014  0.45469  1.0000
  H   H67       1.0  0.39832  0.58926  0.25522  1.0000
  N   N5        1.0  0.38249  0.57331  0.28891  1.0000
  H   H68       1.0  0.47738  0.52753  0.24560  1.0000
  H   H69       1.0  0.43758  0.57220  0.11477  1.0000
  C   C73       1.0  0.40065  0.59245  0.07738  1.0000
  C   C74       1.0  0.15938  0.60668  0.44522  1.0000
  H   H70       1.0  0.40421  0.60416  0.10786  1.0000
  C   C75       1.0  0.43760  0.55659  0.08518  1.0000
  S   S28       1.0  0.06061  0.64865  0.39907  1.0000
  S   S29       1.0  0.46444  0.63570  0.22101  1.0000
  H   H71       1.0  0.40372  0.55947  0.31428  1.0000
  N   N6        1.0  0.19057  0.62006  0.45549  1.0000
  H   H72       1.0  0.36203  0.55883  0.32137  1.0000
  C   C76       1.0  0.41061  0.59104  0.09645  1.0000
  N   N7        1.0  0.42754  0.55794  0.06669  1.0000
  C   C77       1.0  0.01477  0.55216  0.33693  1.0000
  S   S30       1.0  0.41831  0.63174  0.26596  1.0000
  S   S31       1.0  0.04451  0.48890  0.47254  1.0000
  H   H73       1.0  0.38288  0.65289  0.13071  1.0000
  S   S32       1.0  0.29824  0.63734  0.39684  1.0000
  S   S33       1.0  0.30048  0.60619  0.34637  1.0000
  H   H74       1.0  0.42392  0.53964  0.04097  1.0000
  H   H75       1.0  0.38670  0.60684  0.07379  1.0000
  H   H76       1.0  0.41649  0.57939  0.29071  1.0000
  H   H77       1.0  0.32276  0.57252  0.31063  1.0000
  C   C78       1.0  0.05481  0.60651  0.46297  1.0000
  C   C79       1.0  0.07536  0.53537  0.43823  1.0000
  C   C80       1.0  0.13097  0.64456  0.39218  1.0000
  H   H78       1.0  0.07766  0.61061  0.42825  1.0000
  H   H79       1.0  0.45253  0.54293  0.08797  1.0000
  C   C81       1.0  0.49363  0.54710  0.98752  1.0000
  H   H80       1.0  0.41650  0.55113  0.28549  1.0000
  H   H81       1.0  0.22043  0.59486  0.46285  1.0000
  C   C82       1.0  0.19950  0.63871  0.46096  1.0000
  C   C83       1.0  0.49278  0.57672  0.25132  1.0000
  C   C84       1.0  0.16668  0.62225  0.37047  1.0000
  C   C85       1.0  0.09736  0.58994  0.45233  1.0000
  H   H82       1.0  0.37142  0.63221  0.29296  1.0000
  H   H83       1.0  0.04193  0.56901  0.45669  1.0000
  C   C86       1.0  0.44135  0.64711  0.09980  1.0000
  H   H84       1.0  0.16477  0.57049  0.44471  1.0000
  H   H85       1.0  0.20457  0.56288  0.45555  1.0000
  H   H86       1.0  0.00572  0.52264  0.32866  1.0000
  C   C87       1.0  0.01148  0.56683  0.44412  1.0000
  C   C88       1.0  0.31433  0.64660  0.28459  1.0000
  H   H87       1.0  0.47844  0.51027  0.01142  1.0000
  Fe  Fe17      1.0  0.39486  0.64906  0.24142  1.0000
  H   H88       1.0  0.49141  0.60828  0.06887  1.0000
  S   S34       1.0  0.41192  0.64374  0.01383  1.0000
  C   C89       1.0  0.49436  0.33539  0.44814  1.0000
  H   H89       1.0  0.47156  0.64838  0.11364  1.0000
  H   H90       1.0  0.45233  0.64507  0.08242  1.0000
  C   C90       1.0  0.00228  0.53395  0.34161  1.0000
  C   C91       1.0  0.41324  0.65312  0.14486  1.0000
  H   H91       1.0  0.11155  0.64944  0.39721  1.0000
  C   C92       1.0  0.48760  0.33679  0.47218  1.0000
  H   H92       1.0  0.01000  0.64136  0.32915  1.0000
  C   C93       1.0  0.00261  0.55481  0.43158  1.0000
  Fe  Fe18      1.0  0.22963  0.65395  0.39662  1.0000
  C   C94       1.0  0.41624  0.64915  0.10429  1.0000
  H   H93       1.0  0.49448  0.54477  0.00565  1.0000
  C   C95       1.0  0.40231  0.65150  0.12704  1.0000
  S   S35       1.0  0.40162  0.65075  0.08151  1.0000
  H   H94       1.0  0.43510  0.54022  0.98032  1.0000
  H   H95       1.0  0.49707  0.38752  0.35695  1.0000
  H   H96       1.0  0.19171  0.64112  0.47953  1.0000
  H   H97       1.0  0.00847  0.63170  0.53065  1.0000
  S   S36       1.0  0.44030  0.53606  0.85012  1.0000
  C   C96       1.0  0.42232  0.59418  0.93631  1.0000
  Fe  Fe19      1.0  0.42845  0.50229  0.85854  1.0000
  S   S37       1.0  0.40480  0.49708  0.83590  1.0000
  H   H98       1.0  0.42100  0.53911  0.71389  1.0000
  Fe  Fe20      1.0  0.04827  0.52541  0.54040  1.0000
  S   S38       1.0  0.05343  0.48778  0.53869  1.0000
  S   S39       1.0  0.46982  0.51892  0.89197  1.0000
  Fe  Fe21      1.0  0.09200  0.53167  0.50111  1.0000
  H   H99       1.0  0.46054  0.57496  0.65443  1.0000
  H   H100      1.0  0.37736  0.46414  0.87586  1.0000
  Fe  Fe22      1.0  0.05952  0.49881  0.49988  1.0000
  Fe  Fe23      1.0  0.09316  0.48827  0.53422  1.0000
  S   S40       1.0  0.12315  0.46336  0.54783  1.0000
  S   S41       1.0  0.05237  0.53626  0.50208  1.0000
  S   S42       1.0  0.08703  0.52474  0.53963  1.0000
  Fe  Fe24      1.0  0.38619  0.47585  0.68138  1.0000
  S   S43       1.0  0.41166  0.48431  0.64717  1.0000
  S   S44       1.0  0.34718  0.47520  0.68232  1.0000
  Fe  Fe25      1.0  0.42638  0.46314  0.70835  1.0000
  S   S45       1.0  0.45486  0.46901  0.67527  1.0000
  S   S46       1.0  0.44260  0.45428  0.74044  1.0000
  Fe  Fe26      1.0  0.42900  0.50088  0.66737  1.0000
  S   S47       1.0  0.44005  0.53557  0.65678  1.0000
  Fe  Fe27      1.0  0.43514  0.45160  0.65813  1.0000
  S   S48       1.0  0.45318  0.42932  0.62950  1.0000
  S   S49       1.0  0.40097  0.49575  0.70091  1.0000
  S   S50       1.0  0.40914  0.44231  0.69186  1.0000
  C   C97       1.0  0.48481  0.46368  0.94162  1.0000
  S   S51       1.0  0.37940  0.36068  0.51610  1.0000
  Fe  Fe28      1.0  0.23451  0.49062  0.57611  1.0000
  S   S52       1.0  0.25010  0.46806  0.54829  1.0000
  S   S53       1.0  0.19435  0.50332  0.58754  1.0000
  Fe  Fe29      1.0  0.28474  0.49797  0.57752  1.0000
  S   S54       1.0  0.30371  0.47670  0.54884  1.0000
  S   S55       1.0  0.30684  0.51594  0.59168  1.0000
  Fe  Fe30      1.0  0.27335  0.49447  0.53155  1.0000
  S   S56       1.0  0.27386  0.50743  0.49355  1.0000
  Fe  Fe31      1.0  0.27838  0.45298  0.56866  1.0000
  S   S57       1.0  0.29052  0.41582  0.58021  1.0000
  S   S58       1.0  0.25646  0.51773  0.55862  1.0000
  S   S59       1.0  0.26080  0.47345  0.59827  1.0000
  H   H101      1.0  0.21390  0.54177  0.50962  1.0000
  N   N8        1.0  0.29111  0.36481  0.54766  1.0000
  S   S60       1.0  0.01900  0.54227  0.56787  1.0000
  H   H102      1.0  0.15792  0.47865  0.49697  1.0000
  H   H103      1.0  0.32674  0.37833  0.59108  1.0000
  C   C98       1.0  0.99769  0.48563  0.49792  1.0000
  C   C99       1.0  0.27345  0.55138  0.50004  1.0000
  C   C100      1.0  0.01207  0.65257  0.49700  1.0000
  C   C101      1.0  0.45279  0.51375  0.71686  1.0000
  H   H104      1.0  0.25576  0.37933  0.54309  1.0000
  H   H105      1.0  0.27596  0.54431  0.51728  1.0000
  C   C102      1.0  0.35704  0.37818  0.53418  1.0000
  C   C103      1.0  0.34311  0.39754  0.52430  1.0000
  C   C104      1.0  0.32342  0.41016  0.53855  1.0000
  C   C105      1.0  0.31724  0.40292  0.56257  1.0000
  C   C106      1.0  0.33151  0.38393  0.57248  1.0000
  C   C107      1.0  0.35166  0.37184  0.55836  1.0000
  H   H106      1.0  0.34733  0.40254  0.50558  1.0000
  H   H107      1.0  0.31246  0.42488  0.53083  1.0000
  C   C108      1.0  0.20665  0.49438  0.50662  1.0000
  C   C109      1.0  0.48705  0.35061  0.57663  1.0000
  C   C110      1.0  0.43951  0.40733  0.62607  1.0000
  C   C111      1.0  0.43973  0.40389  0.60350  1.0000
  C   C112      1.0  0.49077  0.56077  0.85555  1.0000
  C   C113      1.0  0.42361  0.37230  0.64155  1.0000
  C   C114      1.0  0.43113  0.39161  0.64513  1.0000
  H   H108      1.0  0.44625  0.41596  0.58867  1.0000
  H   H109      1.0  0.41755  0.36000  0.65636  1.0000
  H   H110      1.0  0.43118  0.39395  0.66257  1.0000
  C   C115      1.0  0.33675  0.48599  0.65659  1.0000
  C   C116      1.0  0.34607  0.50370  0.64074  1.0000
  C   C117      1.0  0.33683  0.51260  0.62084  1.0000
  C   C118      1.0  0.31879  0.50339  0.61620  1.0000
  C   C119      1.0  0.30997  0.48518  0.63165  1.0000
  C   C120      1.0  0.31860  0.47681  0.65201  1.0000
  H   H111      1.0  0.35991  0.51103  0.64417  1.0000
  H   H112      1.0  0.34372  0.52672  0.60899  1.0000
  H   H113      1.0  0.29614  0.47787  0.62820  1.0000
  H   H114      1.0  0.31134  0.46307  0.66419  1.0000
  C   C121      1.0  0.46945  0.53832  0.65714  1.0000
  H   H115      1.0  0.48210  0.38062  0.53828  1.0000
  H   H116      1.0  0.20228  0.46548  0.49285  1.0000
  C   C122      1.0  0.14260  0.47439  0.55941  1.0000
  C   C123      1.0  0.16637  0.46266  0.55855  1.0000
  C   C124      1.0  0.18243  0.47141  0.56696  1.0000
  C   C125      1.0  0.17474  0.49182  0.57666  1.0000
  C   C126      1.0  0.15087  0.50334  0.57790  1.0000
  C   C127      1.0  0.13491  0.49471  0.56926  1.0000
  H   H117      1.0  0.17239  0.44678  0.55126  1.0000
  H   H118      1.0  0.20054  0.46204  0.56645  1.0000
  H   H119      1.0  0.14460  0.51893  0.58571  1.0000
  H   H120      1.0  0.11645  0.50349  0.57086  1.0000
  H   H121      1.0  0.44132  0.57157  0.71231  1.0000
  C   C128      1.0  0.36262  0.42558  0.57960  1.0000
  H   H122      1.0  0.35411  0.46237  0.57364  1.0000
  H   H123      1.0  0.33760  0.34213  0.50630  1.0000
  N   N9        1.0  0.47677  0.50974  0.71701  1.0000
  C   C129      1.0  0.07462  0.58375  0.49239  1.0000
  S   S61       1.0  0.41633  0.34331  0.61515  1.0000
  C   C130      1.0  0.32557  0.34398  0.52336  1.0000
  C   C131      1.0  0.41612  0.48624  0.80879  1.0000
  C   C132      1.0  0.40090  0.48957  0.79331  1.0000
  C   C133      1.0  0.40898  0.48056  0.77196  1.0000
  C   C134      1.0  0.43219  0.46759  0.76616  1.0000
  C   C135      1.0  0.44751  0.46449  0.78154  1.0000
  C   C136      1.0  0.43964  0.47398  0.80261  1.0000
  H   H124      1.0  0.38264  0.49897  0.79795  1.0000
  H   H125      1.0  0.39693  0.48297  0.76039  1.0000
  H   H126      1.0  0.46547  0.45441  0.77725  1.0000
  H   H127      1.0  0.45159  0.47138  0.81428  1.0000
  Fe  Fe32      1.0  0.45471  0.48705  0.89826  1.0000
  S   S62       1.0  0.09977  0.49540  0.49513  1.0000
  H   H128      1.0  0.22598  0.48856  0.50484  1.0000
  H   H129      1.0  0.27240  0.58590  0.50499  1.0000
  S   S63       1.0  0.41890  0.57063  0.90283  1.0000
  H   H130      1.0  0.26248  0.38658  0.56826  1.0000
  H   H131      1.0  0.45716  0.43330  0.84184  1.0000
  H   H132      1.0  0.42519  0.61303  0.96246  1.0000
  H   H133      1.0  0.28503  0.35342  0.58429  1.0000
  N   N10       1.0  0.49374  0.37154  0.57001  1.0000
  C   C137      1.0  0.48851  0.53286  0.95519  1.0000
  Fe  Fe33      1.0  0.42373  0.33243  0.57934  1.0000
  C   C138      1.0  0.46048  0.63588  0.89873  1.0000
  Fe  Fe34      1.0  0.40662  0.33885  0.53509  1.0000
  H   H134      1.0  0.44391  0.49977  0.71711  1.0000
  H   H135      1.0  0.48430  0.50247  0.65909  1.0000
  H   H136      1.0  0.47675  0.58172  0.88294  1.0000
  H   H137      1.0  0.49569  0.58826  0.94053  1.0000
  Fe  Fe35      1.0  0.46008  0.33005  0.53243  1.0000
  C   C139      1.0  0.42886  0.55313  0.94598  1.0000
  C   C140      1.0  0.43342  0.54237  0.79235  1.0000
  H   H138      1.0  0.27548  0.39963  0.53994  1.0000
  H   H139      1.0  0.40894  0.57339  0.80103  1.0000
  C   C141      1.0  0.48440  0.45546  0.96520  1.0000
  H   H140      1.0  0.48647  0.47751  0.73629  1.0000
  C   C142      1.0  0.48802  0.52742  0.71666  1.0000
  H   H141      1.0  0.45516  0.40663  0.86106  1.0000
  H   H142      1.0  0.30180  0.37311  0.51067  1.0000
  H   H143      1.0  0.19898  0.53396  0.54003  1.0000
  H   H144      1.0  0.46883  0.33796  0.48130  1.0000
  C   C143      1.0  0.44628  0.57627  0.79653  1.0000
  C   C144      1.0  0.42631  0.59634  0.95790  1.0000
  C   C145      1.0  0.43963  0.53600  0.71539  1.0000
  H   H145      1.0  0.42969  0.64479  0.92681  1.0000
  C   C146      1.0  0.47535  0.54990  0.71536  1.0000
  C   C147      1.0  0.30544  0.36159  0.52599  1.0000
  H   H146      1.0  0.02979  0.64330  0.48967  1.0000
  C   C148      1.0  0.16864  0.48883  0.50166  1.0000
  H   H147      1.0  0.16206  0.53721  0.52495  1.0000
  N   N11       1.0  0.43426  0.43587  0.87589  1.0000
  C   C149      1.0  0.43430  0.43578  0.89872  1.0000
  C   C150      1.0  0.41390  0.44539  0.86786  1.0000
  C   C151      1.0  0.41376  0.44592  0.91400  1.0000
  C   C152      1.0  0.39309  0.45577  0.88264  1.0000
  C   C153      1.0  0.39307  0.45603  0.90586  1.0000
  C   C154      1.0  0.45585  0.42492  0.86018  1.0000
  H   H148      1.0  0.45043  0.42833  0.90518  1.0000
  H   H149      1.0  0.41380  0.44560  0.84974  1.0000
  H   H150      1.0  0.41423  0.44647  0.93188  1.0000
  C   C155      1.0  0.00017  0.64617  0.52000  1.0000
  H   H151      1.0  0.41911  0.53322  0.79313  1.0000
  H   H152      1.0  0.48483  0.34143  0.56371  1.0000
  C   C156      1.0  0.43096  0.57688  0.97384  1.0000
  H   H153      1.0  0.47260  0.42630  0.86499  1.0000
  C   C157      1.0  0.47567  0.54329  0.78746  1.0000
  H   H154      1.0  0.35935  0.42339  0.56321  1.0000
  C   C158      1.0  0.05394  0.59735  0.48626  1.0000
  H   H155      1.0  0.47316  0.55791  0.85595  1.0000
  C   C159      1.0  0.45754  0.53144  0.78762  1.0000
  H   H156      1.0  0.37725  0.46450  0.91736  1.0000
  C   C160      1.0  0.42770  0.56494  0.79682  1.0000
  C   C161      1.0  0.43234  0.38452  0.59991  1.0000
  S   S64       1.0  0.42984  0.35724  0.54666  1.0000
  C   C162      1.0  0.42465  0.36843  0.61891  1.0000
  N   N12       1.0  0.19532  0.51400  0.51595  1.0000
  C   C163      1.0  0.36950  0.40656  0.59510  1.0000
  C   C164      1.0  0.43188  0.55532  0.96794  1.0000
  H   H157      1.0  0.36231  0.35695  0.56609  1.0000
  C   C165      1.0  0.47446  0.56010  0.65622  1.0000
  C   C166      1.0  0.31615  0.33286  0.56506  1.0000
  S   S65       1.0  0.46515  0.48158  0.86033  1.0000
  C   C167      1.0  0.37319  0.40968  0.61633  1.0000
  C   C168      1.0  0.35981  0.44742  0.58537  1.0000
  H   H158      1.0  0.37794  0.39480  0.62851  1.0000
  H   H159      1.0  0.43294  0.38194  0.58244  1.0000
  C   C169      1.0  0.33101  0.32964  0.54305  1.0000
  N   N13       1.0  0.37101  0.43115  0.62158  1.0000
  C   C170      1.0  0.36428  0.44989  0.60649  1.0000
  C   C171      1.0  0.17111  0.52166  0.51761  1.0000
  H   H160      1.0  0.00941  0.56958  0.52391  1.0000
  C   C172      1.0  0.27170  0.57497  0.49294  1.0000
  S   S66       1.0  0.41675  0.50512  0.89722  1.0000
  H   H161      1.0  0.37186  0.38947  0.59082  1.0000
  C   C173      1.0  0.37445  0.43412  0.64409  1.0000
  H   H162      1.0  0.36225  0.46690  0.61079  1.0000
  Fe  Fe36      1.0  0.47624  0.51575  0.85400  1.0000
  Fe  Fe37      1.0  0.43287  0.53692  0.88868  1.0000
  H   H163      1.0  0.07350  0.57524  0.51011  1.0000
  H   H164      1.0  0.03695  0.59918  0.49919  1.0000
  H   H165      1.0  0.41783  0.60923  0.92433  1.0000
  H   H166      1.0  0.22849  0.48743  0.66316  1.0000
  H   H167      1.0  0.38222  0.44966  0.64253  1.0000
  H   H168      1.0  0.20450  0.50339  0.63322  1.0000
  H   H169      1.0  0.48901  0.59286  0.77802  1.0000
  H   H170      1.0  0.26350  0.50469  0.66321  1.0000
  C   C174      1.0  0.21945  0.51108  0.63382  1.0000
  C   C175      1.0  0.25248  0.51183  0.65065  1.0000
  C   C176      1.0  0.23293  0.50212  0.65056  1.0000
  C   C177      1.0  0.48883  0.57782  0.79184  1.0000
  H   H171      1.0  0.25876  0.57022  0.60710  1.0000
  H   H172      1.0  0.46022  0.61769  0.90245  1.0000
  C   C178      1.0  0.25830  0.53040  0.63391  1.0000
  H   H173      1.0  0.27407  0.53734  0.63357  1.0000
  C   C179      1.0  0.22582  0.52964  0.61730  1.0000
  N   N14       1.0  0.24489  0.53920  0.61765  1.0000
  H   H174      1.0  0.21557  0.53607  0.60401  1.0000
  H   H175      1.0  0.23641  0.56789  0.59248  1.0000
  C   C180      1.0  0.48768  0.51923  0.65906  1.0000
  H   H176      1.0  0.42977  0.53643  0.94152  1.0000
  H   H177      1.0  0.38710  0.41953  0.65084  1.0000
  C   C181      1.0  0.42388  0.57260  0.93015  1.0000
  H   H178      1.0  0.26656  0.55142  0.58527  1.0000
  C   C182      1.0  0.25190  0.55814  0.59976  1.0000
  H   H179      1.0  0.35685  0.43568  0.65713  1.0000
  H   H180      1.0  0.46210  0.51374  0.78468  1.0000
  S   S67       1.0  0.46054  0.46177  0.92996  1.0000
  C   C183      1.0  0.48238  0.34106  0.60013  1.0000
  C   C184      1.0  0.27260  0.53705  0.48466  1.0000
  C   C185      1.0  0.20927  0.52740  0.52342  1.0000
  C   C186      1.0  0.15747  0.50925  0.51042  1.0000
  H   H181      1.0  0.22642  0.51680  0.52683  1.0000
  C   C187      1.0  0.19344  0.48137  0.49958  1.0000
  H   H182      1.0  0.48524  0.51919  0.94771  1.0000
  C   C188      1.0  0.45106  0.55418  0.71449  1.0000
  H   H183      1.0  0.32057  0.32210  0.58051  1.0000
  C   C189      1.0  0.27011  0.38340  0.54982  1.0000
  H   H184      1.0  0.13819  0.51510  0.51224  1.0000
  N   N15       1.0  0.46988  0.56542  0.79192  1.0000
  H   H185      1.0  0.44171  0.59371  0.80036  1.0000
  C   C190      1.0  0.49245  0.37399  0.60989  1.0000
  C   C191      1.0  0.48501  0.35291  0.61685  1.0000
  C   C192      1.0  0.47810  0.64421  0.88035  1.0000
  H   H186      1.0  0.48057  0.34610  0.63522  1.0000
  H   H187      1.0  0.00425  0.48450  0.51342  1.0000
  C   C193      1.0  0.29611  0.35062  0.56706  1.0000
  H   H188      1.0  0.48466  0.56396  0.71386  1.0000
  H   H189      1.0  0.47594  0.32494  0.60540  1.0000
  H   H190      1.0  0.49372  0.38375  0.62284  1.0000
  H   H191      1.0  0.46889  0.44867  0.97624  1.0000
  C   C194      1.0  0.49023  0.48627  0.71805  1.0000
  N   N16       1.0  0.48926  0.52994  0.97820  1.0000
  H   H192      1.0  0.48461  0.47651  0.70707  1.0000
  H   H193      1.0  0.48564  0.58368  0.80906  1.0000
  H   H194      1.0  0.48910  0.55657  0.92330  1.0000
  C   C195      1.0  0.99793  0.56677  0.56145  1.0000
  H   H195      1.0  0.99944  0.51284  0.54021  1.0000
  C   C196      1.0  0.49277  0.57459  0.87075  1.0000
  C   C197      1.0  0.49081  0.55389  0.94126  1.0000
  H   H196      1.0  0.49142  0.63257  0.86965  1.0000
  H   H197      1.0  0.49433  0.53450  0.78433  1.0000
  C   C198      1.0  0.49674  0.38314  0.58625  1.0000
  C   C199      1.0  0.44337  0.65102  0.91232  1.0000
  S   S68       1.0  0.11713  0.55521  0.48072  1.0000
  C   C200      1.0  0.49637  0.56819  0.97403  1.0000
  C   C201      1.0  0.49454  0.57168  0.95088  1.0000
  C   C202      1.0  0.49718  0.56272  0.65818  1.0000
  S   S69       1.0  0.35425  0.65783  0.25240  1.0000
  H   H198      1.0  0.42171  0.70055  0.06500  1.0000
  C   C203      1.0  0.47334  0.78734  0.45207  1.0000
  S   S70       1.0  0.44452  0.92314  0.37467  1.0000
  N   N17       1.0  0.41740  0.70492  0.10046  1.0000
  Fe  Fe38      1.0  0.39611  0.75451  0.39727  1.0000
  S   S71       1.0  0.43140  0.74023  0.37445  1.0000
  S   S72       1.0  0.37015  0.73187  0.41952  1.0000
  Fe  Fe39      1.0  0.40616  0.80360  0.38487  1.0000
  S   S73       1.0  0.44159  0.79316  0.35992  1.0000
  S   S74       1.0  0.38941  0.83848  0.39648  1.0000
  Fe  Fe40      1.0  0.42229  0.77039  0.34833  1.0000
  S   S75       1.0  0.42429  0.76715  0.31070  1.0000
  Fe  Fe41      1.0  0.44748  0.76388  0.38821  1.0000
  H   H199      1.0  0.32223  0.82517  0.37032  1.0000
  S   S76       1.0  0.38608  0.78369  0.37065  1.0000
  S   S77       1.0  0.41300  0.77527  0.41369  1.0000
  H   H200      1.0  0.30435  0.65585  0.27182  1.0000
  H   H201      1.0  0.30181  0.79248  0.37258  1.0000
  Fe  Fe42      1.0  0.27692  0.67235  0.38969  1.0000
  S   S78       1.0  0.25868  0.66282  0.36504  1.0000
  S   S79       1.0  0.29479  0.70349  0.37557  1.0000
  H   H202      1.0  0.32456  0.76200  0.43549  1.0000
  C   C204      1.0  0.16462  0.68717  0.34521  1.0000
  Fe  Fe43      1.0  0.42834  0.96231  0.44540  1.0000
  S   S80       1.0  0.45219  0.66755  0.02588  1.0000
  C   C205      1.0  0.43451  0.88847  0.46663  1.0000
  S   S81       1.0  0.01716  0.69430  0.36987  1.0000
  S   S82       1.0  0.45640  0.67169  0.27279  1.0000
  S   S83       1.0  0.45181  0.65967  0.16014  1.0000
  H   H203      1.0  0.41173  0.66878  0.31976  1.0000
  H   H204      1.0  0.49658  0.82934  0.43438  1.0000
  C   C206      1.0  0.45583  0.69955  0.07286  1.0000
  S   S84       1.0  0.41666  0.67669  0.22478  1.0000
  H   H205      1.0  0.00766  0.67008  0.33384  1.0000
  H   H206      1.0  0.48131  0.72829  0.26118  1.0000
  H   H207      1.0  0.45195  0.78262  0.42967  1.0000
  H   H208      1.0  0.47212  0.83741  0.47166  1.0000
  C   C207      1.0  0.42864  0.70628  0.11738  1.0000
  H   H209      1.0  0.33067  0.73175  0.35648  1.0000
  C   C208      1.0  0.34871  0.79378  0.43734  1.0000
  C   C209      1.0  0.42970  0.73987  0.30182  1.0000
  C   C210      1.0  0.43937  0.72036  0.31521  1.0000
  C   C211      1.0  0.44662  0.69939  0.30640  1.0000
  C   C212      1.0  0.44365  0.69753  0.28441  1.0000
  C   C213      1.0  0.43290  0.71675  0.27142  1.0000
  C   C214      1.0  0.42624  0.73792  0.28000  1.0000
  H   H210      1.0  0.44231  0.72160  0.33191  1.0000
  H   H211      1.0  0.45504  0.68462  0.31650  1.0000
  H   H212      1.0  0.43077  0.71557  0.25432  1.0000
  H   H213      1.0  0.41882  0.75295  0.26949  1.0000
  C   C215      1.0  0.35086  0.72244  0.40640  1.0000
  C   C216      1.0  0.33584  0.70715  0.41970  1.0000
  C   C217      1.0  0.31912  0.70057  0.41023  1.0000
  C   C218      1.0  0.31696  0.70962  0.38751  1.0000
  C   C219      1.0  0.33218  0.72470  0.37410  1.0000
  C   C220      1.0  0.34925  0.73090  0.38340  1.0000
  H   H214      1.0  0.33699  0.70050  0.43750  1.0000
  H   H215      1.0  0.30747  0.68895  0.42072  1.0000
  H   H216      1.0  0.36075  0.74264  0.37294  1.0000
  C   C221      1.0  0.10813  0.67204  0.33852  1.0000
  C   C222      1.0  0.33448  0.81153  0.40194  1.0000
  Fe  Fe44      1.0  0.44218  0.66237  0.99380  1.0000
  C   C223      1.0  0.42873  0.89988  0.38114  1.0000
  C   C224      1.0  0.43902  0.88062  0.36959  1.0000
  C   C225      1.0  0.42750  0.86153  0.37448  1.0000
  C   C226      1.0  0.40526  0.86164  0.39070  1.0000
  C   C227      1.0  0.39500  0.88088  0.40232  1.0000
  C   C228      1.0  0.40673  0.89983  0.39773  1.0000
  H   H217      1.0  0.45602  0.88048  0.35672  1.0000
  H   H218      1.0  0.43557  0.84695  0.36528  1.0000
  H   H219      1.0  0.37775  0.88121  0.41483  1.0000
  H   H220      1.0  0.39849  0.91456  0.40665  1.0000
  S   S85       1.0  0.40573  0.96931  0.41922  1.0000
  H   H221      1.0  0.31492  0.68717  0.30234  1.0000
  C   C229      1.0  0.39098  0.70753  0.10583  1.0000
  H   H222      1.0  0.30821  0.67458  0.33226  1.0000
  C   C230      1.0  0.46965  0.77884  0.43331  1.0000
  H   H223      1.0  0.47966  0.76289  0.27742  1.0000
  S   S86       1.0  0.46117  0.94342  0.42320  1.0000
  C   C231      1.0  0.32235  0.81137  0.38474  1.0000
  H   H224      1.0  0.49499  0.70120  0.27354  1.0000
  C   C232      1.0  0.49618  0.71965  0.26988  1.0000
  H   H225      1.0  0.19474  0.65491  0.44961  1.0000
  H   H226      1.0  0.38281  0.72574  0.10201  1.0000
  C   C233      1.0  0.31089  0.79309  0.38602  1.0000
  H   H227      1.0  0.30280  0.76095  0.40565  1.0000
  C   C234      1.0  0.45382  0.70397  0.11251  1.0000
  C   C235      1.0  0.44683  0.86859  0.47721  1.0000
  C   C236      1.0  0.45504  0.87689  0.42896  1.0000
  H   H228      1.0  0.47420  0.72169  0.45405  1.0000
  C   C237      1.0  0.43853  0.89262  0.44236  1.0000
  C   C238      1.0  0.39264  0.67260  0.31980  1.0000
  H   H229      1.0  0.48705  0.69800  0.08633  1.0000
  H   H230      1.0  0.34360  0.82568  0.40066  1.0000
  H   H231      1.0  0.12674  0.71226  0.37060  1.0000
  H   H232      1.0  0.00994  0.67555  0.46527  1.0000
  N   N18       1.0  0.34381  0.68196  0.31965  1.0000
  C   C239      1.0  0.09030  0.68658  0.35219  1.0000
  C   C240      1.0  0.48338  0.76137  0.31232  1.0000
  N   N19       1.0  0.49366  0.72908  0.29140  1.0000
  H   H233      1.0  0.47276  0.83016  0.42000  1.0000
  H   H234      1.0  0.35525  0.69124  0.28281  1.0000
  C   C241      1.0  0.31801  0.68736  0.31979  1.0000
  S   S87       1.0  0.18886  0.66492  0.40193  1.0000
  C   C242      1.0  0.43061  0.70190  0.07834  1.0000
  H   H235      1.0  0.14619  0.66048  0.32640  1.0000
  C   C243      1.0  0.31138  0.77543  0.40459  1.0000
  H   H236      1.0  0.13760  0.66819  0.41149  1.0000
  S   S88       1.0  0.24609  0.66676  0.42056  1.0000
  H   H237      1.0  0.17603  0.67017  0.34246  1.0000
  H   H238      1.0  0.48802  0.75441  0.34759  1.0000
  C   C244      1.0  0.32377  0.77609  0.42141  1.0000
  H   H239      1.0  0.39878  0.68269  0.28259  1.0000
  H   H240      1.0  0.41831  0.70820  0.13506  1.0000
  S   S89       1.0  0.45295  0.98529  0.38127  1.0000
  C   C245      1.0  0.46294  0.85302  0.46328  1.0000
  C   C246      1.0  0.48341  0.84078  0.42498  1.0000
  H   H241      1.0  0.49398  0.84950  0.40879  1.0000
  S   S90       1.0  0.48405  0.75271  0.39724  1.0000
  C   C247      1.0  0.48874  0.76531  0.41958  1.0000
  C   C248      1.0  0.09703  0.70112  0.36380  1.0000
  C   C249      1.0  0.37524  0.66981  0.34068  1.0000
  H   H242      1.0  0.33587  0.79945  0.45336  1.0000
  H   H243      1.0  0.31010  0.70447  0.32523  1.0000
  Fe  Fe45      1.0  0.03527  0.65779  0.37543  1.0000
  C   C250      1.0  0.48548  0.75193  0.29215  1.0000
  C   C251      1.0  0.38538  0.68042  0.29890  1.0000
  C   C252      1.0  0.36072  0.68524  0.29916  1.0000
  H   H244      1.0  0.40222  0.65592  0.16206  1.0000
  Fe  Fe46      1.0  0.43936  0.95207  0.39602  1.0000
  H   H245      1.0  0.45820  0.88033  0.41010  1.0000
  C   C253      1.0  0.35075  0.67457  0.34027  1.0000
  H   H246      1.0  0.46269  0.70389  0.12634  1.0000
  H   H247      1.0  0.17065  0.69988  0.33005  1.0000
  N   N20       1.0  0.33554  0.79374  0.41966  1.0000
  H   H248      1.0  0.07129  0.68642  0.35400  1.0000
  H   H249      1.0  0.38529  0.69727  0.09536  1.0000
  N   N21       1.0  0.46704  0.85744  0.43945  1.0000
  C   C254      1.0  0.46747  0.70049  0.09013  1.0000
  H   H250      1.0  0.38370  0.70119  0.12447  1.0000
  H   H251      1.0  0.46210  0.95716  0.46788  1.0000
  C   C255      1.0  0.12162  0.70098  0.36146  1.0000
  C   C256      1.0  0.14579  0.65515  0.40025  1.0000
  H   H252      1.0  0.46631  0.69647  0.05550  1.0000
  Fe  Fe47      1.0  0.44143  0.65794  0.24792  1.0000
  C   C257      1.0  0.13251  0.67231  0.33658  1.0000
  H   H253      1.0  0.42891  0.90795  0.43393  1.0000
  Fe  Fe48      1.0  0.47180  0.97773  0.41054  1.0000
  H   H254      1.0  0.45837  0.79759  0.46273  1.0000
  H   H255      1.0  0.16794  0.69164  0.36112  1.0000
  H   H256      1.0  0.38061  0.66409  0.35711  1.0000
  N   N22       1.0  0.13898  0.68656  0.34810  1.0000
  H   H257      1.0  0.36222  0.80533  0.43091  1.0000
  H   H258      1.0  0.33731  0.67232  0.35656  1.0000
  H   H259      1.0  0.10319  0.66014  0.32994  1.0000
  H   H260      1.0  0.08323  0.71231  0.37464  1.0000
  H   H261      1.0  0.35889  0.77638  0.44176  1.0000
  C   C258      1.0  0.49615  0.78241  0.45727  1.0000
  H   H262      1.0  0.47607  0.77936  0.31306  1.0000
  C   C259      1.0  0.48983  0.74733  0.33174  1.0000
  H   H263      1.0  0.00805  0.66792  0.41563  1.0000
  C   C260      1.0  0.49313  0.71545  0.45407  1.0000
  H   H264      1.0  0.42178  0.90061  0.47718  1.0000
  C   C261      1.0  0.44425  0.67433  0.90738  1.0000
  C   C262      1.0  0.47918  0.92022  0.51296  1.0000
  C   C263      1.0  0.43689  0.92171  0.51459  1.0000
  H   H265      1.0  0.49554  0.74335  0.49486  1.0000
  C   C264      1.0  0.46064  0.94479  0.48344  1.0000
  H   H266      1.0  0.46876  0.72675  0.94336  1.0000
  H   H267      1.0  0.41986  0.91618  0.52304  1.0000
  C   C265      1.0  0.46297  0.70668  0.88482  1.0000
  H   H268      1.0  0.45415  0.71479  0.87028  1.0000
  C   C266      1.0  0.45729  0.91278  0.52376  1.0000
  H   H269      1.0  0.48257  0.71795  0.50680  1.0000
  C   C267      1.0  0.48321  0.67049  0.93704  1.0000
  H   H270      1.0  0.45376  0.71536  0.90044  1.0000
  H   H271      1.0  0.45604  0.90041  0.53939  1.0000
  H   H272      1.0  0.48204  0.70941  0.87999  1.0000
  S   S91       1.0  0.44120  0.69121  0.96433  1.0000
  C   C268      1.0  0.43865  0.93765  0.49438  1.0000
  N   N23       1.0  0.46205  0.68225  0.88973  1.0000
  C   C269      1.0  0.46990  0.69075  0.94525  1.0000
  H   H273      1.0  0.43113  0.68590  0.91833  1.0000
  C   C270      1.0  0.48085  0.93620  0.49284  1.0000
  H   H274      1.0  0.46944  0.74013  0.48668  1.0000
  C   C271      1.0  0.47866  0.66758  0.87609  1.0000
  C   C272      1.0  0.47905  0.71100  0.93720  1.0000
  H   H275      1.0  0.41284  0.98441  0.51030  1.0000
  H   H276      1.0  0.47585  0.65499  0.94231  1.0000
  H   H277      1.0  0.44378  0.86520  0.49609  1.0000
  C   C273      1.0  0.48666  0.73056  0.49096  1.0000
  C   C274      1.0  0.00098  0.67083  0.48334  1.0000
  H   H278      1.0  0.49268  0.67388  0.86201  1.0000
  S   S92       1.0  0.41367  0.94829  0.48228  1.0000
  Fe  Fe49      1.0  0.60469  0.07510  0.38484  1.0000
  S   S93       1.0  0.57821  0.09756  0.36531  1.0000
  S   S94       1.0  0.62572  0.04221  0.37226  1.0000
  Fe  Fe50      1.0  0.58846  0.10258  0.42501  1.0000
  S   S95       1.0  0.55930  0.12620  0.40991  1.0000
  H   H279      1.0  0.54747  0.24755  0.42184  1.0000
  Fe  Fe51      1.0  0.55201  0.09499  0.40007  1.0000
  H   H280      1.0  0.62081  0.00085  0.35924  1.0000
  Fe  Fe52      1.0  0.58805  0.12687  0.37673  1.0000
  S   S96       1.0  0.59239  0.16068  0.35390  1.0000
  S   S97       1.0  0.57791  0.07142  0.41892  1.0000
  S   S98       1.0  0.61778  0.10460  0.39233  1.0000
  C   C275      1.0  0.53254  0.01904  0.40506  1.0000
  H   H281      1.0  0.63532  0.12694  0.42334  1.0000
  S   S99       1.0  0.59093  0.29893  0.41696  1.0000
  N   N24       1.0  0.52414  0.02625  0.34884  1.0000
  S   S100      1.0  0.63511  0.29636  0.36997  1.0000
  Fe  Fe53      1.0  0.60518  0.27655  0.38857  1.0000
  S   S101      1.0  0.60596  0.23910  0.40337  1.0000
  C   C276      1.0  0.56581  0.01246  0.34985  1.0000
  H   H282      1.0  0.55113  0.04626  0.40395  1.0000
  S   S102      1.0  0.57950  0.29602  0.36684  1.0000
  C   C277      1.0  0.52733  0.04821  0.34729  1.0000
  C   C278      1.0  0.59379  0.18355  0.36767  1.0000
  C   C279      1.0  0.58925  0.18148  0.39196  1.0000
  C   C280      1.0  0.59177  0.19922  0.40270  1.0000
  C   C281      1.0  0.59907  0.21913  0.38924  1.0000
  C   C282      1.0  0.60278  0.22160  0.36495  1.0000
  C   C283      1.0  0.60012  0.20383  0.35420  1.0000
  H   H283      1.0  0.58421  0.16601  0.40243  1.0000
  H   H284      1.0  0.58868  0.19721  0.42151  1.0000
  H   H285      1.0  0.60851  0.23684  0.35438  1.0000
  H   H286      1.0  0.60359  0.20559  0.33537  1.0000
  H   H287      1.0  0.54254  0.27757  0.42319  1.0000
  N   N25       1.0  0.64532  0.15828  0.40441  1.0000
  C   C284      1.0  0.63701  0.14420  0.42424  1.0000
  C   C285      1.0  0.54983  0.05279  0.34732  1.0000
  H   H288      1.0  0.62581  0.18056  0.46419  1.0000
  S   S103      1.0  0.51497  0.08790  0.40280  1.0000
  C   C286      1.0  0.51356  0.05899  0.40400  1.0000
  H   H289      1.0  0.52559  0.28983  0.46410  1.0000
  H   H290      1.0  0.54212  0.18126  0.37779  1.0000
  H   H291      1.0  0.64032  0.20618  0.42791  1.0000
  H   H292      1.0  0.58653  0.03803  0.34943  1.0000
  C   C287      1.0  0.63017  0.15189  0.44604  1.0000
  H   H293      1.0  0.66321  0.16063  0.36809  1.0000
  C   C288      1.0  0.63987  0.18853  0.42716  1.0000
  C   C289      1.0  0.53402  0.04193  0.40444  1.0000
  H   H294      1.0  0.63493  0.15063  0.37584  1.0000
  C   C290      1.0  0.61359  0.00015  0.37789  1.0000
  C   C291      1.0  0.61457  0.01799  0.38917  1.0000
  C   C292      1.0  0.60613  0.01642  0.41351  1.0000
  C   C293      1.0  0.50935  0.14299  0.37346  1.0000
  C   C294      1.0  0.65164  0.15005  0.38169  1.0000
  C   C295      1.0  0.64659  0.18027  0.40563  1.0000
  H   H295      1.0  0.50811  0.18707  0.41264  1.0000
  H   H296      1.0  0.60831  0.02929  0.42261  1.0000
  H   H297      1.0  0.66168  0.13219  0.38279  1.0000
  C   C296      1.0  0.54307  0.00848  0.34989  1.0000
  S   S104      1.0  0.59261  0.10835  0.45943  1.0000
  C   C297      1.0  0.63156  0.17422  0.44746  1.0000
  H   H298      1.0  0.65205  0.19187  0.38988  1.0000
  C   C298      1.0  0.59550  0.99775  0.42625  1.0000
  H   H299      1.0  0.56177  0.25778  0.44000  1.0000
  C   C299      1.0  0.52810  0.15551  0.36782  1.0000
  H   H300      1.0  0.54846  0.00595  0.40530  1.0000
  H   H301      1.0  0.58913  0.99657  0.44497  1.0000
  C   C300      1.0  0.54407  0.02582  0.46896  1.0000
  C   C301      1.0  0.54304  0.16450  0.45405  1.0000
  H   H302      1.0  0.56398  0.07207  0.47557  1.0000
  H   H303      1.0  0.55207  0.07012  0.34695  1.0000
  H   H304      1.0  0.58165  0.15574  0.44271  1.0000
  H   H305      1.0  0.62327  0.14068  0.46163  1.0000
  C   C302      1.0  0.51063  0.01302  0.40528  1.0000
  C   C303      1.0  0.54494  0.26039  0.43370  1.0000
  C   C304      1.0  0.56554  0.15051  0.45419  1.0000
  C   C305      1.0  0.56915  0.03476  0.34874  1.0000
  C   C306      1.0  0.55212  0.06211  0.47244  1.0000
  N   N26       1.0  0.52410  0.25858  0.45359  1.0000
  C   C307      1.0  0.53009  0.07267  0.46697  1.0000
  H   H306      1.0  0.54967  0.00753  0.47004  1.0000
  H   H307      1.0  0.54195  0.18063  0.44271  1.0000
  C   C308      1.0  0.52751  0.17170  0.38178  1.0000
  H   H308      1.0  0.57636  0.03018  0.47746  1.0000
  C   C309      1.0  0.56692  0.12886  0.46735  1.0000
  C   C310      1.0  0.50054  0.02171  0.34856  1.0000
  H   H309      1.0  0.51227  0.06228  0.34677  1.0000
  C   C311      1.0  0.55932  0.03859  0.47316  1.0000
  H   H310      1.0  0.54328  0.15243  0.35300  1.0000
  C   C312      1.0  0.51641  0.27538  0.46766  1.0000
  H   H311      1.0  0.52458  0.09104  0.46573  1.0000
  C   C313      1.0  0.52195  0.15655  0.46676  1.0000
  Fe  Fe54      1.0  0.60768  0.31802  0.35074  1.0000
  H   H312      1.0  0.58056  0.99827  0.35127  1.0000
  H   H313      1.0  0.56156  0.31535  0.31948  1.0000
  N   N27       1.0  0.52221  0.03615  0.46426  1.0000
  H   H314      1.0  0.68657  0.31869  0.39356  1.0000
  C   C314      1.0  0.51286  0.24006  0.45841  1.0000
  Fe  Fe55      1.0  0.56714  0.31952  0.39405  1.0000
  H   H315      1.0  0.51917  0.22645  0.44760  1.0000
  C   C315      1.0  0.51517  0.05931  0.46309  1.0000
  C   C316      1.0  0.50843  0.17499  0.40128  1.0000
  H   H316      1.0  0.51575  0.00722  0.45307  1.0000
  H   H317      1.0  0.51020  0.13007  0.36285  1.0000
  H   H318      1.0  0.54045  0.99103  0.35158  1.0000
  C   C317      1.0  0.50563  0.02210  0.46213  1.0000
  H   H319      1.0  0.49970  0.02118  0.33040  1.0000
  H   H320      1.0  0.49797  0.06758  0.45912  1.0000
  H   H321      1.0  0.49734  0.00514  0.35930  1.0000
  Fe  Fe56      1.0  0.61842  0.32046  0.39658  1.0000
  C   C318      1.0  0.51857  0.02467  0.52595  1.0000
  S   S105      1.0  0.54651  0.00648  0.52677  1.0000
  C   C319      1.0  0.51678  0.04831  0.52468  1.0000
  H   H322      1.0  0.53247  0.05510  0.52462  1.0000
  H   H323      1.0  0.50702  0.12965  0.49138  1.0000
  H   H324      1.0  0.54694  0.10537  0.49237  1.0000
  C   C320      1.0  0.49819  0.01593  0.52629  1.0000
  C   C321      1.0  0.54594  0.12195  0.48191  1.0000
  H   H325      1.0  0.49933  0.99771  0.52770  1.0000
  C   C322      1.0  0.52335  0.13568  0.48135  1.0000
  Fe  Fe57      1.0  0.58238  0.50561  0.00913  1.0000
  S   S106      1.0  0.58854  0.46747  0.01226  1.0000
  C   C323      1.0  0.53623  0.34064  0.33909  1.0000
  Fe  Fe58      1.0  0.53019  0.50771  0.03516  1.0000
  S   S107      1.0  0.53174  0.47003  0.03965  1.0000
  Fe  Fe59      1.0  0.56695  0.46849  0.04945  1.0000
  S   S108      1.0  0.57740  0.44560  0.08133  1.0000
  Fe  Fe60      1.0  0.55289  0.47310  0.00216  1.0000
  H   H326      1.0  0.50906  0.39129  0.31594  1.0000
  S   S109      1.0  0.56387  0.50617  0.04677  1.0000
  S   S110      1.0  0.54828  0.51121  0.99694  1.0000
  Fe  Fe61      1.0  0.88936  0.52577  0.42229  1.0000
  S   S111      1.0  0.88236  0.49484  0.44793  1.0000
  S   S112      1.0  0.63742  0.33747  0.41515  1.0000
  Fe  Fe62      1.0  0.89520  0.47687  0.41619  1.0000
  S   S113      1.0  0.87243  0.45183  0.41373  1.0000
  S   S114      1.0  0.90012  0.50837  0.39045  1.0000
  Fe  Fe63      1.0  0.70643  0.46739  0.35683  1.0000
  S   S115      1.0  0.69292  0.44288  0.38800  1.0000
  S   S116      1.0  0.67957  0.48819  0.33640  1.0000
  Fe  Fe64      1.0  0.75765  0.45816  0.36572  1.0000
  S   S117      1.0  0.74815  0.43192  0.39669  1.0000
  S   S118      1.0  0.79219  0.47315  0.35433  1.0000
  Fe  Fe65      1.0  0.72799  0.42006  0.37521  1.0000
  S   S119      1.0  0.72990  0.38282  0.37334  1.0000
  Fe  Fe66      1.0  0.71395  0.45711  0.40644  1.0000
  S   S120      1.0  0.70142  0.46326  0.44399  1.0000
  S   S121      1.0  0.74072  0.44396  0.34288  1.0000
  S   S122      1.0  0.72431  0.48397  0.37654  1.0000
  H   H327      1.0  0.54398  0.58891  0.00727  1.0000
  S   S123      1.0  0.70075  0.56628  0.44976  1.0000
  H   H328      1.0  0.84335  0.54468  0.47452  1.0000
  H   H329      1.0  0.85763  0.59342  0.45310  1.0000
  S   S124      1.0  0.59301  0.34318  0.37625  1.0000
  Fe  Fe67      1.0  0.57488  0.44897  0.25080  1.0000
  S   S125      1.0  0.60978  0.44195  0.22397  1.0000
  S   S126      1.0  0.55508  0.42192  0.27388  1.0000
  Fe  Fe68      1.0  0.57455  0.49976  0.24443  1.0000
  S   S127      1.0  0.61007  0.49643  0.21806  1.0000
  S   S128      1.0  0.55707  0.53515  0.25327  1.0000
  Fe  Fe69      1.0  0.59435  0.47377  0.20254  1.0000
  S   S129      1.0  0.59635  0.48580  0.16379  1.0000
  Fe  Fe70      1.0  0.62206  0.46530  0.24184  1.0000
  S   S130      1.0  0.65871  0.45402  0.25096  1.0000
  S   S131      1.0  0.55821  0.47871  0.22800  1.0000
  S   S132      1.0  0.58788  0.47061  0.26964  1.0000
  H   H330      1.0  0.70395  0.51655  0.29316  1.0000
  H   H331      1.0  0.55819  0.33791  0.28102  1.0000
  C   C324      1.0  0.52925  0.33626  0.47202  1.0000
  C   C325      1.0  0.87569  0.59075  0.44211  1.0000
  C   C326      1.0  0.76125  0.65095  0.46747  1.0000
  H   H332      1.0  0.70882  0.41365  0.44006  1.0000
  S   S133      1.0  0.49823  0.53102  0.05280  1.0000
  C   C327      1.0  0.54930  0.33163  0.31862  1.0000
  H   H333      1.0  0.55346  0.62566  0.98363  1.0000
  H   H334      1.0  0.50402  0.49645  0.99136  1.0000
  H   H335      1.0  0.51947  0.51238  0.24949  1.0000
  C   C328      1.0  0.60078  0.35667  0.30180  1.0000
  C   C329      1.0  0.60537  0.36443  0.27777  1.0000
  C   C330      1.0  0.59233  0.38518  0.26914  1.0000
  C   C331      1.0  0.57442  0.39811  0.28451  1.0000
  C   C332      1.0  0.57033  0.39072  0.30856  1.0000
  C   C333      1.0  0.58352  0.37010  0.31718  1.0000
  H   H336      1.0  0.61883  0.35422  0.26576  1.0000
  H   H337      1.0  0.59549  0.39075  0.25052  1.0000
  H   H338      1.0  0.55656  0.40073  0.32051  1.0000
  H   H339      1.0  0.57978  0.36439  0.33565  1.0000
  C   C334      1.0  0.67358  0.47776  0.31330  1.0000
  C   C335      1.0  0.68930  0.45970  0.30266  1.0000
  C   C336      1.0  0.68473  0.45279  0.28335  1.0000
  C   C337      1.0  0.66413  0.46348  0.27491  1.0000
  C   C338      1.0  0.64820  0.48123  0.28584  1.0000
  C   C339      1.0  0.65308  0.48850  0.30478  1.0000
  H   H340      1.0  0.70517  0.45131  0.30905  1.0000
  H   H341      1.0  0.69707  0.43896  0.27502  1.0000
  H   H342      1.0  0.63231  0.48963  0.27947  1.0000
  H   H343      1.0  0.64084  0.50251  0.31288  1.0000
  C   C340      1.0  0.70331  0.37096  0.38165  1.0000
  C   C341      1.0  0.68038  0.38440  0.38775  1.0000
  C   C342      1.0  0.65975  0.37416  0.39608  1.0000
  C   C343      1.0  0.66189  0.35042  0.39842  1.0000
  C   C344      1.0  0.68468  0.33707  0.39141  1.0000
  C   C345      1.0  0.70530  0.34732  0.38299  1.0000
  H   H344      1.0  0.67849  0.40259  0.38667  1.0000
  H   H345      1.0  0.64221  0.38457  0.40175  1.0000
  Fe  Fe71      1.0  0.93759  0.50247  0.39666  1.0000
  H   H346      1.0  0.72294  0.33678  0.37822  1.0000
  C   C346      1.0  0.69846  0.49215  0.44690  1.0000
  H   H347      1.0  0.99037  0.57527  0.38723  1.0000
  C   C347      1.0  0.54739  0.34428  0.29701  1.0000
  C   C348      1.0  0.69795  0.53797  0.44997  1.0000
  C   C349      1.0  0.69458  0.53194  0.42981  1.0000
  C   C350      1.0  0.69465  0.50915  0.42835  1.0000
  H   H348      1.0  0.63354  0.40963  0.45627  1.0000
  H   H349      1.0  0.66607  0.43215  0.45090  1.0000
  H   H350      1.0  0.69210  0.54494  0.41517  1.0000
  H   H351      1.0  0.69147  0.50481  0.41293  1.0000
  C   C351      1.0  0.84919  0.45917  0.39822  1.0000
  C   C352      1.0  0.84860  0.47770  0.38039  1.0000
  C   C353      1.0  0.83093  0.48190  0.36722  1.0000
  C   C354      1.0  0.81338  0.46795  0.37204  1.0000
  C   C355      1.0  0.81355  0.44987  0.39032  1.0000
  C   C356      1.0  0.83153  0.44536  0.40314  1.0000
  H   H352      1.0  0.86207  0.48847  0.37637  1.0000
  H   H353      1.0  0.83093  0.49595  0.35314  1.0000
  H   H354      1.0  0.80029  0.43889  0.39415  1.0000
  H   H355      1.0  0.83189  0.43093  0.41681  1.0000
  H   H356      1.0  0.96420  0.49241  0.32415  1.0000
  C   C357      1.0  0.91814  0.59302  0.43464  1.0000
  C   C358      1.0  0.92317  0.58110  0.41568  1.0000
  C   C359      1.0  0.90459  0.57359  0.41021  1.0000
  C   C360      1.0  0.88122  0.57714  0.42435  1.0000
  H   H357      1.0  0.93561  0.50790  0.33799  1.0000
  H   H358      1.0  0.94157  0.57656  0.40597  1.0000
  H   H359      1.0  0.90885  0.56320  0.39632  1.0000
  H   H360      1.0  0.57694  0.56632  0.19670  1.0000
  C   C361      1.0  0.69482  0.40366  0.44239  1.0000
  H   H361      1.0  0.93846  0.49511  0.31213  1.0000
  C   C362      1.0  0.57818  0.45731  0.10611  1.0000
  C   C363      1.0  0.58179  0.44276  0.12660  1.0000
  C   C364      1.0  0.58585  0.45133  0.14529  1.0000
  C   C365      1.0  0.58656  0.47452  0.14347  1.0000
  C   C366      1.0  0.58191  0.48914  0.12346  1.0000
  C   C367      1.0  0.57760  0.48063  0.10501  1.0000
  H   H362      1.0  0.58220  0.42467  0.12773  1.0000
  H   H363      1.0  0.58950  0.43986  0.16060  1.0000
  H   H364      1.0  0.58241  0.50710  0.12186  1.0000
  H   H365      1.0  0.57492  0.49208  0.08954  1.0000
  H   H366      1.0  0.95900  0.42962  0.38273  1.0000
  C   C368      1.0  0.70098  0.49822  0.46746  1.0000
  S   S134      1.0  0.52707  0.33058  0.40643  1.0000
  H   H367      1.0  0.65961  0.43511  0.09357  1.0000
  H   H368      1.0  0.77285  0.48952  0.41293  1.0000
  C   C369      1.0  0.51829  0.60114  0.03742  1.0000
  N   N28       1.0  0.93795  0.47205  0.34379  1.0000
  C   C370      1.0  0.94455  0.64648  0.39601  1.0000
  C   C371      1.0  0.56503  0.53827  0.18854  1.0000
  C   C372      1.0  0.50807  0.55701  0.04879  1.0000
  S   S135      1.0  0.93412  0.46874  0.41941  1.0000
  N   N29       1.0  0.52182  0.36172  0.33805  1.0000
  C   C373      1.0  0.98085  0.48697  0.45791  1.0000
  H   H369      1.0  0.53610  0.59083  0.20194  1.0000
  Fe  Fe72      1.0  0.92507  0.62280  0.47011  1.0000
  H   H370      1.0  0.68765  0.35081  0.43969  1.0000
  H   H371      1.0  0.76852  0.55901  0.46196  1.0000
  C   C374      1.0  0.94698  0.43963  0.37202  1.0000
  H   H372      1.0  0.81917  0.62596  0.44580  1.0000
  H   H373      1.0  0.83423  0.52104  0.42468  1.0000
  S   S136      1.0  0.51541  0.62955  0.02486  1.0000
  C   C375      1.0  0.92462  0.43381  0.37393  1.0000
  C   C376      1.0  0.65240  0.40157  0.45176  1.0000
  C   C377      1.0  0.95486  0.62892  0.38241  1.0000
  S   S137      1.0  0.97009  0.50712  0.36705  1.0000
  S   S138      1.0  0.86239  0.55828  0.42503  1.0000
  H   H374      1.0  0.89144  0.44299  0.36233  1.0000
  S   S139      1.0  0.61441  0.52301  0.99352  1.0000
  S   S140      1.0  0.61699  0.33028  0.31202  1.0000
  C   C378      1.0  0.94432  0.49286  0.32871  1.0000
  H   H375      1.0  0.71879  0.54890  0.31710  1.0000
  H   H376      1.0  0.81319  0.55268  0.44807  1.0000
  H   H377      1.0  0.95024  0.61217  0.38836  1.0000
  C   C379      1.0  0.52647  0.54491  0.25255  1.0000
  C   C380      1.0  0.91592  0.46653  0.34569  1.0000
  N   N30       1.0  0.73022  0.51393  0.31289  1.0000
  C   C381      1.0  0.75251  0.50342  0.31646  1.0000
  C   C382      1.0  0.72172  0.50836  0.29587  1.0000
  C   C383      1.0  0.76654  0.48628  0.30337  1.0000
  C   C384      1.0  0.73514  0.49114  0.28262  1.0000
  C   C385      1.0  0.75766  0.47999  0.28649  1.0000
  S   S141      1.0  0.92724  0.52262  0.42634  1.0000
  H   H378      1.0  0.75943  0.50789  0.32982  1.0000
  C   C386      1.0  0.98109  0.54525  0.37932  1.0000
  H   H379      1.0  0.78391  0.47758  0.30677  1.0000
  H   H380      1.0  0.72780  0.48617  0.26984  1.0000
  H   H381      1.0  0.76808  0.46632  0.27664  1.0000
  C   C387      1.0  0.51653  0.56804  0.25376  1.0000
  H   H382      1.0  0.96816  0.54252  0.39571  1.0000
  H   H383      1.0  0.90333  0.47725  0.33597  1.0000
  N   N31       1.0  0.63551  0.46439  0.08285  1.0000
  C   C388      1.0  0.63581  0.48454  0.08981  1.0000
  C   C389      1.0  0.63181  0.46413  0.06131  1.0000
  C   C390      1.0  0.63167  0.50522  0.07527  1.0000
  C   C391      1.0  0.62795  0.48444  0.04623  1.0000
  C   C392      1.0  0.62772  0.50511  0.05333  1.0000
  C   C393      1.0  0.64015  0.44283  0.09811  1.0000
  H   H384      1.0  0.63845  0.48478  0.10702  1.0000
  H   H385      1.0  0.63120  0.44820  0.05592  1.0000
  H   H386      1.0  0.63125  0.52121  0.08109  1.0000
  H   H387      1.0  0.62486  0.48423  0.02924  1.0000
  H   H388      1.0  0.62429  0.52097  0.04183  1.0000
  H   H389      1.0  0.62919  0.43063  0.09635  1.0000
  H   H390      1.0  0.63487  0.44545  0.11680  1.0000
  N   N32       1.0  0.64141  0.40737  0.30810  1.0000
  C   C394      1.0  0.64727  0.38449  0.30675  1.0000
  C   C395      1.0  0.65188  0.41682  0.32102  1.0000
  C   C396      1.0  0.66403  0.37037  0.31848  1.0000
  C   C397      1.0  0.66920  0.40331  0.33250  1.0000
  C   C398      1.0  0.67519  0.37992  0.33128  1.0000
  C   C399      1.0  0.62305  0.42151  0.29635  1.0000
  H   H391      1.0  0.63902  0.37702  0.29652  1.0000
  H   H392      1.0  0.64708  0.43494  0.32231  1.0000
  H   H393      1.0  0.66825  0.35216  0.31762  1.0000
  H   H394      1.0  0.67785  0.41094  0.34231  1.0000
  H   H395      1.0  0.68842  0.36918  0.34026  1.0000
  H   H396      1.0  0.62325  0.43997  0.29507  1.0000
  H   H397      1.0  0.62652  0.41771  0.27818  1.0000
  H   H398      1.0  0.60479  0.41832  0.30608  1.0000
  N   N33       1.0  0.77626  0.51449  0.43245  1.0000
  C   C400      1.0  0.80096  0.51039  0.42528  1.0000
  C   C401      1.0  0.76472  0.53156  0.44566  1.0000
  C   C402      1.0  0.81467  0.52405  0.43073  1.0000
  C   C403      1.0  0.54511  0.53005  0.18669  1.0000
  C   C404      1.0  0.80293  0.54175  0.44387  1.0000
  C   C405      1.0  0.76194  0.50031  0.42651  1.0000
  H   H399      1.0  0.58277  0.52751  0.18603  1.0000
  H   H400      1.0  0.75428  0.48898  0.44231  1.0000
  H   H401      1.0  0.53810  0.33096  0.35585  1.0000
  C   C406      1.0  0.53238  0.36563  0.29611  1.0000
  H   H402      1.0  0.74672  0.51124  0.41953  1.0000
  H   H403      1.0  0.77689  0.62070  0.45094  1.0000
  H   H404      1.0  0.97059  0.46363  0.35583  1.0000
  H   H405      1.0  0.93186  0.64335  0.41265  1.0000
  Fe  Fe73      1.0  0.92154  0.48981  0.44893  1.0000
  C   C407      1.0  0.50958  0.37114  0.35985  1.0000
  C   C408      1.0  0.67060  0.41421  0.44865  1.0000
  C   C409      1.0  0.72625  0.37044  0.43260  1.0000
  H   H406      1.0  0.53156  0.37606  0.27941  1.0000
  H   H407      1.0  0.54780  0.51284  0.18258  1.0000
  H   H408      1.0  0.73317  0.36363  0.44854  1.0000
  H   H409      1.0  0.74524  0.53467  0.45163  1.0000
  C   C410      1.0  0.65862  0.37854  0.44887  1.0000
  C   C411      1.0  0.70070  0.52114  0.46902  1.0000
  H   H410      1.0  0.69611  0.53121  0.33041  1.0000
  H   H411      1.0  0.52744  0.57937  0.25608  1.0000
  H   H412      1.0  0.53576  0.54986  0.01788  1.0000
  H   H413      1.0  0.73739  0.38284  0.42131  1.0000
  C   C412      1.0  0.51973  0.37421  0.31693  1.0000
  H   H414      1.0  0.91898  0.41935  0.38626  1.0000
  N   N34       1.0  0.70075  0.38123  0.43900  1.0000
  C   C413      1.0  0.68304  0.36856  0.44253  1.0000
  C   C414      1.0  0.80413  0.63836  0.45359  1.0000
  H   H415      1.0  0.72868  0.35637  0.42219  1.0000
  H   H416      1.0  0.97462  0.48721  0.44239  1.0000
  C   C415      1.0  0.53891  0.57389  0.19717  1.0000
  C   C416      1.0  0.53601  0.33491  0.44797  1.0000
  H   H417      1.0  0.96411  0.55195  0.47877  1.0000
  C   C417      1.0  0.50174  0.59527  0.05818  1.0000
  C   C418      1.0  0.51862  0.33416  0.43607  1.0000
  H   H418      1.0  0.88793  0.54367  0.46317  1.0000
  C   C419      1.0  0.51217  0.53030  0.24989  1.0000
  H   H419      1.0  0.72023  0.52974  0.34395  1.0000
  S   S142      1.0  0.94190  0.59923  0.44355  1.0000
  H   H420      1.0  0.64466  0.36857  0.45077  1.0000
  H   H421      1.0  0.52321  0.37411  0.36837  1.0000
  C   C420      1.0  0.50190  0.53411  0.18890  1.0000
  H   H422      1.0  0.89020  0.60816  0.46179  1.0000
  H   H423      1.0  0.50281  0.51623  0.19780  1.0000
  C   C421      1.0  0.89423  0.59877  0.44722  1.0000
  H   H424      1.0  0.81019  0.49660  0.41520  1.0000
  C   C422      1.0  0.53141  0.58442  0.02351  1.0000
  C   C423      1.0  0.95337  0.45896  0.35681  1.0000
  C   C424      1.0  0.52642  0.56230  0.02934  1.0000
  C   C425      1.0  0.90907  0.44718  0.36053  1.0000
  H   H425      1.0  0.98415  0.56001  0.42953  1.0000
  C   C426      1.0  0.77782  0.54543  0.45156  1.0000
  H   H426      1.0  0.97988  0.61901  0.35113  1.0000
  C   C427      1.0  0.97173  0.63292  0.36137  1.0000
  C   C428      1.0  0.71571  0.53191  0.32670  1.0000
  C   C429      1.0  0.56181  0.56018  0.19418  1.0000
  H   H427      1.0  0.55467  0.33454  0.43869  1.0000
  H   H428      1.0  0.50196  0.53452  0.17029  1.0000
  C   C430      1.0  0.78040  0.63535  0.45660  1.0000
  N   N35       1.0  0.52256  0.54331  0.19047  1.0000
  H   H429      1.0  0.50151  0.57576  0.19806  1.0000
  H   H430      1.0  0.50412  0.44822  0.99240  1.0000
  C   C431      1.0  0.98528  0.53041  0.36269  1.0000
  C   C432      1.0  0.51937  0.56518  0.19509  1.0000
  H   H431      1.0  0.49891  0.35889  0.37217  1.0000
  H   H432      1.0  0.49912  0.58190  0.98178  1.0000
  C   C433      1.0  0.99392  0.56355  0.37468  1.0000
  S   S143      1.0  0.73052  0.60241  0.47536  1.0000
  H   H433      1.0  0.74269  0.64872  0.47014  1.0000
  N   N36       1.0  0.97850  0.65380  0.35425  1.0000
  Fe  Fe74      1.0  0.59694  0.61389  0.88485  1.0000
  S   S144      1.0  0.55992  0.62472  0.90631  1.0000
  S   S145      1.0  0.62694  0.59539  0.90201  1.0000
  Fe  Fe75      1.0  0.58238  0.63206  0.83847  1.0000
  C   C434      1.0  0.51512  0.54354  0.66085  1.0000
  C   C435      1.0  0.61605  0.54371  0.96850  1.0000
  C   C436      1.0  0.52520  0.47148  0.93647  1.0000
  C   C437      1.0  0.57047  0.51246  0.93118  1.0000
  Fe  Fe76      1.0  0.54822  0.61128  0.87981  1.0000
  H   H434      1.0  0.93585  0.56766  0.49232  1.0000
  H   H435      1.0  0.51538  0.65367  0.97467  1.0000
  S   S146      1.0  0.58537  0.59760  0.86012  1.0000
  H   H436      1.0  0.58140  0.58292  0.74089  1.0000
  H   H437      1.0  0.61692  0.63293  0.60483  1.0000
  H   H438      1.0  0.56488  0.55903  0.89041  1.0000
  Fe  Fe77      1.0  0.92304  0.63371  0.51722  1.0000
  S   S147      1.0  0.83695  0.65184  0.50786  1.0000
  S   S148      1.0  0.93479  0.62430  0.55092  1.0000
  H   H439      1.0  0.96816  0.65334  0.54702  1.0000
  H   H440      1.0  0.65451  0.54042  0.96370  1.0000
  C   C438      1.0  0.88732  0.53928  0.48208  1.0000
  C   C439      1.0  0.57744  0.63861  0.76005  1.0000
  H   H441      1.0  0.85950  0.47979  0.53505  1.0000
  S   S149      1.0  0.90224  0.61282  0.50559  1.0000
  Fe  Fe78      1.0  0.54053  0.61339  0.70477  1.0000
  S   S150      1.0  0.51708  0.60797  0.68255  1.0000
  S   S151      1.0  0.52590  0.61334  0.74368  1.0000
  Fe  Fe79      1.0  0.58551  0.61003  0.66584  1.0000
  S   S152      1.0  0.56655  0.60368  0.64061  1.0000
  S   S153      1.0  0.62471  0.61298  0.65358  1.0000
  Fe  Fe80      1.0  0.53720  0.63169  0.65447  1.0000
  Fe  Fe81      1.0  0.54785  0.58056  0.67000  1.0000
  S   S154      1.0  0.54326  0.54600  0.66487  1.0000
  H   H442      1.0  0.60202  0.49754  0.96349  1.0000
  S   S155      1.0  0.56999  0.58399  0.69418  1.0000
  Fe  Fe82      1.0  0.70188  0.62042  0.50218  1.0000
  S   S156      1.0  0.67592  0.59695  0.50604  1.0000
  Fe  Fe83      1.0  0.74446  0.58181  0.50562  1.0000
  S   S157      1.0  0.72214  0.55470  0.50992  1.0000
  H   H443      1.0  0.60692  0.57497  0.57667  1.0000
  Fe  Fe84      1.0  0.69374  0.57657  0.53413  1.0000
  S   S158      1.0  0.66881  0.56072  0.56574  1.0000
  S   S159      1.0  0.71754  0.60172  0.53241  1.0000
  C   C440      1.0  0.63879  0.59713  0.63034  1.0000
  C   C441      1.0  0.65839  0.60400  0.61313  1.0000
  C   C442      1.0  0.66785  0.59297  0.59312  1.0000
  C   C443      1.0  0.65821  0.57461  0.59070  1.0000
  C   C444      1.0  0.63926  0.56725  0.60837  1.0000
  C   C445      1.0  0.62931  0.57868  0.62795  1.0000
  H   H444      1.0  0.66578  0.61828  0.61489  1.0000
  H   H445      1.0  0.68265  0.59859  0.57968  1.0000
  H   H446      1.0  0.63219  0.55271  0.60680  1.0000
  H   H447      1.0  0.61448  0.57303  0.64134  1.0000
  H   H448      1.0  0.65941  0.56849  0.92809  1.0000
  C   C446      1.0  0.64695  0.62227  0.72651  1.0000
  C   C447      1.0  0.98296  0.52495  0.53888  1.0000
  H   H449      1.0  0.58298  0.58003  0.93284  1.0000
  C   C448      1.0  0.84689  0.53062  0.48798  1.0000
  H   H450      1.0  0.96102  0.48320  0.51688  1.0000
  C   C449      1.0  0.83635  0.60861  0.50046  1.0000
  C   C450      1.0  0.82284  0.62879  0.50848  1.0000
  H   H451      1.0  0.59512  0.60954  0.96364  1.0000
  C   C451      1.0  0.57374  0.63197  0.78426  1.0000
  C   C452      1.0  0.79932  0.59416  0.50472  1.0000
  C   C453      1.0  0.78578  0.61415  0.51330  1.0000
  C   C454      1.0  0.79753  0.63131  0.51540  1.0000
  H   H452      1.0  0.96938  0.52319  0.57609  1.0000
  H   H453      1.0  0.76626  0.61649  0.51817  1.0000
  C   C455      1.0  0.82463  0.59135  0.49874  1.0000
  C   C456      1.0  0.62163  0.57606  0.92793  1.0000
  C   C457      1.0  0.57335  0.54507  0.90136  1.0000
  C   C458      1.0  0.96220  0.59369  0.57658  1.0000
  C   C459      1.0  0.59581  0.57784  0.75080  1.0000
  H   H454      1.0  0.94908  0.60024  0.59142  1.0000
  C   C460      1.0  0.99631  0.57636  0.53857  1.0000
  S   S160      1.0  0.94827  0.64035  0.48253  1.0000
  C   C461      1.0  0.59578  0.55497  0.95982  1.0000
  H   H455      1.0  0.96306  0.57902  0.48798  1.0000
  C   C462      1.0  0.97916  0.53577  0.51709  1.0000
  C   C463      1.0  0.56278  0.63309  0.74747  1.0000
  C   C464      1.0  0.54395  0.62131  0.75913  1.0000
  C   C465      1.0  0.53982  0.61521  0.78344  1.0000
  C   C466      1.0  0.55476  0.62038  0.79597  1.0000
  H   H456      1.0  0.59209  0.61509  0.56201  1.0000
  H   H457      1.0  0.56597  0.63805  0.72878  1.0000
  H   H458      1.0  0.59700  0.53770  0.59440  1.0000
  H   H459      1.0  0.55184  0.61505  0.81460  1.0000
  H   H460      1.0  0.97559  0.60149  0.51722  1.0000
  S   S161      1.0  0.52209  0.65209  0.62440  1.0000
  C   C467      1.0  0.61430  0.64673  0.59092  1.0000
  H   H461      1.0  0.54872  0.63238  0.57582  1.0000
  C   C468      1.0  0.53596  0.56937  0.85460  1.0000
  S   S162      1.0  0.55167  0.45951  0.96989  1.0000
  H   H462      1.0  0.55350  0.57255  0.85419  1.0000
  H   H463      1.0  0.51416  0.37124  0.53503  1.0000
  S   S163      1.0  0.59428  0.63666  0.79908  1.0000
  C   C469      1.0  0.50429  0.45532  0.97442  1.0000
  C   C470      1.0  0.98101  0.57575  0.58030  1.0000
  H   H464      1.0  0.78693  0.64675  0.52196  1.0000
  H   H465      1.0  0.81885  0.49030  0.52595  1.0000
  C   C471      1.0  0.53946  0.60128  0.59676  1.0000
  C   C472      1.0  0.50508  0.47218  0.92742  1.0000
  H   H466      1.0  0.64697  0.62023  0.76286  1.0000
  C   C473      1.0  0.52493  0.46300  0.95997  1.0000
  C   C474      1.0  0.95533  0.56313  0.49254  1.0000
  H   H467      1.0  0.59764  0.47593  0.94878  1.0000
  C   C475      1.0  0.58654  0.62647  0.95730  1.0000
  H   H468      1.0  0.90575  0.53024  0.48358  1.0000
  C   C476      1.0  0.64013  0.61434  0.75027  1.0000
  C   C477      1.0  0.51141  0.54963  0.84127  1.0000
  H   H469      1.0  0.70362  0.48516  0.48200  1.0000
  S   S164      1.0  0.51768  0.59256  0.89259  1.0000
  H   H470      1.0  0.61311  0.59499  0.70660  1.0000
  H   H471      1.0  0.52440  0.50697  0.66243  1.0000
  N   N37       1.0  0.95872  0.55159  0.51550  1.0000
  H   H472      1.0  0.70305  0.52570  0.48475  1.0000
  C   C478      1.0  0.59888  0.63920  0.93774  1.0000
  Fe  Fe85      1.0  0.87786  0.64611  0.49795  1.0000
  S   S165      1.0  0.59783  0.64748  0.86135  1.0000
  H   H473      1.0  0.59195  0.64778  0.75094  1.0000
  H   H474      1.0  0.98218  0.56849  0.59798  1.0000
  C   C479      1.0  0.51543  0.57833  0.87081  1.0000
  C   C480      1.0  0.97326  0.48475  0.49983  1.0000
  H   H475      1.0  0.54041  0.53213  0.91722  1.0000
  C   C481      1.0  0.63881  0.54892  0.95705  1.0000
  C   C482      1.0  0.87352  0.50714  0.51024  1.0000
  H   H476      1.0  0.63783  0.62756  0.56393  1.0000
  C   C483      1.0  0.94222  0.55775  0.53527  1.0000
  N   N38       1.0  0.86898  0.52510  0.49348  1.0000
  C   C484      1.0  0.97709  0.59430  0.53481  1.0000
  H   H477      1.0  0.55953  0.50108  0.94331  1.0000
  C   C485      1.0  0.62063  0.60029  0.71902  1.0000
  H   H478      1.0  0.92672  0.57123  0.53412  1.0000
  H   H479      1.0  0.83527  0.57604  0.49230  1.0000
  H   H480      1.0  0.60877  0.55425  0.88919  1.0000
  C   C486      1.0  0.60546  0.49163  0.94629  1.0000
  H   H481      1.0  0.54131  0.47680  0.92495  1.0000
  H   H482      1.0  0.62723  0.52298  0.91534  1.0000
  H   H483      1.0  0.55002  0.54629  0.82874  1.0000
  C   C487      1.0  0.95983  0.60271  0.55395  1.0000
  S   S166      1.0  0.93401  0.48417  0.48261  1.0000
  H   H484      1.0  0.93288  0.55283  0.57300  1.0000
  C   C488      1.0  0.62365  0.59935  0.75793  1.0000
  H   H485      1.0  0.81077  0.52332  0.49576  1.0000
  C   C489      1.0  0.83298  0.49997  0.51675  1.0000
  C   C490      1.0  0.59855  0.57134  0.93957  1.0000
  H   H486      1.0  0.56716  0.53524  0.61176  1.0000
  H   H487      1.0  0.64250  0.62105  0.69216  1.0000
  C   C491      1.0  0.62585  0.64352  0.56786  1.0000
  H   H488      1.0  0.65953  0.63408  0.72036  1.0000
  H   H489      1.0  0.50164  0.39992  0.58120  1.0000
  H   H490      1.0  0.50714  0.56701  0.78854  1.0000
  C   C492      1.0  0.53400  0.55470  0.83995  1.0000
  N   N39       1.0  0.59463  0.50970  0.93024  1.0000
  C   C493      1.0  0.56299  0.63564  0.96847  1.0000
  H   H491      1.0  0.88296  0.55535  0.48989  1.0000
  H   H492      1.0  0.60476  0.55994  0.74883  1.0000
  C   C494      1.0  0.59794  0.54227  0.90059  1.0000
  H   H493      1.0  0.58647  0.57897  0.76943  1.0000
  S   S167      1.0  0.55767  0.64003  0.67787  1.0000
  H   H494      1.0  0.54282  0.33658  0.48119  1.0000
  H   H495      1.0  0.58709  0.54649  0.62320  1.0000
  H   H496      1.0  0.52533  0.60607  0.79261  1.0000
  S   S168      1.0  0.78521  0.57280  0.50054  1.0000
  C   C495      1.0  0.50509  0.33691  0.48423  1.0000
  S   S169      1.0  0.50873  0.52689  0.82866  1.0000
  C   C496      1.0  0.63731  0.61507  0.71072  1.0000
  N   N40       1.0  0.61367  0.59298  0.74242  1.0000
  C   C497      1.0  0.64159  0.56487  0.93687  1.0000
  C   C498      1.0  0.55530  0.61457  0.58148  1.0000
  H   H497      1.0  0.89106  0.50263  0.51455  1.0000
  C   C499      1.0  0.82849  0.51835  0.49970  1.0000
  C   C500      1.0  0.96597  0.53073  0.55910  1.0000
  C   C501      1.0  0.60832  0.52448  0.91539  1.0000
  H   H498      1.0  0.99284  0.53166  0.50149  1.0000
  C   C502      1.0  0.55951  0.53005  0.91664  1.0000
  C   C503      1.0  0.94554  0.54736  0.55735  1.0000
  H   H499      1.0  0.57807  0.55120  0.96874  1.0000
  H   H500      1.0  0.61803  0.59377  0.77652  1.0000
  C   C504      1.0  0.85570  0.49416  0.52196  1.0000
  C   C505      1.0  0.58135  0.54603  0.60705  1.0000
  H   H501      1.0  0.51001  0.48572  0.71133  1.0000
  C   C506      1.0  0.57963  0.60495  0.57397  1.0000
  Fe  Fe86      1.0  0.70598  0.57706  0.48174  1.0000
  H   H502      1.0  0.53592  0.56849  0.61683  1.0000
  H   H503      1.0  0.85582  0.60647  0.49519  1.0000
  N   N41       1.0  0.57216  0.56930  0.59727  1.0000
  S   S170      1.0  0.54389  0.64425  0.85621  1.0000
  H   H504      1.0  0.52064  0.60880  0.60315  1.0000
  C   C507      1.0  0.51047  0.52185  0.66079  1.0000
  C   C508      1.0  0.54823  0.57853  0.60451  1.0000
  H   H505      1.0  0.65802  0.64049  0.48289  1.0000
  C   C509      1.0  0.58785  0.58219  0.58223  1.0000
  H   H506      1.0  0.50580  0.47816  0.90913  1.0000
  H   H507      1.0  0.61703  0.63217  0.92872  1.0000
  H   H508      1.0  0.62532  0.48689  0.93961  1.0000
  H   H509      1.0  0.50716  0.52436  0.71628  1.0000
  H   H510      1.0  0.50068  0.57956  0.65774  1.0000
  C   C510      1.0  0.96473  0.48545  0.47982  1.0000
  S   S171      1.0  0.49732  0.33719  0.51458  1.0000
  H   H511      1.0  0.49997  0.39940  0.54251  1.0000
  C   C511      1.0  0.49776  0.38129  0.54530  1.0000
  C   C512      1.0  0.99444  0.69894  0.39544  1.0000
  C   C513      1.0  0.97369  0.68404  0.43426  1.0000
  H   H512      1.0  0.94259  0.73546  0.41575  1.0000
  C   C514      1.0  0.95675  0.72053  0.41553  1.0000
  H   H513      1.0  0.53494  0.93766  0.41786  1.0000
  H   H514      1.0  0.60035  0.87896  0.42790  1.0000
  C   C515      1.0  0.99694  0.65747  0.33259  1.0000
  H   H515      1.0  0.52663  0.75045  0.41387  1.0000
  H   H516      1.0  0.82687  0.65877  0.45994  1.0000
  H   H517      1.0  0.97275  0.68811  0.36112  1.0000
  H   H518      1.0  0.53310  0.76538  0.44712  1.0000
  C   C516      1.0  0.56703  0.90354  0.43089  1.0000
  C   C517      1.0  0.96777  0.67141  0.36699  1.0000
  H   H519      1.0  0.97682  0.73138  0.38078  1.0000
  H   H520      1.0  0.57505  0.91588  0.41712  1.0000
  S   S172      1.0  0.93031  0.70533  0.45874  1.0000
  S   S173      1.0  0.57024  0.76877  0.47335  1.0000
  C   C518      1.0  0.58145  0.88271  0.43691  1.0000
  H   H521      1.0  0.56099  0.69485  0.45254  1.0000
  C   C519      1.0  0.57152  0.86699  0.45501  1.0000
  C   C520      1.0  0.95084  0.66796  0.38818  1.0000
  H   H522      1.0  0.97298  0.67066  0.44888  1.0000
  C   C521      1.0  0.80834  0.65703  0.46154  1.0000
  N   N42       1.0  0.54333  0.90857  0.44256  1.0000
  H   H523      1.0  0.50939  0.92990  0.43982  1.0000
  H   H524      1.0  0.53074  0.94336  0.44703  1.0000
  C   C522      1.0  0.52881  0.93086  0.43659  1.0000
  C   C523      1.0  0.54747  0.87243  0.46715  1.0000
  H   H525      1.0  0.60129  0.96838  0.38151  1.0000
  S   S174      1.0  0.57766  0.95831  0.42930  1.0000
  C   C524      1.0  0.51538  0.76914  0.44338  1.0000
  Fe  Fe87      1.0  0.92050  0.67142  0.47647  1.0000
  C   C525      1.0  0.95521  0.70311  0.43459  1.0000
  C   C526      1.0  0.50811  0.70467  0.43532  1.0000
  C   C527      1.0  0.53358  0.89350  0.46076  1.0000
  S   S175      1.0  0.89906  0.65432  0.46122  1.0000
  H   H526      1.0  0.58264  0.85081  0.45988  1.0000
  C   C528      1.0  0.49830  0.72408  0.33080  1.0000
  C   C529      1.0  0.59316  0.98069  0.41463  1.0000
  C   C530      1.0  0.51170  0.76077  0.42449  1.0000
  H   H527      1.0  0.54458  0.68914  0.42011  1.0000
  C   C531      1.0  0.53267  0.69724  0.43468  1.0000
  C   C532      1.0  0.54190  0.70050  0.45280  1.0000
  Fe  Fe88      1.0  0.56735  0.95330  0.46857  1.0000
  C   C533      1.0  0.97617  0.71830  0.39581  1.0000
  H   H528      1.0  0.51516  0.89792  0.47078  1.0000
  H   H529      1.0  0.94302  0.68173  0.39868  1.0000
  C   C534      1.0  0.99351  0.68229  0.41508  1.0000
  C   C535      1.0  0.60260  0.98176  0.39049  1.0000
  H   H530      1.0  0.50077  0.70277  0.42108  1.0000
  C   C536      1.0  0.76612  0.66924  0.47547  1.0000
  H   H531      1.0  0.51380  0.72182  0.25771  1.0000
  N   N43       1.0  0.78944  0.67217  0.47233  1.0000
  H   H532      1.0  0.52743  0.66947  0.99017  1.0000
  H   H533      1.0  0.98821  0.66371  0.31769  1.0000
  S   S176      1.0  0.50941  0.98429  0.40536  1.0000
  C   C537      1.0  0.52641  0.71136  0.47124  1.0000
  H   H534      1.0  0.50666  0.69706  0.30975  1.0000
  N   N44       1.0  0.50244  0.71899  0.47153  1.0000
  C   C538      1.0  0.50026  0.71519  0.31030  1.0000
  H   H535      1.0  0.61614  0.65724  0.47924  1.0000
  H   H536      1.0  0.50306  0.71304  0.34598  1.0000
  H   H537      1.0  0.81286  0.69401  0.47451  1.0000
  H   H538      1.0  0.78142  0.70687  0.47834  1.0000
  S   S177      1.0  0.54259  0.69096  0.89264  1.0000
  C   C539      1.0  0.97805  0.68261  0.49297  1.0000
  S   S178      1.0  0.55079  0.93837  0.53617  1.0000
  S   S179      1.0  0.61202  0.89597  0.52172  1.0000
  Fe  Fe89      1.0  0.53237  0.93184  0.51042  1.0000
  Fe  Fe90      1.0  0.55276  0.97245  0.51397  1.0000
  C   C540      1.0  0.52783  0.67974  0.61272  1.0000
  C   C541      1.0  0.51470  0.69070  0.91287  1.0000
  C   C542      1.0  0.65066  0.65797  0.48566  1.0000
  H   H539      1.0  0.60356  0.69536  0.54117  1.0000
  S   S180      1.0  0.53437  0.74324  0.51810  1.0000
  N   N45       1.0  0.96636  0.67607  0.51547  1.0000
  Fe  Fe91      1.0  0.58166  0.78296  0.49995  1.0000
  H   H540      1.0  0.75108  0.68085  0.48454  1.0000
  Fe  Fe92      1.0  0.54899  0.75894  0.54113  1.0000
  H   H541      1.0  0.60132  0.66245  0.63175  1.0000
  H   H542      1.0  0.58421  0.70046  0.58239  1.0000
  S   S181      1.0  0.58762  0.74925  0.52256  1.0000
  H   H543      1.0  0.59692  0.67088  0.91432  1.0000
  C   C543      1.0  0.50154  0.71092  0.92124  1.0000
  Fe  Fe93      1.0  0.58458  0.92537  0.51073  1.0000
  C   C544      1.0  0.53562  0.72418  0.59278  1.0000
  Fe  Fe94      1.0  0.53284  0.77727  0.49560  1.0000
  H   H544      1.0  0.57554  0.88380  0.56686  1.0000
  C   C545      1.0  0.58768  0.66094  0.92974  1.0000
  C   C546      1.0  0.58839  0.66978  0.62043  1.0000
  C   C547      1.0  0.66460  0.67100  0.49166  1.0000
  C   C548      1.0  0.60677  0.68164  0.55512  1.0000
  C   C549      1.0  0.60288  0.84202  0.56700  1.0000
  H   H545      1.0  0.51507  0.65496  0.91387  1.0000
  Fe  Fe95      1.0  0.55925  0.65682  0.88085  1.0000
  H   H546      1.0  0.79194  0.68619  0.50119  1.0000
  N   N46       1.0  0.57754  0.84847  0.56544  1.0000
  C   C550      1.0  0.53389  0.70886  0.57882  1.0000
  C   C551      1.0  0.52746  0.66612  0.97257  1.0000
  C   C552      1.0  0.97729  0.65836  0.52909  1.0000
  C   C553      1.0  0.79409  0.69079  0.48200  1.0000
  H   H547      1.0  0.58185  0.68803  0.62280  1.0000
  C   C554      1.0  0.61125  0.87047  0.51207  1.0000
  C   C555      1.0  0.58938  0.86463  0.51161  1.0000
  C   C556      1.0  0.58916  0.84334  0.50559  1.0000
  C   C557      1.0  0.61095  0.82841  0.49879  1.0000
  S   S182      1.0  0.89687  0.66644  0.51254  1.0000
  C   C558      1.0  0.63284  0.85512  0.50605  1.0000
  H   H548      1.0  0.57254  0.87617  0.51659  1.0000
  H   H549      1.0  0.52781  0.67534  0.57790  1.0000
  H   H550      1.0  0.51132  0.86543  0.55938  1.0000
  S   S183      1.0  0.54402  0.79408  0.52058  1.0000
  H   H551      1.0  0.52830  0.68957  0.64526  1.0000
  H   H552      1.0  0.53384  0.71383  0.48517  1.0000
  C   C559      1.0  0.94249  0.68878  0.52543  1.0000
  H   H553      1.0  0.53304  0.89478  0.56327  1.0000
  C   C560      1.0  0.52970  0.68685  0.58879  1.0000
  C   C561      1.0  0.56595  0.87068  0.56590  1.0000
  C   C562      1.0  0.54196  0.87704  0.56378  1.0000
  S   S184      1.0  0.61210  0.80285  0.48842  1.0000
  H   H554      1.0  0.64978  0.85943  0.50640  1.0000
  S   S185      1.0  0.58921  0.96019  0.49114  1.0000
  N   N47       1.0  0.59998  0.66709  0.59600  1.0000
  C   C563      1.0  0.53004  0.69484  0.62672  1.0000
  N   N48       1.0  0.55210  0.65693  0.96042  1.0000
  Fe  Fe96      1.0  0.57291  0.73599  0.49785  1.0000
  H   H555      1.0  0.53216  0.82478  0.56010  1.0000
  C   C564      1.0  0.65513  0.69391  0.49438  1.0000
  H   H556      1.0  0.61313  0.83007  0.55428  1.0000
  H   H557      1.0  0.57227  0.83873  0.50562  1.0000
  H   H558      1.0  0.53544  0.71401  0.56037  1.0000
  C   C565      1.0  0.53379  0.71708  0.61676  1.0000
  C   C566      1.0  0.54149  0.83782  0.56175  1.0000
  H   H559      1.0  0.57469  0.81443  0.56341  1.0000
  C   C567      1.0  0.56553  0.83205  0.56376  1.0000
  H   H560      1.0  0.93119  0.67718  0.53802  1.0000
  H   H561      1.0  0.61203  0.85710  0.56244  1.0000
  H   H562      1.0  0.53509  0.72886  0.62768  1.0000
  C   C568      1.0  0.59587  0.68439  0.57846  1.0000
  H   H563      1.0  0.53981  0.86064  0.48177  1.0000
  H   H564      1.0  0.66591  0.70418  0.49871  1.0000
  S   S186      1.0  0.54051  0.75203  0.58051  1.0000
  H   H565      1.0  0.50860  0.72662  0.91515  1.0000
  C   C569      1.0  0.63274  0.83442  0.49895  1.0000
  H   H566      1.0  0.60400  0.83381  0.58493  1.0000
  C   C570      1.0  0.61723  0.69023  0.48697  1.0000
  H   H567      1.0  0.93256  0.69687  0.51161  1.0000
  H   H568      1.0  0.94447  0.70228  0.53460  1.0000
  C   C571      1.0  0.56426  0.66971  0.94156  1.0000
  H   H569      1.0  0.64965  0.82298  0.49361  1.0000
  H   H570      1.0  0.57276  0.66074  0.62640  1.0000
  S   S187      1.0  0.53100  0.96712  0.49028  1.0000
  H   H571      1.0  0.62458  0.72123  0.49390  1.0000
  C   C572      1.0  0.50542  0.67051  0.92069  1.0000
  C   C573      1.0  0.63156  0.70352  0.49194  1.0000
  S   S188      1.0  0.69319  0.65882  0.49727  1.0000
  S   S189      1.0  0.56601  0.91755  0.48602  1.0000
  C   C574      1.0  0.52976  0.86052  0.56154  1.0000
  S   S190      1.0  0.50450  0.90940  0.52449  1.0000
  C   C575      1.0  0.62201  0.66114  0.54990  1.0000
  H   H572      1.0  0.55582  0.68671  0.93533  1.0000
  H   H573      1.0  0.51964  0.68222  0.96283  1.0000
  H   H574      1.0  0.96951  0.69680  0.48222  1.0000
  S   S191      1.0  0.49992  0.79325  0.48111  1.0000
  C   C576      1.0  0.62698  0.66754  0.48344  1.0000
  S   S192      1.0  0.58685  0.70135  0.48608  1.0000
  H   H575      1.0  0.63085  0.65888  0.53199  1.0000
  H   H576      1.0  0.49776  0.94178  0.48438  1.0000
