data_image0
_chemical_formula_structural       C2H2SHFeSCHCHCHSFeS2HCSCSFeCHC2NC2H2CH2SC4SH2C6H6C3FeS2H2CHFeCHCH2CH3CHSCH2NH2NC2HC2HSHCHC2H2CHC2FeHSH2NFeHC2HC6HCHCH2FeH5NHSFeH2CH3C2SFeS2FeS2FeSFeS2HCSCHCHC2H2CNHC7SH3CHCH2C6H4SH3SCNCHC2HCHCH2SHC3HCHFeCH2CHSC3H3CH4CNCSH2CSCHFeC2HC4HC2NH2SCNH2CH2CH2CH3C4SHCFeS2FeCSHSC2S2CHCH2CHC5SCSCHC2H2C3NHFeC3NH6C6H2SHFe2CHC3H2CH5CNHS2CHCHCH6C2NCFeHNCHCHSCH2FeSC2HC2FeSCH2CH7CHCFeSHSFeS3CFeCHCHSCFeS2HSH3CHCHC2SHC6H4NC2NH3CH2FeCH2CNHCHC2H3CHC3SHC5HCHCHSHSH2SCHFeS2FeSCFeSFeS3Fe2CSHS3CS3NSH2SHC7H4C6H7C2HC6H2CHFeCHC2SCHSCFeC2H2FeH3CH2NHC5H2SH2CSH3FeC2H2C3FeH5CSNC2FeC2HC2H2C2FeNCFeCH4CH2NHFeCH2C4FeHSCH2SFeSNFeS3HCH5C2SH3C3HCH4CHCHCFeSH3C3H2CSC7H2C2FeHC2HSCSCHNHCNS2H4CHC2HCS2FeSFeHCFeCSFeS2FeCFeCS3FeSFeHSCHS3FeCFeSH3CH2SNCFeHSC5H3C6H4C6H2SH4C3H2CHNC6H6SHC7H5C3HC3HNH2SH3C3H2CH3SHC4SH4C3SH4S2H3C4HCH2SH3CHCHCSHSCHNHCHCHSC5HCHSNFeH2CH4SCFeS2FeSFeSFeS4CFeH2SCFeSC2NCHC2FeC3H2C6H4FeCH2C2H2CH2C3HC2HNC6H8CHCHCHSHFeHC2H2C2S3HFeCSHCSCSHC2H2NCHCHCSCSHCH2SHCHCFeH2CSHCFeS2H3FeS2FeS2FeSFeS2CFeSCHNH2C6H4C6H4C3HCHC3H4FeC2NH2CHC2HCHNHCNCSHCHCH4CH4C2H5CSH2C4H2NCHC3HC2HSH2CHSFeH2C3HSCHC2FeS2HFeCHSCNSHCHC5H3C3HC2SH2CHC3H2CHCHC2H4NHCFe2HNH2CSH2C3HC2H2C2FeSCSH2CHSFeCNHC2HSCH2C2FeH2C3S2CHCH4CSFeC2HCHCHCSFeSHFeSFeS2CSHFeSFeHCH3FeCSFeS2H3CSC7H4C5H4CH2C6FeH2C2HNH2C2SCNSNC6H8CH2C2H2CHCH3C2NCHNHC2HC2H2CSCHCH2SCH3CSFeHCHCSHCH
_chemical_formula_sum              "C576 H576 S192 Fe96 N48"
_cell_length_a       45.6884
_cell_length_b       45.8747
_cell_length_c       59.3604
_cell_angle_alpha    88.3886
_cell_angle_beta     88.3938
_cell_angle_gamma    84.5115

_space_group_name_H-M_alt    "P 1"
_space_group_IT_number       1

loop_
  _space_group_symop_operation_xyz
  'x, y, z'

loop_
  _atom_site_type_symbol
  _atom_site_label
  _atom_site_symmetry_multiplicity
  _atom_site_fract_x
  _atom_site_fract_y
  _atom_site_fract_z
  _atom_site_occupancy
  C   C1        1.0  0.23285  0.08218  0.16794  1.0000
  C   C2        1.0  0.03943  0.09435  0.99114  1.0000
  H   H1        1.0  0.41897  0.00919  0.07987  1.0000
  H   H2        1.0  0.03508  0.17943  0.00107  1.0000
  S   S1        1.0  0.28895  0.04743  0.13602  1.0000
  H   H3        1.0  0.23345  0.00969  0.01051  1.0000
  Fe  Fe1       1.0  0.30316  0.03583  0.17143  1.0000
  S   S2        1.0  0.29412  0.06162  0.20311  1.0000
  C   C3        1.0  0.04112  0.42795  0.24632  1.0000
  H   H4        1.0  0.22215  0.99368  0.16919  1.0000
  C   C4        1.0  0.45155  0.14312  0.19692  1.0000
  H   H5        1.0  0.03269  0.37276  0.27512  1.0000
  C   C5        1.0  0.41441  0.02579  0.19296  1.0000
  H   H6        1.0  0.02864  0.36734  0.30536  1.0000
  S   S3        1.0  0.43672  0.08966  0.29379  1.0000
  Fe  Fe2       1.0  0.41238  0.12806  0.27578  1.0000
  S   S4        1.0  0.40192  0.12318  0.23910  1.0000
  S   S5        1.0  0.44671  0.15925  0.28097  1.0000
  H   H7        1.0  0.21479  0.05896  0.99901  1.0000
  C   C6        1.0  0.20986  0.07605  0.13250  1.0000
  S   S6        1.0  0.06625  0.44466  0.26272  1.0000
  C   C7        1.0  0.19243  0.02125  0.05421  1.0000
  S   S7        1.0  0.09483  0.02394  0.00512  1.0000
  Fe  Fe3       1.0  0.27730  0.00105  0.13446  1.0000
  C   C8        1.0  0.00101  0.20175  0.03353  1.0000
  H   H8        1.0  0.20446  0.08374  0.11552  1.0000
  C   C9        1.0  0.05167  0.40325  0.23416  1.0000
  C   C10       1.0  0.38936  0.99327  0.25763  1.0000
  N   N1        1.0  0.20962  0.03840  0.16149  1.0000
  C   C11       1.0  0.02761  0.45964  0.15739  1.0000
  C   C12       1.0  0.01097  0.43731  0.24617  1.0000
  H   H9        1.0  0.39237  0.09334  0.07766  1.0000
  H   H10       1.0  0.39933  0.04474  0.18710  1.0000
  C   C13       1.0  0.03222  0.38681  0.22324  1.0000
  H   H11       1.0  0.43592  0.98407  0.26276  1.0000
  H   H12       1.0  0.24619  0.03606  0.09023  1.0000
  S   S8        1.0  0.23567  0.98608  0.12007  1.0000
  C   C14       1.0  0.44863  0.08156  0.11414  1.0000
  C   C15       1.0  0.43736  0.06001  0.12820  1.0000
  C   C16       1.0  0.40942  0.05097  0.12429  1.0000
  C   C17       1.0  0.99147  0.42117  0.23471  1.0000
  S   S9        1.0  0.34952  0.02079  0.16153  1.0000
  H   H13       1.0  0.45013  0.05033  0.14204  1.0000
  H   H14       1.0  0.40099  0.03401  0.13487  1.0000
  C   C18       1.0  0.32437  0.07813  0.21330  1.0000
  C   C19       1.0  0.32593  0.08360  0.23638  1.0000
  C   C20       1.0  0.34993  0.09678  0.24472  1.0000
  C   C21       1.0  0.37221  0.10501  0.22990  1.0000
  C   C22       1.0  0.37069  0.09938  0.20686  1.0000
  C   C23       1.0  0.34698  0.08585  0.19860  1.0000
  H   H15       1.0  0.30851  0.07769  0.24785  1.0000
  H   H16       1.0  0.35085  0.10112  0.26249  1.0000
  H   H17       1.0  0.38774  0.10580  0.19528  1.0000
  H   H18       1.0  0.34582  0.08210  0.18076  1.0000
  H   H19       1.0  0.07490  0.39586  0.23414  1.0000
  H   H20       1.0  0.19072  0.03554  0.12921  1.0000
  C   C24       1.0  0.18422  0.99556  0.06482  1.0000
  C   C25       1.0  0.22511  0.05457  0.17514  1.0000
  C   C26       1.0  0.40471  0.08423  0.09193  1.0000
  Fe  Fe4       1.0  0.33445  0.02822  0.12622  1.0000
  S   S10       1.0  0.48315  0.09370  0.11875  1.0000
  S   S11       1.0  0.38563  0.14386  0.30632  1.0000
  H   H21       1.0  0.24551  0.09469  0.17874  1.0000
  H   H22       1.0  0.42066  0.15024  0.16036  1.0000
  C   C27       1.0  0.00232  0.24629  0.01230  1.0000
  H   H23       1.0  0.43569  0.11294  0.15583  1.0000
  Fe  Fe5       1.0  0.05140  0.47549  0.29067  1.0000
  C   C28       1.0  0.02312  0.20048  0.99535  1.0000
  H   H24       1.0  0.01387  0.00273  0.00544  1.0000
  C   C29       1.0  0.43208  0.09392  0.09625  1.0000
  H   H25       1.0  0.47701  0.19959  0.31084  1.0000
  H   H26       1.0  0.38285  0.98390  0.27380  1.0000
  C   C30       1.0  0.44915  0.98945  0.10448  1.0000
  H   H27       1.0  0.00620  0.19534  0.98338  1.0000
  H   H28       1.0  0.04051  0.36669  0.21519  1.0000
  H   H29       1.0  0.01246  0.10676  0.02035  1.0000
  C   C31       1.0  0.39326  0.06282  0.10591  1.0000
  H   H30       1.0  0.00513  0.17806  0.03479  1.0000
  S   S12       1.0  0.28724  0.99107  0.17108  1.0000
  C   C32       1.0  0.22899  0.02467  0.08326  1.0000
  H   H31       1.0  0.34481  0.00466  0.24716  1.0000
  H   H32       1.0  0.03928  0.21345  0.98626  1.0000
  N   N2        1.0  0.46202  0.13732  0.17554  1.0000
  H   H33       1.0  0.04668  0.44504  0.15254  1.0000
  H   H34       1.0  0.23202  0.04601  0.19160  1.0000
  N   N3        1.0  0.40578  0.01578  0.21564  1.0000
  C   C33       1.0  0.01595  0.11043  0.00243  1.0000
  C   C34       1.0  0.20215  0.04872  0.14035  1.0000
  H   H35       1.0  0.22138  0.05562  0.05549  1.0000
  C   C35       1.0  0.22517  0.09293  0.14647  1.0000
  C   C36       1.0  0.22805  0.00159  0.99377  1.0000
  H   H36       1.0  0.23171  0.11397  0.14048  1.0000
  S   S13       1.0  0.35984  0.04993  0.09878  1.0000
  H   H37       1.0  0.43701  0.03289  0.19252  1.0000
  C   C37       1.0  0.44127  0.13584  0.15731  1.0000
  H   H38       1.0  0.44073  0.11055  0.08536  1.0000
  C   C38       1.0  0.36799  0.00474  0.24265  1.0000
  C   C39       1.0  0.02494  0.38333  0.29112  1.0000
  H   H39       1.0  0.16689  0.98429  0.05790  1.0000
  H   H40       1.0  0.99736  0.42714  0.31434  1.0000
  C   C40       1.0  0.20210  0.00941  0.16939  1.0000
  H   H41       1.0  0.45093  0.14296  0.14087  1.0000
  C   C41       1.0  0.00830  0.01682  0.99087  1.0000
  C   C42       1.0  0.42691  0.00490  0.23032  1.0000
  Fe  Fe6       1.0  0.14434  0.01742  0.00559  1.0000
  H   H42       1.0  0.05382  0.07849  0.00036  1.0000
  S   S14       1.0  0.17481  0.03693  0.02983  1.0000
  H   H43       1.0  0.20573  0.99391  0.99516  1.0000
  H   H44       1.0  0.35977  0.02363  0.20980  1.0000
  N   N4        1.0  0.00897  0.21660  0.01435  1.0000
  Fe  Fe7       1.0  0.46935  0.12159  0.30026  1.0000
  H   H45       1.0  0.19244  0.01039  0.18676  1.0000
  C   C43       1.0  0.37662  0.01559  0.22150  1.0000
  C   C44       1.0  0.21489  0.03570  0.06354  1.0000
  H   H46       1.0  0.42808  0.14721  0.20034  1.0000
  C   C45       1.0  0.42214  0.99361  0.09392  1.0000
  C   C46       1.0  0.99679  0.13081  0.99063  1.0000
  C   C47       1.0  0.00942  0.45200  0.17543  1.0000
  C   C48       1.0  0.22042  0.99927  0.09409  1.0000
  C   C49       1.0  0.00202  0.39540  0.22371  1.0000
  C   C50       1.0  0.41906  0.99336  0.25146  1.0000
  H   H47       1.0  0.00258  0.45646  0.25535  1.0000
  C   C51       1.0  0.19796  0.98482  0.08479  1.0000
  H   H48       1.0  0.01438  0.43156  0.18479  1.0000
  C   C52       1.0  0.47086  0.14371  0.21472  1.0000
  H   H49       1.0  0.45002  0.00451  0.22550  1.0000
  H   H50       1.0  0.46720  0.00163  0.09853  1.0000
  Fe  Fe8       1.0  0.42277  0.17083  0.31360  1.0000
  H   H51       1.0  0.46231  0.14800  0.23166  1.0000
  H   H52       1.0  0.18602  0.00058  0.15828  1.0000
  H   H53       1.0  0.03869  0.40178  0.29327  1.0000
  H   H54       1.0  0.41398  0.00758  0.18104  1.0000
  H   H55       1.0  0.00730  0.25793  0.99671  1.0000
  N   N5        1.0  0.99370  0.39401  0.29030  1.0000
  H   H56       1.0  0.24419  0.98264  0.98983  1.0000
  S   S15       1.0  0.39870  0.12942  0.62157  1.0000
  Fe  Fe9       1.0  0.44180  0.10359  0.62850  1.0000
  H   H57       1.0  0.42242  0.98853  0.32648  1.0000
  H   H58       1.0  0.43144  0.14479  0.42662  1.0000
  C   C53       1.0  0.37840  0.20198  0.39575  1.0000
  H   H59       1.0  0.39378  0.19077  0.54265  1.0000
  H   H60       1.0  0.39703  0.07254  0.59622  1.0000
  H   H61       1.0  0.47358  0.28924  0.34706  1.0000
  C   C54       1.0  0.43186  0.40049  0.52076  1.0000
  C   C55       1.0  0.47464  0.04057  0.60706  1.0000
  S   S16       1.0  0.28254  0.45241  0.50888  1.0000
  Fe  Fe10      1.0  0.42088  0.27882  0.49384  1.0000
  S   S17       1.0  0.05958  0.46506  0.32746  1.0000
  S   S18       1.0  0.40630  0.24001  0.51472  1.0000
  Fe  Fe11      1.0  0.40300  0.33249  0.46328  1.0000
  S   S19       1.0  0.44854  0.33304  0.44768  1.0000
  S   S20       1.0  0.36921  0.36757  0.44938  1.0000
  Fe  Fe12      1.0  0.44832  0.28394  0.44647  1.0000
  S   S21       1.0  0.46753  0.25188  0.42000  1.0000
  Fe  Fe13      1.0  0.41296  0.10801  0.32471  1.0000
  S   S22       1.0  0.40173  0.28396  0.45914  1.0000
  S   S23       1.0  0.41780  0.32756  0.49908  1.0000
  H   H62       1.0  0.40750  0.39027  0.48180  1.0000
  C   C56       1.0  0.48589  0.24734  0.33201  1.0000
  S   S24       1.0  0.17959  0.48231  0.43400  1.0000
  C   C57       1.0  0.46392  0.42744  0.49565  1.0000
  H   H63       1.0  0.48381  0.23261  0.54505  1.0000
  C   C58       1.0  0.39167  0.05214  0.60429  1.0000
  H   H64       1.0  0.47062  0.25164  0.31835  1.0000
  C   C59       1.0  0.41893  0.25428  0.55841  1.0000
  C   C60       1.0  0.42182  0.24771  0.58165  1.0000
  H   H65       1.0  0.24421  0.45612  0.42302  1.0000
  H   H66       1.0  0.40822  0.39650  0.52172  1.0000
  C   C61       1.0  0.45653  0.13839  0.55085  1.0000
  N   N6        1.0  0.36616  0.02658  0.63351  1.0000
  H   H67       1.0  0.43249  0.14057  0.55472  1.0000
  C   C62       1.0  0.40538  0.04876  0.35810  1.0000
  C   C63       1.0  0.44932  0.24114  0.39614  1.0000
  C   C64       1.0  0.45838  0.21381  0.38691  1.0000
  C   C65       1.0  0.44679  0.20544  0.36664  1.0000
  C   C66       1.0  0.42645  0.22461  0.35507  1.0000
  C   C67       1.0  0.41686  0.25174  0.36454  1.0000
  C   C68       1.0  0.42804  0.25990  0.38512  1.0000
  S   S25       1.0  0.42066  0.21250  0.61989  1.0000
  H   H68       1.0  0.45460  0.18467  0.35959  1.0000
  H   H69       1.0  0.40118  0.26679  0.35570  1.0000
  H   H70       1.0  0.42108  0.28114  0.39198  1.0000
  C   C69       1.0  0.48747  0.26873  0.34816  1.0000
  H   H71       1.0  0.13954  0.45686  0.40573  1.0000
  C   C70       1.0  0.39122  0.20955  0.41565  1.0000
  H   H72       1.0  0.29493  0.35659  0.45822  1.0000
  H   H73       1.0  0.35209  0.18226  0.36174  1.0000
  C   C71       1.0  0.34742  0.39237  0.46661  1.0000
  C   C72       1.0  0.34392  0.38722  0.48981  1.0000
  C   C73       1.0  0.32462  0.40634  0.50268  1.0000
  C   C74       1.0  0.30867  0.43068  0.49248  1.0000
  C   C75       1.0  0.31279  0.43623  0.46938  1.0000
  C   C76       1.0  0.33212  0.41715  0.45652  1.0000
  H   H74       1.0  0.35540  0.36807  0.49775  1.0000
  H   H75       1.0  0.32149  0.40187  0.52055  1.0000
  H   H76       1.0  0.30076  0.45494  0.46136  1.0000
  H   H77       1.0  0.33483  0.42134  0.43859  1.0000
  S   S26       1.0  0.03032  0.47997  0.62533  1.0000
  H   H78       1.0  0.42106  0.19489  0.44196  1.0000
  H   H79       1.0  0.42441  0.27521  0.55151  1.0000
  H   H80       1.0  0.42055  0.02522  0.58237  1.0000
  S   S27       1.0  0.39535  0.08650  0.35583  1.0000
  C   C77       1.0  0.41039  0.18890  0.42685  1.0000
  N   N7        1.0  0.38412  0.17439  0.38748  1.0000
  C   C78       1.0  0.41527  0.22040  0.59081  1.0000
  H   H81       1.0  0.36452  0.14445  0.36706  1.0000
  C   C79       1.0  0.40933  0.03576  0.37952  1.0000
  C   C80       1.0  0.27045  0.39129  0.43929  1.0000
  H   H82       1.0  0.36442  0.21852  0.38670  1.0000
  C   C81       1.0  0.24186  0.40572  0.47983  1.0000
  H   H83       1.0  0.26944  0.36990  0.49459  1.0000
  C   C82       1.0  0.42571  0.40366  0.47983  1.0000
  H   H84       1.0  0.40788  0.13230  0.39142  1.0000
  H   H85       1.0  0.47489  0.14345  0.59245  1.0000
  S   S28       1.0  0.44859  0.13563  0.33322  1.0000
  H   H86       1.0  0.39969  0.17901  0.58351  1.0000
  C   C83       1.0  0.40515  0.19992  0.57662  1.0000
  C   C84       1.0  0.40178  0.20668  0.55348  1.0000
  C   C85       1.0  0.40900  0.23370  0.54421  1.0000
  H   H87       1.0  0.42949  0.26374  0.59254  1.0000
  C   C86       1.0  0.24227  0.43260  0.41982  1.0000
  H   H88       1.0  0.44668  0.03789  0.63676  1.0000
  Fe  Fe14      1.0  0.46349  0.32585  0.48326  1.0000
  C   C87       1.0  0.37158  0.16702  0.36616  1.0000
  H   H89       1.0  0.23134  0.41229  0.49577  1.0000
  H   H90       1.0  0.42274  0.40607  0.44362  1.0000
  C   C88       1.0  0.41632  0.16091  0.41817  1.0000
  H   H91       1.0  0.38836  0.16824  0.35240  1.0000
  S   S29       1.0  0.46760  0.27669  0.48094  1.0000
  C   C89       1.0  0.40296  0.15400  0.39830  1.0000
  C   C90       1.0  0.37236  0.05228  0.62301  1.0000
  C   C91       1.0  0.41869  0.00589  0.38181  1.0000
  H   H92       1.0  0.47357  0.02804  0.35734  1.0000
  H   H93       1.0  0.28233  0.38582  0.42367  1.0000
  H   H94       1.0  0.44529  0.37958  0.52480  1.0000
  C   C92       1.0  0.46254  0.02614  0.62574  1.0000
  H   H95       1.0  0.40557  0.04888  0.39437  1.0000
  H   H96       1.0  0.46022  0.13703  0.53232  1.0000
  H   H97       1.0  0.21919  0.43037  0.41515  1.0000
  H   H98       1.0  0.36251  0.07308  0.62919  1.0000
  C   C93       1.0  0.14185  0.47876  0.39912  1.0000
  N   N8        1.0  0.44034  0.41126  0.49825  1.0000
  C   C94       1.0  0.41885  0.00157  0.34127  1.0000
  S   S30       1.0  0.46363  0.07748  0.60032  1.0000
  H   H99       1.0  0.25706  0.42628  0.40525  1.0000
  H   H100      1.0  0.38714  0.23159  0.42198  1.0000
  C   C95       1.0  0.40481  0.02554  0.59643  1.0000
  S   S31       1.0  0.41435  0.21639  0.32806  1.0000
  C   C96       1.0  0.39865  0.99946  0.60738  1.0000
  H   H101      1.0  0.13981  0.47841  0.47952  1.0000
  Fe  Fe15      1.0  0.41994  0.16683  0.63569  1.0000
  C   C97       1.0  0.26326  0.38192  0.47917  1.0000
  C   C98       1.0  0.47745  0.16278  0.58190  1.0000
  H   H102      1.0  0.21856  0.44041  0.46060  1.0000
  C   C99       1.0  0.45813  0.42937  0.45533  1.0000
  C   C100      1.0  0.37923  0.00038  0.62607  1.0000
  C   C101      1.0  0.41016  0.03169  0.33893  1.0000
  C   C102      1.0  0.43429  0.41262  0.45813  1.0000
  H   H103      1.0  0.46629  0.05690  0.33674  1.0000
  C   C103      1.0  0.23511  0.42186  0.46000  1.0000
  C   C104      1.0  0.27755  0.37448  0.45877  1.0000
  N   N9        1.0  0.24956  0.41475  0.44014  1.0000
  H   H104      1.0  0.11152  0.47530  0.37211  1.0000
  H   H105      1.0  0.16688  0.47117  0.58813  1.0000
  S   S32       1.0  0.46389  0.14149  0.64080  1.0000
  C   C105      1.0  0.47000  0.99598  0.62955  1.0000
  N   N10       1.0  0.46967  0.16344  0.55980  1.0000
  H   H106      1.0  0.46632  0.11743  0.55861  1.0000
  H   H107      1.0  0.47492  0.19924  0.39529  1.0000
  C   C106      1.0  0.42337  0.98870  0.36274  1.0000
  H   H108      1.0  0.43542  0.41660  0.53379  1.0000
  H   H109      1.0  0.42218  0.99607  0.39843  1.0000
  C   C107      1.0  0.48287  0.21280  0.55539  1.0000
  H   H110      1.0  0.46014  0.98473  0.64365  1.0000
  H   H111      1.0  0.40679  0.04163  0.32235  1.0000
  C   C108      1.0  0.47296  0.43703  0.47420  1.0000
  H   H112      1.0  0.46447  0.18928  0.52938  1.0000
  H   H113      1.0  0.46558  0.43585  0.43858  1.0000
  H   H114      1.0  0.47650  0.43219  0.51010  1.0000
  C   C109      1.0  0.48335  0.03973  0.34273  1.0000
  C   C110      1.0  0.47203  0.18810  0.54659  1.0000
  C   C111      1.0  0.48805  0.18721  0.59132  1.0000
  C   C112      1.0  0.49073  0.21235  0.57795  1.0000
  S   S33       1.0  0.42858  0.08797  0.66304  1.0000
  H   H115      1.0  0.31662  0.99832  0.74462  1.0000
  C   C113      1.0  0.02102  0.01005  0.96973  1.0000
  Fe  Fe16      1.0  0.27501  0.01965  0.82665  1.0000
  S   S34       1.0  0.14921  0.03696  0.97056  1.0000
  S   S35       1.0  0.23166  0.03330  0.84501  1.0000
  Fe  Fe17      1.0  0.32224  0.04134  0.79410  1.0000
  C   C114      1.0  0.41359  0.02774  0.76629  1.0000
  S   S36       1.0  0.34653  0.07603  0.77596  1.0000
  H   H116      1.0  0.02865  0.12301  0.93828  1.0000
  S   S37       1.0  0.34549  0.09976  0.67057  1.0000
  C   C115      1.0  0.41405  0.01645  0.72679  1.0000
  C   C116      1.0  0.19838  0.98978  0.91046  1.0000
  S   S38       1.0  0.27783  0.02600  0.78869  1.0000
  S   S39       1.0  0.31743  0.03956  0.83196  1.0000
  C   C117      1.0  0.46002  0.99821  0.84113  1.0000
  H   H117      1.0  0.34914  0.00652  0.71153  1.0000
  C   C118      1.0  0.03622  0.41612  0.73881  1.0000
  H   H118      1.0  0.30369  0.07447  0.70094  1.0000
  H   H119      1.0  0.02671  0.36104  0.74283  1.0000
  C   C119      1.0  0.00154  0.13543  0.96749  1.0000
  H   H120      1.0  0.48262  0.00692  0.70560  1.0000
  C   C120      1.0  0.99360  0.36913  0.69009  1.0000
  C   C121      1.0  0.23612  0.99247  0.88052  1.0000
  C   C122      1.0  0.39867  0.02049  0.74735  1.0000
  C   C123      1.0  0.23440  0.03933  0.93733  1.0000
  C   C124      1.0  0.01862  0.41879  0.77679  1.0000
  S   S40       1.0  0.00880  0.41370  0.66274  1.0000
  C   C125      1.0  0.37595  0.16235  0.73416  1.0000
  S   S41       1.0  0.40411  0.15750  0.67129  1.0000
  C   C126      1.0  0.45849  0.02581  0.74381  1.0000
  H   H121      1.0  0.04866  0.03383  0.92717  1.0000
  C   C127      1.0  0.44372  0.03040  0.76457  1.0000
  C   C128      1.0  0.21699  0.98415  0.79253  1.0000
  H   H122      1.0  0.04292  0.40340  0.72407  1.0000
  H   H123      1.0  0.41755  0.13321  0.78711  1.0000
  C   C129      1.0  0.01891  0.44927  0.77606  1.0000
  C   C130      1.0  0.42681  0.03867  0.82738  1.0000
  C   C131      1.0  0.40284  0.02243  0.83227  1.0000
  N   N11       1.0  0.36078  0.15225  0.75251  1.0000
  H   H124      1.0  0.42318  0.06052  0.82001  1.0000
  Fe  Fe18      1.0  0.38733  0.11740  0.65764  1.0000
  C   C132      1.0  0.22017  0.01697  0.87080  1.0000
  C   C133      1.0  0.19357  0.02806  0.88124  1.0000
  C   C134      1.0  0.18282  0.01471  0.90108  1.0000
  N   N12       1.0  0.22850  0.02477  0.97629  1.0000
  H   H125      1.0  0.38088  0.03183  0.82860  1.0000
  H   H126      1.0  0.33707  0.00624  0.65670  1.0000
  H   H127      1.0  0.18108  0.04703  0.87387  1.0000
  H   H128      1.0  0.16230  0.02348  0.90892  1.0000
  H   H129      1.0  0.01393  0.02705  0.91545  1.0000
  H   H130      1.0  0.36450  0.16983  0.71898  1.0000
  C   C135      1.0  0.34727  0.07803  0.74626  1.0000
  C   C136      1.0  0.37184  0.08825  0.73504  1.0000
  C   C137      1.0  0.37164  0.09420  0.71176  1.0000
  C   C138      1.0  0.34689  0.08979  0.69943  1.0000
  C   C139      1.0  0.32284  0.07813  0.71042  1.0000
  C   C140      1.0  0.32305  0.07215  0.73382  1.0000
  H   H131      1.0  0.39097  0.09213  0.74444  1.0000
  H   H132      1.0  0.39041  0.10296  0.70350  1.0000
  S   S42       1.0  0.09996  0.99506  0.95438  1.0000
  H   H133      1.0  0.30402  0.06418  0.74233  1.0000
  Fe  Fe19      1.0  0.09993  0.03962  0.96935  1.0000
  Fe  Fe20      1.0  0.02489  0.45859  0.65956  1.0000
  C   C141      1.0  0.23504  0.01759  0.95439  1.0000
  H   H134      1.0  0.41867  0.16972  0.71968  1.0000
  C   C142      1.0  0.02795  0.46319  0.75623  1.0000
  C   C143      1.0  0.45923  0.01549  0.70344  1.0000
  C   C144      1.0  0.03667  0.44658  0.73745  1.0000
  H   H135      1.0  0.00335  0.35524  0.67689  1.0000
  H   H136      1.0  0.03662  0.99749  0.92833  1.0000
  C   C145      1.0  0.40656  0.16225  0.73439  1.0000
  H   H137      1.0  0.40169  0.03182  0.78216  1.0000
  H   H138      1.0  0.00733  0.36428  0.76927  1.0000
  H   H139      1.0  0.21250  0.09799  0.96943  1.0000
  H   H140      1.0  0.99187  0.06769  0.93906  1.0000
  H   H141      1.0  0.04713  0.36109  0.76851  1.0000
  C   C146      1.0  0.04402  0.09866  0.96795  1.0000
  N   N13       1.0  0.44367  0.01878  0.72530  1.0000
  H   H142      1.0  0.18588  0.99204  0.83073  1.0000
  S   S43       1.0  0.46838  0.12819  0.70815  1.0000
  S   S44       1.0  0.06965  0.46742  0.67045  1.0000
  C   C147      1.0  0.99590  0.05284  0.95341  1.0000
  H   H143      1.0  0.48185  0.02801  0.74259  1.0000
  C   C148      1.0  0.02516  0.11947  0.95622  1.0000
  H   H144      1.0  0.44552  0.15059  0.75345  1.0000
  C   C149      1.0  0.40599  0.14186  0.77227  1.0000
  H   H145      1.0  0.32826  0.04484  0.65189  1.0000
  H   H146      1.0  0.32266  0.14311  0.73527  1.0000
  H   H147      1.0  0.01173  0.40807  0.79232  1.0000
  H   H148      1.0  0.31788  0.17450  0.75343  1.0000
  H   H149      1.0  0.45555  0.03626  0.77917  1.0000
  H   H150      1.0  0.44900  0.99993  0.69272  1.0000
  C   C150      1.0  0.42166  0.15161  0.75347  1.0000
  C   C151      1.0  0.37532  0.14264  0.77159  1.0000
  N   N14       1.0  0.02691  0.40267  0.75825  1.0000
  C   C152      1.0  0.32877  0.15198  0.75158  1.0000
  Fe  Fe21      1.0  0.44625  0.12857  0.67481  1.0000
  H   H151      1.0  0.36336  0.13442  0.78611  1.0000
  N   N15       1.0  0.01465  0.02791  0.95132  1.0000
  C   C153      1.0  0.22627  0.06841  0.94271  1.0000
  H   H152      1.0  0.45864  0.03713  0.69448  1.0000
  C   C154      1.0  0.45542  0.02645  0.83158  1.0000
  H   H153      1.0  0.32018  0.13748  0.76505  1.0000
  S   S45       1.0  0.07208  0.07762  0.95285  1.0000
  C   C155      1.0  0.99386  0.39951  0.68791  1.0000
  H   H154      1.0  0.21696  0.00728  0.79775  1.0000
  H   H155      1.0  0.40214  0.01172  0.71198  1.0000
  Fe  Fe22      1.0  0.14903  0.99114  0.95873  1.0000
  S   S46       1.0  0.48528  0.04642  0.82436  1.0000
  C   C156      1.0  0.02717  0.37070  0.75977  1.0000
  C   C157      1.0  0.22062  0.05330  0.98174  1.0000
  H   H156      1.0  0.01234  0.46193  0.79085  1.0000
  C   C158      1.0  0.34474  0.98443  0.71641  1.0000
  C   C159      1.0  0.34674  0.02737  0.65362  1.0000
  Fe  Fe23      1.0  0.33833  0.99352  0.82903  1.0000
  S   S47       1.0  0.34596  0.99669  0.79186  1.0000
  C   C160      1.0  0.02914  0.02121  0.92948  1.0000
  H   H157      1.0  0.23954  0.03355  0.91997  1.0000
  H   H158      1.0  0.01873  0.47111  0.86150  1.0000
  C   C161      1.0  0.40732  0.99439  0.84220  1.0000
  H   H159      1.0  0.22504  0.08532  0.92952  1.0000
  H   H160      1.0  0.04380  0.45730  0.72198  1.0000
  H   H161      1.0  0.24028  0.99488  0.94991  1.0000
  H   H162      1.0  0.35941  0.03189  0.66864  1.0000
  H   H163      1.0  0.03619  0.99051  0.96819  1.0000
  H   H164      1.0  0.48209  0.98874  0.84453  1.0000
  H   H165      1.0  0.37512  0.01900  0.74845  1.0000
  C   C162      1.0  0.21931  0.07552  0.96505  1.0000
  H   H166      1.0  0.25664  0.98370  0.87268  1.0000
  C   C163      1.0  0.99995  0.57600  0.25434  1.0000
  Fe  Fe24      1.0  0.46425  0.90032  0.29409  1.0000
  S   S48       1.0  0.43121  0.93855  0.30030  1.0000
  H   H167      1.0  0.37020  0.85667  0.24535  1.0000
  S   S49       1.0  0.47804  0.97591  0.18008  1.0000
  Fe  Fe25      1.0  0.39813  0.90600  0.29739  1.0000
  S   S50       1.0  0.35636  0.92059  0.27937  1.0000
  S   S51       1.0  0.00439  0.49283  0.29553  1.0000
  S   S52       1.0  0.43107  0.86830  0.28843  1.0000
  C   C164      1.0  0.33887  0.85397  0.29495  1.0000
  Fe  Fe26      1.0  0.02200  0.53605  0.29967  1.0000
  C   C165      1.0  0.01250  0.80307  0.02902  1.0000
  H   H168      1.0  0.19108  0.96522  0.09309  1.0000
  C   C166      1.0  0.07555  0.59010  0.25689  1.0000
  H   H169      1.0  0.44178  0.94457  0.21033  1.0000
  S   S53       1.0  0.06870  0.51951  0.29205  1.0000
  C   C167      1.0  0.04580  0.92177  0.99230  1.0000
  Fe  Fe27      1.0  0.33304  0.97673  0.15905  1.0000
  S   S54       1.0  0.36308  0.93936  0.17332  1.0000
  S   S55       1.0  0.99996  0.57716  0.28388  1.0000
  H   H170      1.0  0.33400  0.87161  0.25331  1.0000
  S   S56       1.0  0.14639  0.97103  0.99390  1.0000
  H   H171      1.0  0.04870  0.61169  0.28281  1.0000
  H   H172      1.0  0.02439  0.53350  0.25248  1.0000
  H   H173      1.0  0.45628  0.92692  0.15291  1.0000
  C   C168      1.0  0.01264  0.55085  0.21946  1.0000
  H   H174      1.0  0.45144  0.91881  0.24713  1.0000
  C   C169      1.0  0.01652  0.91614  0.99718  1.0000
  H   H175      1.0  0.31647  0.95090  0.24845  1.0000
  C   C170      1.0  0.06922  0.59857  0.27909  1.0000
  C   C171      1.0  0.10136  0.57238  0.25203  1.0000
  S   S57       1.0  0.05893  0.95356  0.00328  1.0000
  H   H176      1.0  0.32191  0.87174  0.29185  1.0000
  C   C172      1.0  0.36170  0.93535  0.20292  1.0000
  C   C173      1.0  0.38513  0.91966  0.21407  1.0000
  C   C174      1.0  0.38419  0.91592  0.23766  1.0000
  C   C175      1.0  0.35935  0.92701  0.25008  1.0000
  C   C176      1.0  0.33583  0.94242  0.23893  1.0000
  C   C177      1.0  0.33721  0.94702  0.21546  1.0000
  H   H177      1.0  0.40403  0.91034  0.20443  1.0000
  H   H178      1.0  0.40228  0.90373  0.24612  1.0000
  H   H179      1.0  0.31894  0.95891  0.20705  1.0000
  H   H180      1.0  0.03492  0.49221  0.13145  1.0000
  N   N16       1.0  0.35532  0.84160  0.27744  1.0000
  C   C178      1.0  0.39875  0.97866  0.10213  1.0000
  C   C179      1.0  0.43297  0.93575  0.15082  1.0000
  N   N17       1.0  0.08806  0.58962  0.29599  1.0000
  H   H181      1.0  0.02316  0.53206  0.21078  1.0000
  H   H182      1.0  0.99280  0.75893  0.07272  1.0000
  H   H183      1.0  0.42563  0.94806  0.16614  1.0000
  C   C180      1.0  0.46357  0.94314  0.21718  1.0000
  H   H184      1.0  0.33983  0.83400  0.24492  1.0000
  H   H185      1.0  0.03014  0.76057  0.04143  1.0000
  Fe  Fe28      1.0  0.09705  0.97882  0.99040  1.0000
  C   C181      1.0  0.11343  0.57220  0.29140  1.0000
  H   H186      1.0  0.10615  0.56511  0.23496  1.0000
  H   H187      1.0  0.47333  0.96735  0.13151  1.0000
  C   C182      1.0  0.12055  0.56345  0.26934  1.0000
  N   N18       1.0  0.42947  0.95520  0.13086  1.0000
  H   H188      1.0  0.06009  0.59660  0.24367  1.0000
  C   C183      1.0  0.34948  0.85137  0.25412  1.0000
  H   H189      1.0  0.14031  0.54905  0.26587  1.0000
  C   C184      1.0  0.46896  0.92864  0.23802  1.0000
  C   C185      1.0  0.01345  0.77878  0.04375  1.0000
  H   H190      1.0  0.02838  0.80401  0.01510  1.0000
  H   H191      1.0  0.41960  0.91685  0.14972  1.0000
  H   H192      1.0  0.39028  0.80994  0.26761  1.0000
  C   C186      1.0  0.99262  0.77791  0.06135  1.0000
  H   H193      1.0  0.00224  0.93185  0.00661  1.0000
  C   C187      1.0  0.02102  0.48604  0.14553  1.0000
  C   C188      1.0  0.01341  0.55170  0.24307  1.0000
  C   C189      1.0  0.48605  0.95642  0.20547  1.0000
  S   S58       1.0  0.99652  0.57220  0.17767  1.0000
  H   H194      1.0  0.38433  0.94829  0.12733  1.0000
  C   C190      1.0  0.38290  0.80948  0.30348  1.0000
  C   C191      1.0  0.40276  0.95952  0.12081  1.0000
  C   C192      1.0  0.00559  0.89027  0.99010  1.0000
  C   C193      1.0  0.99785  0.57397  0.20713  1.0000
  C   C194      1.0  0.37704  0.81955  0.28145  1.0000
  H   H195      1.0  0.40059  0.79244  0.30673  1.0000
  C   C195      1.0  0.99587  0.50419  0.15163  1.0000
  H   H196      1.0  0.37748  0.98252  0.09433  1.0000
  C   C196      1.0  0.45241  0.97015  0.12313  1.0000
  H   H197      1.0  0.12776  0.56407  0.30495  1.0000
  S   S59       1.0  0.32210  0.98252  0.12242  1.0000
  H   H198      1.0  0.19294  0.53908  0.60059  1.0000
  S   S60       1.0  0.41915  0.92403  0.63020  1.0000
  H   H199      1.0  0.34748  0.70836  0.56378  1.0000
  H   H200      1.0  0.42007  0.89064  0.42387  1.0000
  S   S61       1.0  0.39778  0.84749  0.61335  1.0000
  C   C197      1.0  0.10929  0.52299  0.58149  1.0000
  H   H201      1.0  0.37485  0.98002  0.63466  1.0000
  Fe  Fe29      1.0  0.43028  0.73797  0.51035  1.0000
  S   S62       1.0  0.38375  0.74773  0.49942  1.0000
  S   S63       1.0  0.45225  0.75855  0.53925  1.0000
  Fe  Fe30      1.0  0.44379  0.69135  0.47431  1.0000
  S   S64       1.0  0.39823  0.69851  0.46029  1.0000
  C   C198      1.0  0.37746  0.58900  0.50080  1.0000
  Fe  Fe31      1.0  0.40323  0.74656  0.46395  1.0000
  S   S65       1.0  0.38753  0.78474  0.44053  1.0000
  Fe  Fe32      1.0  0.38291  0.69888  0.49653  1.0000
  S   S66       1.0  0.34866  0.67187  0.51326  1.0000
  S   S67       1.0  0.45002  0.73945  0.47509  1.0000
  S   S68       1.0  0.42822  0.68909  0.51035  1.0000
  Fe  Fe33      1.0  0.19877  0.53235  0.50546  1.0000
  Fe  Fe34      1.0  0.24750  0.55139  0.47330  1.0000
  C   C199      1.0  0.16361  0.50360  0.56103  1.0000
  S   S69       1.0  0.27407  0.58769  0.45890  1.0000
  H   H202      1.0  0.11909  0.60374  0.59509  1.0000
  S   S70       1.0  0.25549  0.50656  0.45804  1.0000
  S   S71       1.0  0.19815  0.55259  0.47036  1.0000
  S   S72       1.0  0.24749  0.53471  0.50930  1.0000
  C   C200      1.0  0.07974  0.59683  0.31934  1.0000
  S   S73       1.0  0.43739  0.81340  0.34193  1.0000
  S   S74       1.0  0.43660  0.95171  0.36630  1.0000
  S   S75       1.0  0.02655  0.53112  0.33708  1.0000
  N   N19       1.0  0.43901  0.84756  0.43247  1.0000
  S   S76       1.0  0.10977  0.53132  0.34681  1.0000
  H   H203      1.0  0.09929  0.59561  0.33021  1.0000
  H   H204      1.0  0.18344  0.49566  0.62605  1.0000
  S   S77       1.0  0.47408  0.65552  0.45774  1.0000
  H   H205      1.0  0.34874  0.57774  0.47512  1.0000
  C   C201      1.0  0.14771  0.53497  0.38167  1.0000
  C   C202      1.0  0.40054  0.79129  0.41264  1.0000
  C   C203      1.0  0.42087  0.77145  0.40163  1.0000
  C   C204      1.0  0.43159  0.77829  0.37980  1.0000
  C   C205      1.0  0.42258  0.80521  0.36902  1.0000
  C   C206      1.0  0.40218  0.82498  0.38002  1.0000
  C   C207      1.0  0.39100  0.81789  0.40161  1.0000
  H   H206      1.0  0.42832  0.75087  0.40992  1.0000
  H   H207      1.0  0.44727  0.76280  0.37136  1.0000
  H   H208      1.0  0.39501  0.84574  0.37193  1.0000
  H   H209      1.0  0.37519  0.83331  0.40998  1.0000
  C   C208      1.0  0.29293  0.61212  0.47459  1.0000
  C   C209      1.0  0.29443  0.60996  0.49811  1.0000
  C   C210      1.0  0.31108  0.62881  0.50974  1.0000
  C   C211      1.0  0.32678  0.64966  0.49800  1.0000
  C   C212      1.0  0.32511  0.65195  0.47451  1.0000
  C   C213      1.0  0.30809  0.63343  0.46293  1.0000
  H   H210      1.0  0.28282  0.59374  0.50732  1.0000
  H   H211      1.0  0.31206  0.62698  0.52791  1.0000
  H   H212      1.0  0.33676  0.66812  0.46529  1.0000
  H   H213      1.0  0.30679  0.63550  0.44477  1.0000
  H   H214      1.0  0.40942  0.97874  0.60172  1.0000
  H   H215      1.0  0.09147  0.52429  0.41561  1.0000
  H   H216      1.0  0.08850  0.53079  0.58942  1.0000
  C   C214      1.0  0.10653  0.51053  0.44878  1.0000
  C   C215      1.0  0.14689  0.52787  0.55173  1.0000
  H   H217      1.0  0.10640  0.55595  0.55476  1.0000
  C   C216      1.0  0.41423  0.82640  0.59082  1.0000
  C   C217      1.0  0.39625  0.81722  0.57401  1.0000
  C   C218      1.0  0.40776  0.79751  0.55742  1.0000
  C   C219      1.0  0.43743  0.78659  0.55758  1.0000
  C   C220      1.0  0.45559  0.79650  0.57394  1.0000
  C   C221      1.0  0.44413  0.81637  0.59041  1.0000
  H   H218      1.0  0.37311  0.82489  0.57415  1.0000
  H   H219      1.0  0.39354  0.79019  0.54491  1.0000
  C   C222      1.0  0.46917  0.84961  0.39118  1.0000
  H   H220      1.0  0.45824  0.82315  0.60323  1.0000
  Fe  Fe35      1.0  0.01121  0.52081  0.64235  1.0000
  C   C223      1.0  0.40199  0.60347  0.50555  1.0000
  H   H221      1.0  0.36689  0.62640  0.43260  1.0000
  C   C224      1.0  0.43521  0.87214  0.41886  1.0000
  C   C225      1.0  0.47306  0.82471  0.40522  1.0000
  S   S78       1.0  0.39667  0.89420  0.33446  1.0000
  C   C226      1.0  0.36438  0.75300  0.59040  1.0000
  H   H222      1.0  0.48018  0.84997  0.37474  1.0000
  S   S79       1.0  0.46901  0.88800  0.33071  1.0000
  C   C227      1.0  0.12243  0.54750  0.47148  1.0000
  Fe  Fe36      1.0  0.25281  0.49004  0.49385  1.0000
  C   C228      1.0  0.11645  0.56854  0.45429  1.0000
  C   C229      1.0  0.10515  0.56020  0.43410  1.0000
  H   H223      1.0  0.43636  0.62809  0.49152  1.0000
  H   H224      1.0  0.41969  0.76751  0.62427  1.0000
  Fe  Fe37      1.0  0.07258  0.51115  0.32954  1.0000
  H   H225      1.0  0.13573  0.50577  0.50066  1.0000
  H   H226      1.0  0.44676  0.89291  0.38711  1.0000
  H   H227      1.0  0.10085  0.57613  0.42044  1.0000
  C   C230      1.0  0.37211  0.60331  0.43848  1.0000
  H   H228      1.0  0.34131  0.75972  0.58772  1.0000
  H   H229      1.0  0.10419  0.48806  0.49298  1.0000
  N   N20       1.0  0.37980  0.73391  0.57610  1.0000
  H   H230      1.0  0.06478  0.58091  0.32632  1.0000
  C   C231      1.0  0.40910  0.72599  0.57915  1.0000
  C   C232      1.0  0.37839  0.76500  0.60815  1.0000
  C   C233      1.0  0.42377  0.73750  0.59676  1.0000
  C   C234      1.0  0.40830  0.75725  0.61125  1.0000
  C   C235      1.0  0.42203  0.84631  0.45376  1.0000
  H   H231      1.0  0.37108  0.81470  0.33860  1.0000
  H   H232      1.0  0.42167  0.71169  0.56740  1.0000
  S   S80       1.0  0.47031  0.87106  0.64355  1.0000
  H   H233      1.0  0.48446  0.98095  0.34322  1.0000
  H   H234      1.0  0.37991  0.70870  0.54612  1.0000
  C   C236      1.0  0.41711  0.61698  0.48806  1.0000
  S   S81       1.0  0.20415  0.48650  0.49321  1.0000
  H   H235      1.0  0.17779  0.53855  0.40884  1.0000
  H   H236      1.0  0.41857  0.62764  0.45266  1.0000
  H   H237      1.0  0.40910  0.60451  0.52276  1.0000
  Fe  Fe38      1.0  0.42187  0.87525  0.63696  1.0000
  C   C237      1.0  0.13365  0.55027  0.63514  1.0000
  C   C238      1.0  0.36818  0.58858  0.47856  1.0000
  H   H238      1.0  0.47858  0.78825  0.57421  1.0000
  H   H239      1.0  0.13120  0.55421  0.48711  1.0000
  C   C239      1.0  0.12586  0.48918  0.38006  1.0000
  C   C240      1.0  0.36462  0.72231  0.55734  1.0000
  C   C241      1.0  0.09981  0.53110  0.43139  1.0000
  Fe  Fe39      1.0  0.43288  0.92361  0.33645  1.0000
  H   H240      1.0  0.35410  0.74055  0.54677  1.0000
  H   H241      1.0  0.36518  0.57886  0.51429  1.0000
  H   H242      1.0  0.44729  0.73232  0.59840  1.0000
  H   H243      1.0  0.36656  0.78127  0.61880  1.0000
  H   H244      1.0  0.38919  0.59237  0.42709  1.0000
  C   C242      1.0  0.45769  0.82401  0.42593  1.0000
  S   S82       1.0  0.16030  0.54848  0.52862  1.0000
  N   N21       1.0  0.38266  0.60265  0.46161  1.0000
  C   C243      1.0  0.11951  0.53721  0.56185  1.0000
  C   C244      1.0  0.45024  0.87357  0.39805  1.0000
  Fe  Fe40      1.0  0.20616  0.50656  0.45823  1.0000
  C   C245      1.0  0.16342  0.52469  0.40092  1.0000
  C   C246      1.0  0.15796  0.57320  0.59596  1.0000
  H   H245      1.0  0.35163  0.59213  0.43728  1.0000
  C   C247      1.0  0.12883  0.51732  0.37113  1.0000
  C   C248      1.0  0.16066  0.49643  0.40968  1.0000
  H   H246      1.0  0.15028  0.55674  0.37487  1.0000
  H   H247      1.0  0.12087  0.59107  0.45658  1.0000
  C   C249      1.0  0.12468  0.49670  0.48630  1.0000
  C   C250      1.0  0.40698  0.61652  0.46608  1.0000
  Fe  Fe41      1.0  0.46652  0.92003  0.63926  1.0000
  N   N22       1.0  0.11781  0.51884  0.46846  1.0000
  C   C251      1.0  0.13087  0.58567  0.60424  1.0000
  Fe  Fe42      1.0  0.43271  0.85927  0.32608  1.0000
  C   C252      1.0  0.17552  0.51264  0.63839  1.0000
  H   H248      1.0  0.09728  0.58335  0.63037  1.0000
  H   H249      1.0  0.42799  0.82569  0.46362  1.0000
  H   H250      1.0  0.33169  0.85486  0.33108  1.0000
  H   H251      1.0  0.39819  0.84683  0.45025  1.0000
  C   C253      1.0  0.12652  0.49940  0.59128  1.0000
  H   H252      1.0  0.42584  0.86502  0.46442  1.0000
  H   H253      1.0  0.18470  0.49616  0.55341  1.0000
  N   N23       1.0  0.16003  0.53793  0.62673  1.0000
  H   H254      1.0  0.16721  0.58126  0.58018  1.0000
  Fe  Fe43      1.0  0.07349  0.49238  0.63736  1.0000
  C   C254      1.0  0.17236  0.54924  0.60752  1.0000
  H   H255      1.0  0.45993  0.80410  0.43631  1.0000
  H   H256      1.0  0.06839  0.61929  0.32034  1.0000
  C   C255      1.0  0.15349  0.48953  0.58075  1.0000
  C   C256      1.0  0.11861  0.57422  0.62399  1.0000
  C   C257      1.0  0.49025  0.98051  0.61506  1.0000
  C   C258      1.0  0.36638  0.82208  0.32142  1.0000
  Fe  Fe44      1.0  0.01334  0.48599  0.33227  1.0000
  H   H257      1.0  0.48699  0.80563  0.39969  1.0000
  S   S83       1.0  0.11689  0.48350  0.61769  1.0000
  C   C259      1.0  0.34427  0.84452  0.31720  1.0000
  H   H258      1.0  0.10338  0.48773  0.44621  1.0000
  H   H259      1.0  0.19438  0.51954  0.64761  1.0000
  S   S84       1.0  0.01236  0.83494  0.97151  1.0000
  Fe  Fe45      1.0  0.45715  0.88059  0.67963  1.0000
  S   S85       1.0  0.40872  0.88053  0.67385  1.0000
  N   N24       1.0  0.41788  0.90713  0.76285  1.0000
  Fe  Fe46      1.0  0.41043  0.92879  0.66739  1.0000
  S   S86       1.0  0.38208  0.96725  0.68161  1.0000
  S   S87       1.0  0.45789  0.92898  0.67572  1.0000
  S   S88       1.0  0.05337  0.52149  0.71963  1.0000
  H   H260      1.0  0.99892  0.58433  0.77499  1.0000
  C   C260      1.0  0.19978  0.97147  0.83061  1.0000
  H   H261      1.0  0.06787  0.85900  0.96464  1.0000
  H   H262      1.0  0.25011  0.93312  0.79796  1.0000
  H   H263      1.0  0.40147  0.96050  0.80077  1.0000
  H   H264      1.0  0.00212  0.79561  0.92840  1.0000
  H   H265      1.0  0.08666  0.90525  0.97634  1.0000
  C   C261      1.0  0.00601  0.60099  0.71903  1.0000
  C   C262      1.0  0.44000  0.89095  0.77397  1.0000
  S   S89       1.0  0.05473  0.53530  0.65197  1.0000
  H   H266      1.0  0.38636  0.89049  0.74235  1.0000
  H   H267      1.0  0.46776  0.88768  0.80304  1.0000
  H   H268      1.0  0.23735  0.95955  0.90730  1.0000
  C   C263      1.0  0.03202  0.55355  0.72794  1.0000
  C   C264      1.0  0.02337  0.57568  0.71213  1.0000
  C   C265      1.0  0.40872  0.89806  0.74083  1.0000
  H   H269      1.0  0.42400  0.87996  0.73386  1.0000
  C   C266      1.0  0.41256  0.94113  0.79311  1.0000
  H   H270      1.0  0.25158  0.89997  0.83155  1.0000
  H   H271      1.0  0.03014  0.57338  0.69462  1.0000
  H   H272      1.0  0.40850  0.91668  0.72841  1.0000
  H   H273      1.0  0.99948  0.61813  0.70678  1.0000
  C   C267      1.0  0.31945  0.95149  0.74116  1.0000
  H   H274      1.0  0.45081  0.87117  0.76675  1.0000
  C   C268      1.0  0.43573  0.92528  0.80416  1.0000
  H   H275      1.0  0.18591  0.95892  0.86430  1.0000
  C   C269      1.0  0.44951  0.89999  0.79462  1.0000
  Fe  Fe47      1.0  0.04698  0.50918  0.68380  1.0000
  S   S90       1.0  0.29675  0.94571  0.76495  1.0000
  H   H276      1.0  0.19688  0.98188  0.78292  1.0000
  H   H277      1.0  0.44291  0.93248  0.82017  1.0000
  H   H278      1.0  0.01018  0.52399  0.86932  1.0000
  C   C270      1.0  0.35749  0.96066  0.70409  1.0000
  C   C271      1.0  0.35069  0.93231  0.71003  1.0000
  C   C272      1.0  0.33144  0.92777  0.72842  1.0000
  H   H279      1.0  0.35995  0.91393  0.70031  1.0000
  H   H280      1.0  0.32606  0.90586  0.73293  1.0000
  C   C273      1.0  0.40379  0.93167  0.77232  1.0000
  S   S91       1.0  0.18545  0.97167  0.93501  1.0000
  C   C274      1.0  0.00200  0.77151  0.92666  1.0000
  C   C275      1.0  0.22509  0.97877  0.90011  1.0000
  C   C276      1.0  0.00542  0.58188  0.75743  1.0000
  C   C277      1.0  0.05332  0.87506  0.97351  1.0000
  C   C278      1.0  0.23582  0.93879  0.81243  1.0000
  C   C279      1.0  0.23669  0.91987  0.83137  1.0000
  C   C280      1.0  0.99680  0.60405  0.74165  1.0000
  H   H281      1.0  0.38561  0.94399  0.76383  1.0000
  H   H282      1.0  0.43944  0.96095  0.85486  1.0000
  C   C281      1.0  0.06403  0.90132  0.98007  1.0000
  C   C282      1.0  0.32620  0.97982  0.73513  1.0000
  Fe  Fe48      1.0  0.30160  0.98094  0.78956  1.0000
  H   H283      1.0  0.03029  0.54009  0.76302  1.0000
  C   C283      1.0  0.02327  0.55685  0.75063  1.0000
  C   C284      1.0  0.21857  0.92705  0.85012  1.0000
  H   H284      1.0  0.21930  0.91288  0.86509  1.0000
  S   S92       1.0  0.37749  0.97364  0.84777  1.0000
  C   C285      1.0  0.19974  0.95284  0.84967  1.0000
  S   S93       1.0  0.00196  0.49828  0.67537  1.0000
  C   C286      1.0  0.99713  0.51460  0.85695  1.0000
  H   H285      1.0  0.02483  0.76165  0.92933  1.0000
  N   N25       1.0  0.99179  0.76395  0.90454  1.0000
  H   H286      1.0  0.48033  0.91710  0.72197  1.0000
  C   C287      1.0  0.02415  0.86927  0.97864  1.0000
  N   N26       1.0  0.21784  0.96443  0.81240  1.0000
  S   S94       1.0  0.47924  0.85555  0.70864  1.0000
  S   S95       1.0  0.29576  0.97324  0.82680  1.0000
  H   H287      1.0  0.12361  0.54100  0.65015  1.0000
  H   H288      1.0  0.00772  0.71890  0.90850  1.0000
  H   H289      1.0  0.23652  0.97932  0.78112  1.0000
  H   H290      1.0  0.16064  0.50187  0.65048  1.0000
  C   C288      1.0  0.99680  0.73567  0.89760  1.0000
  H   H291      1.0  0.02845  0.48680  0.75543  1.0000
  C   C289      1.0  0.43591  0.98247  0.84692  1.0000
  C   C290      1.0  0.00190  0.48469  0.85259  1.0000
  H   H292      1.0  0.80688  0.45273  0.20598  1.0000
  C   C291      1.0  0.95308  0.42697  0.30328  1.0000
  S   S96       1.0  0.56022  0.06363  0.14125  1.0000
  S   S97       1.0  0.68629  0.99056  0.99121  1.0000
  Fe  Fe49      1.0  0.55239  0.05027  0.17747  1.0000
  S   S98       1.0  0.57642  0.07158  0.20404  1.0000
  Fe  Fe50      1.0  0.51178  0.06071  0.13843  1.0000
  H   H293      1.0  0.53494  0.12619  0.18562  1.0000
  C   C292      1.0  0.61691  0.01050  0.08851  1.0000
  Fe  Fe51      1.0  0.92882  0.34955  0.14132  1.0000
  C   C293      1.0  0.97527  0.38044  0.27711  1.0000
  S   S99       1.0  0.92026  0.30679  0.12501  1.0000
  Fe  Fe52      1.0  0.89373  0.39992  0.16563  1.0000
  S   S100      1.0  0.93355  0.42200  0.17359  1.0000
  S   S101      1.0  0.84896  0.42013  0.17663  1.0000
  Fe  Fe53      1.0  0.94836  0.41076  0.13842  1.0000
  C   C294      1.0  0.68662  0.00408  0.10951  1.0000
  Fe  Fe54      1.0  0.95398  0.37725  0.18262  1.0000
  C   C295      1.0  0.79452  0.08234  0.01777  1.0000
  S   S102      1.0  0.90652  0.39264  0.12933  1.0000
  S   S103      1.0  0.91274  0.35551  0.17736  1.0000
  S   S104      1.0  0.74616  0.01944  0.00384  1.0000
  Fe  Fe55      1.0  0.69746  0.03248  0.00559  1.0000
  S   S105      1.0  0.67582  0.05503  0.03641  1.0000
  Fe  Fe56      1.0  0.90871  0.24714  0.99960  1.0000
  H   H294      1.0  0.81567  0.36977  0.16054  1.0000
  S   S106      1.0  0.91452  0.28830  0.01913  1.0000
  C   C296      1.0  0.65211  0.00690  0.05655  1.0000
  H   H295      1.0  0.94468  0.44517  0.31364  1.0000
  S   S107      1.0  0.85471  0.45151  0.27947  1.0000
  S   S108      1.0  0.89762  0.20285  0.01232  1.0000
  S   S109      1.0  0.59905  0.99266  0.11122  1.0000
  Fe  Fe57      1.0  0.51179  0.00497  0.16636  1.0000
  C   C297      1.0  0.51154  0.13154  0.18884  1.0000
  Fe  Fe58      1.0  0.56436  0.01559  0.13456  1.0000
  S   S110      1.0  0.51828  0.11223  0.29762  1.0000
  H   H296      1.0  0.98063  0.20496  0.06678  1.0000
  H   H297      1.0  0.85350  0.35537  0.16204  1.0000
  H   H298      1.0  0.66647  0.99353  0.04535  1.0000
  C   C298      1.0  0.93420  0.41356  0.28965  1.0000
  H   H299      1.0  0.90745  0.45537  0.13485  1.0000
  H   H300      1.0  0.64630  0.06778  0.14260  1.0000
  S   S111      1.0  0.96701  0.14956  0.00547  1.0000
  N   N27       1.0  0.77119  0.10177  0.02377  1.0000
  C   C299      1.0  0.49157  0.13124  0.17140  1.0000
  Fe  Fe59      1.0  0.93515  0.18487  0.98968  1.0000
  H   H301      1.0  0.91100  0.42133  0.28938  1.0000
  S   S112      1.0  0.56050  0.00207  0.17135  1.0000
  C   C300      1.0  0.84988  0.42896  0.20522  1.0000
  C   C301      1.0  0.68993  0.03290  0.10259  1.0000
  C   C302      1.0  0.85232  0.44372  0.25078  1.0000
  C   C303      1.0  0.87568  0.42665  0.24045  1.0000
  C   C304      1.0  0.87455  0.41941  0.21776  1.0000
  H   H302      1.0  0.70266  0.03735  0.08736  1.0000
  H   H303      1.0  0.89479  0.41900  0.24995  1.0000
  H   H304      1.0  0.89270  0.40604  0.21013  1.0000
  C   C305      1.0  0.91942  0.30175  0.09552  1.0000
  C   C306      1.0  0.92650  0.32357  0.07994  1.0000
  C   C307      1.0  0.92464  0.31909  0.05664  1.0000
  C   C308      1.0  0.91590  0.29276  0.04865  1.0000
  C   C309      1.0  0.90889  0.27088  0.06423  1.0000
  C   C310      1.0  0.91068  0.27539  0.08755  1.0000
  H   H305      1.0  0.93326  0.34395  0.08582  1.0000
  H   H306      1.0  0.93014  0.33614  0.04472  1.0000
  H   H307      1.0  0.90211  0.25054  0.05831  1.0000
  H   H308      1.0  0.90512  0.25841  0.09949  1.0000
  C   C311      1.0  0.55913  0.08087  0.23014  1.0000
  C   C312      1.0  0.57592  0.09260  0.24636  1.0000
  C   C313      1.0  0.56313  0.10165  0.26702  1.0000
  C   C314      1.0  0.53321  0.09969  0.27156  1.0000
  C   C315      1.0  0.51615  0.08774  0.25547  1.0000
  C   C316      1.0  0.52924  0.07793  0.23485  1.0000
  H   H309      1.0  0.59901  0.09482  0.24292  1.0000
  H   H310      1.0  0.57648  0.11065  0.27938  1.0000
  S   S113      1.0  0.96750  0.44627  0.11796  1.0000
  H   H311      1.0  0.51611  0.06879  0.22245  1.0000
  H   H312      1.0  0.86444  0.33252  0.07999  1.0000
  H   H313      1.0  0.72430  0.10993  0.02901  1.0000
  H   H314      1.0  0.82598  0.33199  0.15435  1.0000
  C   C317      1.0  0.65140  0.03745  0.05491  1.0000
  C   C318      1.0  0.63269  0.05443  0.06972  1.0000
  C   C319      1.0  0.61536  0.04106  0.08633  1.0000
  H   H315      1.0  0.63191  0.07807  0.06855  1.0000
  H   H316      1.0  0.60143  0.05440  0.09781  1.0000
  C   C320      1.0  0.66868  0.99869  0.12837  1.0000
  H   H317      1.0  0.51630  0.13851  0.22425  1.0000
  N   N28       1.0  0.83833  0.36260  0.12885  1.0000
  C   C321      1.0  0.83350  0.39129  0.12181  1.0000
  C   C322      1.0  0.84971  0.34172  0.11418  1.0000
  C   C323      1.0  0.83965  0.39961  0.09943  1.0000
  C   C324      1.0  0.85554  0.34918  0.09159  1.0000
  C   C325      1.0  0.85069  0.37834  0.08425  1.0000
  C   C326      1.0  0.83304  0.35446  0.15257  1.0000
  H   H318      1.0  0.82558  0.40804  0.13365  1.0000
  H   H319      1.0  0.79095  0.06058  0.01235  1.0000
  H   H320      1.0  0.83646  0.42247  0.09407  1.0000
  H   H321      1.0  0.49298  0.08607  0.25888  1.0000
  H   H322      1.0  0.85598  0.38446  0.06692  1.0000
  H   H323      1.0  0.80928  0.46631  0.24626  1.0000
  S   S114      1.0  0.51613  0.01369  0.12907  1.0000
  H   H324      1.0  0.64986  0.01171  0.17496  1.0000
  C   C327      1.0  0.74131  0.09267  0.02316  1.0000
  C   C328      1.0  0.63506  0.99354  0.07334  1.0000
  C   C329      1.0  0.77563  0.12971  0.02945  1.0000
  C   C330      1.0  0.94192  0.47731  0.11804  1.0000
  C   C331      1.0  0.80403  0.13880  0.02916  1.0000
  C   C332      1.0  0.82792  0.11912  0.02304  1.0000
  C   C333      1.0  0.94533  0.39015  0.27643  1.0000
  H   H325      1.0  0.69683  0.98602  0.09974  1.0000
  H   H326      1.0  0.75715  0.14545  0.03353  1.0000
  H   H327      1.0  0.73931  0.07289  0.03414  1.0000
  H   H328      1.0  0.80743  0.16133  0.03263  1.0000
  H   H329      1.0  0.84989  0.12630  0.02188  1.0000
  C   C334      1.0  0.98444  0.47068  0.18105  1.0000
  C   C335      1.0  0.82758  0.45349  0.23827  1.0000
  C   C336      1.0  0.82320  0.09067  0.01736  1.0000
  H   H330      1.0  0.73612  0.08742  0.00563  1.0000
  C   C337      1.0  0.82623  0.44578  0.21554  1.0000
  C   C338      1.0  0.98885  0.04198  0.99309  1.0000
  C   C339      1.0  0.65782  0.04978  0.13350  1.0000
  H   H331      1.0  0.85488  0.31920  0.11996  1.0000
  N   N29       1.0  0.65433  0.02142  0.13994  1.0000
  H   H332      1.0  0.62440  0.99541  0.15738  1.0000
  H   H333      1.0  0.96806  0.42762  0.23557  1.0000
  S   S115      1.0  0.50350  0.05227  0.17519  1.0000
  H   H334      1.0  0.67738  0.07841  0.10904  1.0000
  H   H335      1.0  0.98230  0.28542  0.02822  1.0000
  H   H336      1.0  0.61877  0.03356  0.16309  1.0000
  C   C340      1.0  0.91387  0.47583  0.12790  1.0000
  C   C341      1.0  0.63603  0.01525  0.15987  1.0000
  C   C342      1.0  0.98290  0.41672  0.30353  1.0000
  H   H337      1.0  0.49989  0.12594  0.15458  1.0000
  H   H338      1.0  0.97014  0.25911  0.06384  1.0000
  C   C343      1.0  0.67557  0.05595  0.11468  1.0000
  H   H339      1.0  0.93100  0.37976  0.26548  1.0000
  H   H340      1.0  0.84144  0.07550  0.01174  1.0000
  H   H341      1.0  0.97926  0.04780  0.00946  1.0000
  S   S116      1.0  0.97228  0.36717  0.14775  1.0000
  H   H342      1.0  0.52138  0.02229  0.27121  1.0000
  C   C344      1.0  0.51275  0.98282  0.28984  1.0000
  C   C345      1.0  0.51307  0.01307  0.28691  1.0000
  C   C346      1.0  0.50294  0.03136  0.30450  1.0000
  C   C347      1.0  0.50106  0.13820  0.21057  1.0000
  S   S117      1.0  0.97778  0.37014  0.21554  1.0000
  H   H343      1.0  0.50344  0.05481  0.30219  1.0000
  H   H344      1.0  0.98377  0.36250  0.26650  1.0000
  H   H345      1.0  0.97033  0.46455  0.19503  1.0000
  H   H346      1.0  0.51519  0.20190  0.30266  1.0000
  C   C348      1.0  0.98098  0.24713  0.04994  1.0000
  C   C349      1.0  0.98706  0.21679  0.05165  1.0000
  C   C350      1.0  0.98826  0.26198  0.03006  1.0000
  S   S118      1.0  0.82323  0.18902  0.98245  1.0000
  H   H347      1.0  0.49795  0.23177  0.58527  1.0000
  H   H348      1.0  0.50239  0.05050  0.34864  1.0000
  H   H349      1.0  0.71370  0.45364  0.57313  1.0000
  H   H350      1.0  0.78557  0.46932  0.37282  1.0000
  S   S119      1.0  0.78397  0.47946  0.64284  1.0000
  S   S120      1.0  0.67636  0.47164  0.53623  1.0000
  H   H351      1.0  0.53412  0.19428  0.35301  1.0000
  H   H352      1.0  0.49219  0.44917  0.47217  1.0000
  H   H353      1.0  0.92820  0.46366  0.60937  1.0000
  C   C351      1.0  0.55404  0.41930  0.46867  1.0000
  C   C352      1.0  0.55211  0.41519  0.49209  1.0000
  C   C353      1.0  0.53472  0.39398  0.50162  1.0000
  C   C354      1.0  0.51889  0.37685  0.48792  1.0000
  H   H354      1.0  0.50890  0.36782  0.45375  1.0000
  C   C355      1.0  0.53843  0.40196  0.45496  1.0000
  H   H355      1.0  0.56407  0.42828  0.50283  1.0000
  H   H356      1.0  0.53341  0.39094  0.51975  1.0000
  S   S121      1.0  0.86767  0.47372  0.62390  1.0000
  H   H357      1.0  0.64122  0.47100  0.59256  1.0000
  H   H358      1.0  0.68758  0.47547  0.37206  1.0000
  H   H359      1.0  0.53986  0.40493  0.43683  1.0000
  C   C356      1.0  0.75596  0.45952  0.40004  1.0000
  H   H360      1.0  0.82954  0.47350  0.57418  1.0000
  C   C357      1.0  0.91877  0.47717  0.35260  1.0000
  H   H361      1.0  0.91468  0.42619  0.63914  1.0000
  C   C358      1.0  0.52090  0.38086  0.46450  1.0000
  S   S122      1.0  0.57473  0.44637  0.45575  1.0000
  H   H362      1.0  0.51851  0.98324  0.58561  1.0000
  S   S123      1.0  0.49577  0.35193  0.50092  1.0000
  C   C359      1.0  0.77690  0.47582  0.38932  1.0000
  H   H363      1.0  0.72634  0.45676  0.42880  1.0000
  N   N30       1.0  0.49282  0.01988  0.32443  1.0000
  H   H364      1.0  0.50657  0.27885  0.37951  1.0000
  C   C360      1.0  0.74342  0.46856  0.42070  1.0000
  H   H365      1.0  0.74861  0.44075  0.39187  1.0000
  C   C361      1.0  0.49239  0.99021  0.32743  1.0000
  H   H366      1.0  0.50412  0.03595  0.57818  1.0000
  S   S124      1.0  0.65208  0.47317  0.47246  1.0000
  C   C362      1.0  0.50606  0.26295  0.36633  1.0000
  C   C363      1.0  0.49473  0.02496  0.59263  1.0000
  C   C364      1.0  0.52311  0.23612  0.36797  1.0000
  C   C365      1.0  0.71090  0.47735  0.57275  1.0000
  C   C366      1.0  0.52104  0.21521  0.35148  1.0000
  H   H367      1.0  0.91778  0.45381  0.35130  1.0000
  C   C367      1.0  0.50285  0.99514  0.59681  1.0000
  H   H368      1.0  0.53719  0.23132  0.38229  1.0000
  S   S125      1.0  0.97849  0.46487  0.35226  1.0000
  N   N31       1.0  0.50215  0.22078  0.33404  1.0000
  Fe  Fe60      1.0  0.60230  0.47783  0.47299  1.0000
  H   H369      1.0  0.73590  0.48105  0.60282  1.0000
  H   H370      1.0  0.50497  0.17596  0.32425  1.0000
  C   C368      1.0  0.49981  0.19851  0.31710  1.0000
  H   H371      1.0  0.49311  0.18701  0.60908  1.0000
  H   H372      1.0  0.98694  0.15112  0.95823  1.0000
  H   H373      1.0  0.95730  0.41829  0.73712  1.0000
  H   H374      1.0  0.98047  0.33286  0.71043  1.0000
  S   S126      1.0  0.55676  0.01697  0.72995  1.0000
  C   C369      1.0  0.55562  0.04960  0.88074  1.0000
  Fe  Fe61      1.0  0.93375  0.37972  0.78031  1.0000
  S   S127      1.0  0.88648  0.38187  0.79255  1.0000
  S   S128      1.0  0.63032  0.00287  0.82991  1.0000
  Fe  Fe62      1.0  0.95215  0.41561  0.81800  1.0000
  S   S129      1.0  0.90690  0.42178  0.83318  1.0000
  Fe  Fe63      1.0  0.90517  0.37374  0.82735  1.0000
  S   S130      1.0  0.88292  0.35040  0.85667  1.0000
  Fe  Fe64      1.0  0.89212  0.42924  0.79763  1.0000
  S   S131      1.0  0.86227  0.46919  0.78761  1.0000
  S   S132      1.0  0.95204  0.36712  0.81446  1.0000
  S   S133      1.0  0.93795  0.42753  0.78302  1.0000
  S   S134      1.0  0.69686  0.05670  0.97192  1.0000
  C   C370      1.0  0.55975  0.05530  0.85765  1.0000
  Fe  Fe65      1.0  0.58736  0.99585  0.81297  1.0000
  H   H375      1.0  0.93211  0.37511  0.68065  1.0000
  H   H376      1.0  0.98071  0.44090  0.70329  1.0000
  S   S135      1.0  0.90693  0.18075  0.95974  1.0000
  C   C371      1.0  0.63644  0.00089  0.85932  1.0000
  Fe  Fe66      1.0  0.91670  0.22708  0.95068  1.0000
  S   S136      1.0  0.93055  0.23771  0.91451  1.0000
  C   C372      1.0  0.92880  0.42357  0.65413  1.0000
  C   C373      1.0  0.50290  0.09188  0.73577  1.0000
  N   N32       1.0  0.91085  0.41792  0.67435  1.0000
  C   C374      1.0  0.60817  0.06912  0.86492  1.0000
  H   H377      1.0  0.84063  0.08797  0.95538  1.0000
  C   C375      1.0  0.96748  0.37395  0.72618  1.0000
  C   C376      1.0  0.96770  0.40452  0.72419  1.0000
  Fe  Fe67      1.0  0.74503  0.04061  0.96922  1.0000
  C   C377      1.0  0.83828  0.46531  0.76546  1.0000
  C   C378      1.0  0.82875  0.43813  0.76064  1.0000
  C   C379      1.0  0.80916  0.43591  0.74303  1.0000
  H   H378      1.0  0.83591  0.41896  0.77077  1.0000
  H   H379      1.0  0.80155  0.41493  0.73946  1.0000
  C   C380      1.0  0.89933  0.32100  0.87347  1.0000
  C   C381      1.0  0.88849  0.31674  0.89562  1.0000
  C   C382      1.0  0.89893  0.29211  0.90883  1.0000
  C   C383      1.0  0.91979  0.27104  0.89977  1.0000
  C   C384      1.0  0.93095  0.27549  0.87776  1.0000
  C   C385      1.0  0.92100  0.30047  0.86472  1.0000
  H   H380      1.0  0.87172  0.33251  0.90252  1.0000
  H   H381      1.0  0.89019  0.28902  0.92576  1.0000
  H   H382      1.0  0.94712  0.25934  0.87060  1.0000
  H   H383      1.0  0.92938  0.30336  0.84766  1.0000
  Fe  Fe68      1.0  0.68872  0.01337  0.95715  1.0000
  C   C386      1.0  0.66262  0.01013  0.86742  1.0000
  H   H384      1.0  0.59028  0.06845  0.83179  1.0000
  H   H385      1.0  0.89709  0.46858  0.86693  1.0000
  C   C387      1.0  0.82443  0.10518  0.96099  1.0000
  C   C388      1.0  0.88938  0.43889  0.68118  1.0000
  H   H386      1.0  0.96791  0.08008  0.97591  1.0000
  H   H387      1.0  0.94920  0.48015  0.81382  1.0000
  C   C389      1.0  0.60325  0.06335  0.88791  1.0000
  H   H388      1.0  0.49658  0.08289  0.67948  1.0000
  H   H389      1.0  0.85502  0.45083  0.70599  1.0000
  C   C390      1.0  0.98449  0.47216  0.83724  1.0000
  C   C391      1.0  0.52381  0.05419  0.70151  1.0000
  C   C392      1.0  0.53323  0.04854  0.72362  1.0000
  H   H390      1.0  0.52976  0.06321  0.75782  1.0000
  C   C393      1.0  0.87706  0.40809  0.71302  1.0000
  C   C394      1.0  0.91532  0.39188  0.68614  1.0000
  H   H391      1.0  0.53197  0.03971  0.68819  1.0000
  N   N33       1.0  0.86110  0.21038  0.90445  1.0000
  C   C395      1.0  0.84374  0.20977  0.92360  1.0000
  C   C396      1.0  0.86073  0.23528  0.89117  1.0000
  C   C397      1.0  0.82497  0.23435  0.92964  1.0000
  C   C398      1.0  0.84196  0.26015  0.89656  1.0000
  C   C399      1.0  0.82413  0.25969  0.91601  1.0000
  C   C400      1.0  0.88137  0.18472  0.89883  1.0000
  H   H392      1.0  0.84452  0.19031  0.93447  1.0000
  H   H393      1.0  0.87556  0.23635  0.87662  1.0000
  H   H394      1.0  0.81159  0.23381  0.94504  1.0000
  H   H395      1.0  0.84208  0.27996  0.88610  1.0000
  H   H396      1.0  0.81007  0.27910  0.92069  1.0000
  H   H397      1.0  0.87203  0.16407  0.90422  1.0000
  H   H398      1.0  0.88602  0.18383  0.88038  1.0000
  H   H399      1.0  0.90254  0.18590  0.90738  1.0000
  C   C401      1.0  0.57261  0.04710  0.91962  1.0000
  H   H400      1.0  0.88545  0.45923  0.67149  1.0000
  C   C402      1.0  0.58632  0.06487  0.84973  1.0000
  H   H401      1.0  0.59384  0.04255  0.92844  1.0000
  C   C403      1.0  0.52267  0.06740  0.74073  1.0000
  H   H402      1.0  0.86409  0.40429  0.72823  1.0000
  S   S137      1.0  0.56265  0.03518  0.79625  1.0000
  H   H403      1.0  0.85644  0.13640  0.96488  1.0000
  Fe  Fe69      1.0  0.55718  0.00617  0.76720  1.0000
  H   H404      1.0  0.90278  0.36627  0.71537  1.0000
  C   C404      1.0  0.79478  0.09950  0.96348  1.0000
  C   C405      1.0  0.61553  0.99138  0.87479  1.0000
  H   H405      1.0  0.68743  0.01851  0.89676  1.0000
  H   H406      1.0  0.56066  0.02724  0.92229  1.0000
  C   C406      1.0  0.87216  0.43430  0.70061  1.0000
  C   C407      1.0  0.79975  0.46068  0.72983  1.0000
  S   S138      1.0  0.95060  0.35613  0.74908  1.0000
  S   S139      1.0  0.87808  0.24811  0.97030  1.0000
  S   S140      1.0  0.77683  0.45748  0.70689  1.0000
  H   H407      1.0  0.59542  0.98399  0.86879  1.0000
  Fe  Fe70      1.0  0.52266  0.01638  0.81088  1.0000
  C   C408      1.0  0.89867  0.38666  0.70573  1.0000
  S   S141      1.0  0.99034  0.43440  0.83298  1.0000
  H   H408      1.0  0.53498  0.04188  0.88669  1.0000
  C   C409      1.0  0.62053  0.99167  0.89809  1.0000
  S   S142      1.0  0.78521  0.06384  0.95804  1.0000
  C   C410      1.0  0.98094  0.41734  0.70502  1.0000
  S   S143      1.0  0.73686  0.99900  0.95165  1.0000
  H   H409      1.0  0.54257  0.05197  0.84596  1.0000
  C   C411      1.0  0.83344  0.13265  0.96629  1.0000
  C   C412      1.0  0.77396  0.12198  0.97051  1.0000
  H   H410      1.0  0.62918  0.07577  0.85880  1.0000
  H   H411      1.0  0.62067  0.06598  0.89954  1.0000
  N   N34       1.0  0.57742  0.05323  0.89548  1.0000
  C   C413      1.0  0.98239  0.06003  0.97423  1.0000
  H   H412      1.0  0.67895  0.01747  0.85555  1.0000
  C   C414      1.0  0.64627  0.00179  0.90621  1.0000
  H   H413      1.0  0.55978  0.06609  0.92751  1.0000
  C   C415      1.0  0.81273  0.15490  0.97383  1.0000
  S   S144      1.0  0.51494  0.99089  0.78049  1.0000
  C   C416      1.0  0.66752  0.01068  0.89076  1.0000
  S   S145      1.0  0.94802  0.22920  0.97893  1.0000
  H   H414      1.0  0.75100  0.11814  0.97196  1.0000
  C   C417      1.0  0.78292  0.14960  0.97553  1.0000
  H   H415      1.0  0.94640  0.40555  0.65102  1.0000
  H   H416      1.0  0.60413  0.98438  0.90990  1.0000
  S   S146      1.0  0.64987  0.00418  0.93576  1.0000
  H   H417      1.0  0.86097  0.47382  0.83632  1.0000
  C   C418      1.0  0.50370  0.07852  0.69658  1.0000
  H   H418      1.0  0.93995  0.44384  0.65606  1.0000
  C   C419      1.0  0.98060  0.35644  0.70909  1.0000
  Fe  Fe71      1.0  0.87025  0.20193  0.98136  1.0000
  H   H419      1.0  0.76671  0.16681  0.98111  1.0000
  H   H420      1.0  0.49499  0.10649  0.74906  1.0000
  C   C420      1.0  0.49333  0.09746  0.71372  1.0000
  S   S147      1.0  0.75426  0.93381  0.99712  1.0000
  H   H421      1.0  0.52084  0.96830  0.27648  1.0000
  C   C421      1.0  0.51416  0.95456  0.21442  1.0000
  Fe  Fe72      1.0  0.79764  0.55091  0.28622  1.0000
  S   S148      1.0  0.84392  0.53266  0.29221  1.0000
  S   S149      1.0  0.78652  0.58666  0.26008  1.0000
  H   H422      1.0  0.94418  0.53006  0.16031  1.0000
  H   H423      1.0  0.89561  0.63434  0.05155  1.0000
  H   H424      1.0  0.93916  0.64941  0.01656  1.0000
  Fe  Fe73      1.0  0.90428  0.59421  0.13650  1.0000
  S   S150      1.0  0.95058  0.60032  0.12602  1.0000
  S   S151      1.0  0.87828  0.55964  0.12357  1.0000
  Fe  Fe74      1.0  0.90257  0.63898  0.17251  1.0000
  S   S152      1.0  0.94900  0.65001  0.16475  1.0000
  S   S153      1.0  0.87356  0.65853  0.20069  1.0000
  Fe  Fe75      1.0  0.93666  0.64865  0.12814  1.0000
  S   S154      1.0  0.95591  0.67327  0.09806  1.0000
  Fe  Fe76      1.0  0.95898  0.60124  0.16291  1.0000
  S   S155      1.0  0.88916  0.64210  0.13615  1.0000
  S   S156      1.0  0.91374  0.59067  0.17320  1.0000
  C   C422      1.0  0.93042  0.54095  0.29729  1.0000
  Fe  Fe77      1.0  0.91838  0.79751  0.00599  1.0000
  S   S157      1.0  0.90411  0.78572  0.04183  1.0000
  C   C423      1.0  0.88378  0.71834  0.01772  1.0000
  H   H425      1.0  0.54172  0.93738  0.24155  1.0000
  N   N35       1.0  0.91558  0.56807  0.28775  1.0000
  H   H426      1.0  0.89855  0.66377  0.07071  1.0000
  H   H427      1.0  0.84489  0.59796  0.15627  1.0000
  C   C424      1.0  0.94070  0.70443  0.08273  1.0000
  C   C425      1.0  0.95385  0.71158  0.06185  1.0000
  C   C426      1.0  0.94250  0.73603  0.04890  1.0000
  C   C427      1.0  0.91827  0.75399  0.05700  1.0000
  C   C428      1.0  0.90510  0.74686  0.07786  1.0000
  C   C429      1.0  0.91605  0.72200  0.09059  1.0000
  H   H428      1.0  0.86344  0.62247  0.30168  1.0000
  H   H429      1.0  0.95275  0.74119  0.03283  1.0000
  H   H430      1.0  0.88630  0.76065  0.08424  1.0000
  H   H431      1.0  0.90576  0.71673  0.10665  1.0000
  C   C430      1.0  0.81377  0.60580  0.24617  1.0000
  C   C431      1.0  0.83938  0.59139  0.23647  1.0000
  C   C432      1.0  0.85772  0.60699  0.22191  1.0000
  C   C433      1.0  0.85117  0.63722  0.21791  1.0000
  C   C434      1.0  0.82626  0.65154  0.22840  1.0000
  C   C435      1.0  0.80741  0.63586  0.24202  1.0000
  H   H432      1.0  0.84426  0.56807  0.23935  1.0000
  H   H433      1.0  0.87700  0.59572  0.21406  1.0000
  H   H434      1.0  0.82106  0.67484  0.22551  1.0000
  H   H435      1.0  0.78752  0.64708  0.24918  1.0000
  C   C436      1.0  0.49715  0.92646  0.24683  1.0000
  C   C437      1.0  0.90216  0.52776  0.12028  1.0000
  C   C438      1.0  0.93005  0.52921  0.11019  1.0000
  H   H436      1.0  0.87775  0.64075  0.26340  1.0000
  C   C439      1.0  0.88859  0.62052  0.27037  1.0000
  H   H437      1.0  0.93624  0.54970  0.10304  1.0000
  C   C440      1.0  0.92173  0.68792  0.99818  1.0000
  C   C441      1.0  0.98425  0.59819  0.21843  1.0000
  C   C442      1.0  0.83069  0.58890  0.16907  1.0000
  H   H438      1.0  0.80422  0.50820  0.20669  1.0000
  H   H439      1.0  0.91459  0.52834  0.30714  1.0000
  H   H440      1.0  0.97550  0.61836  0.25061  1.0000
  H   H441      1.0  0.86869  0.73811  0.01844  1.0000
  Fe  Fe78      1.0  0.82534  0.48917  0.29360  1.0000
  C   C443      1.0  0.89392  0.50097  0.12885  1.0000
  C   C444      1.0  0.80783  0.60670  0.17914  1.0000
  N   N36       1.0  0.90592  0.67434  0.03570  1.0000
  H   H442      1.0  0.87225  0.70330  0.05107  1.0000
  H   H443      1.0  0.93110  0.64585  0.05842  1.0000
  C   C445      1.0  0.88600  0.69861  0.03617  1.0000
  H   H444      1.0  0.94707  0.85710  0.07019  1.0000
  C   C446      1.0  0.94734  0.84945  0.05260  1.0000
  C   C447      1.0  0.88057  0.61029  0.29180  1.0000
  H   H445      1.0  0.90023  0.72785  0.98415  1.0000
  C   C448      1.0  0.82663  0.87811  0.98306  1.0000
  H   H446      1.0  0.95416  0.80011  0.07708  1.0000
  N   N37       1.0  0.81793  0.54798  0.19225  1.0000
  H   H447      1.0  0.78968  0.88000  0.00663  1.0000
  C   C449      1.0  0.79539  0.56527  0.20220  1.0000
  N   N38       1.0  0.97032  0.82522  0.04946  1.0000
  C   C450      1.0  0.91037  0.60439  0.25778  1.0000
  S   S158      1.0  0.50438  0.90862  0.27298  1.0000
  H   H448      1.0  0.95422  0.52752  0.18949  1.0000
  C   C451      1.0  0.90776  0.65352  0.05495  1.0000
  H   H449      1.0  0.84039  0.51660  0.21411  1.0000
  C   C452      1.0  0.95061  0.51456  0.17445  1.0000
  H   H450      1.0  0.98295  0.88647  0.99380  1.0000
  H   H451      1.0  0.94047  0.52645  0.28391  1.0000
  H   H452      1.0  0.97134  0.50511  0.10102  1.0000
  H   H453      1.0  0.97294  0.61617  0.20898  1.0000
  C   C453      1.0  0.92352  0.66874  0.01698  1.0000
  H   H454      1.0  0.97287  0.69800  0.05563  1.0000
  H   H455      1.0  0.80454  0.62982  0.17455  1.0000
  H   H456      1.0  0.53167  0.96457  0.20546  1.0000
  H   H457      1.0  0.92547  0.84203  0.04912  1.0000
  C   C454      1.0  0.82447  0.51758  0.20023  1.0000
  C   C455      1.0  0.94982  0.50395  0.10889  1.0000
  H   H458      1.0  0.77268  0.60861  0.20427  1.0000
  H   H459      1.0  0.85371  0.54593  0.16821  1.0000
  H   H460      1.0  0.93197  0.50102  0.17773  1.0000
  H   H461      1.0  0.83390  0.50337  0.18642  1.0000
  H   H462      1.0  0.91678  0.61224  0.24109  1.0000
  C   C456      1.0  0.92353  0.57792  0.26670  1.0000
  S   S159      1.0  0.92774  0.84364  0.99603  1.0000
  H   H463      1.0  0.87237  0.49973  0.13664  1.0000
  H   H464      1.0  0.95074  0.86848  0.04112  1.0000
  C   C457      1.0  0.90172  0.71284  0.99862  1.0000
  C   C458      1.0  0.78988  0.59480  0.19570  1.0000
  C   C459      1.0  0.83556  0.55945  0.17593  1.0000
  C   C460      1.0  0.51979  0.93921  0.23489  1.0000
  H   H465      1.0  0.94025  0.56538  0.25674  1.0000
  H   H466      1.0  0.78217  0.55661  0.21586  1.0000
  N   N39       1.0  0.97751  0.49595  0.16875  1.0000
  C   C461      1.0  0.97092  0.80135  0.06384  1.0000
  H   H467      1.0  0.94812  0.54628  0.30852  1.0000
  C   C462      1.0  0.89473  0.58411  0.30041  1.0000
  C   C463      1.0  0.80056  0.89137  0.99307  1.0000
  C   C464      1.0  0.98576  0.59942  0.24197  1.0000
  H   H468      1.0  0.93573  0.68367  0.98331  1.0000
  C   C465      1.0  0.78836  0.91906  0.98548  1.0000
  C   C466      1.0  0.99068  0.82624  0.03215  1.0000
  H   H469      1.0  0.83568  0.85665  0.98888  1.0000
  S   S160      1.0  0.95830  0.77701  0.98778  1.0000
  H   H470      1.0  0.99013  0.84489  0.02052  1.0000
  H   H471      1.0  0.63639  0.96989  0.07485  1.0000
  C   C467      1.0  0.50225  0.97127  0.31016  1.0000
  H   H472      1.0  0.50192  0.94772  0.31250  1.0000
  S   S161      1.0  0.77942  0.50706  0.28505  1.0000
  Fe  Fe79      1.0  0.73500  0.97929  0.98658  1.0000
  H   H473      1.0  0.66531  0.97623  0.13313  1.0000
  H   H474      1.0  0.99085  0.52470  0.14235  1.0000
  C   C468      1.0  0.91596  0.54109  0.63460  1.0000
  C   C469      1.0  0.92093  0.53751  0.35662  1.0000
  C   C470      1.0  0.85123  0.51285  0.57774  1.0000
  H   H475      1.0  0.81522  0.53386  0.39781  1.0000
  S   S162      1.0  0.73221  0.54387  0.61162  1.0000
  C   C471      1.0  0.75191  0.49371  0.43034  1.0000
  H   H476      1.0  0.61446  0.57519  0.57235  1.0000
  C   C472      1.0  0.79901  0.51238  0.57293  1.0000
  C   C473      1.0  0.51318  0.60691  0.46359  1.0000
  Fe  Fe80      1.0  0.59832  0.53751  0.49461  1.0000
  S   S163      1.0  0.59914  0.52418  0.45853  1.0000
  S   S164      1.0  0.57094  0.57510  0.51136  1.0000
  H   H477      1.0  0.74129  0.50162  0.44590  1.0000
  Fe  Fe81      1.0  0.64850  0.52026  0.46052  1.0000
  C   C474      1.0  0.79585  0.54283  0.57433  1.0000
  H   H478      1.0  0.89401  0.54401  0.58515  1.0000
  S   S165      1.0  0.64737  0.53773  0.49568  1.0000
  C   C475      1.0  0.94838  0.50228  0.61793  1.0000
  N   N40       1.0  0.64350  0.51541  0.60172  1.0000
  S   S166      1.0  0.59824  0.49167  0.50906  1.0000
  H   H479      1.0  0.64334  0.58793  0.40957  1.0000
  C   C476      1.0  0.72356  0.49284  0.58957  1.0000
  H   H480      1.0  0.82567  0.50321  0.38050  1.0000
  C   C477      1.0  0.89376  0.52620  0.35459  1.0000
  C   C478      1.0  0.61880  0.50113  0.56914  1.0000
  C   C479      1.0  0.94706  0.51875  0.35584  1.0000
  C   C480      1.0  0.58150  0.63758  0.46453  1.0000
  C   C481      1.0  0.71277  0.54564  0.39710  1.0000
  H   H481      1.0  0.86981  0.56958  0.60068  1.0000
  H   H482      1.0  0.64406  0.50443  0.63667  1.0000
  H   H483      1.0  0.87620  0.57556  0.57070  1.0000
  C   C482      1.0  0.94600  0.48854  0.35387  1.0000
  C   C483      1.0  0.69207  0.53012  0.40919  1.0000
  C   C484      1.0  0.68277  0.50498  0.39994  1.0000
  H   H484      1.0  0.71993  0.56524  0.40404  1.0000
  C   C485      1.0  0.71603  0.51013  0.36723  1.0000
  C   C486      1.0  0.72481  0.53564  0.37627  1.0000
  S   S167      1.0  0.78574  0.55725  0.32302  1.0000
  H   H485      1.0  0.79573  0.52965  0.37237  1.0000
  H   H486      1.0  0.50788  0.60174  0.44660  1.0000
  C   C487      1.0  0.89274  0.49603  0.35251  1.0000
  H   H487      1.0  0.57286  0.62340  0.40951  1.0000
  C   C488      1.0  0.52743  0.62030  0.50725  1.0000
  C   C489      1.0  0.54211  0.59560  0.49701  1.0000
  C   C490      1.0  0.53460  0.58871  0.47524  1.0000
  H   H488      1.0  0.53313  0.62578  0.52409  1.0000
  H   H489      1.0  0.54567  0.56970  0.46721  1.0000
  C   C491      1.0  0.71937  0.52344  0.58961  1.0000
  H   H490      1.0  0.92183  0.56083  0.35833  1.0000
  C   C492      1.0  0.65968  0.50738  0.62232  1.0000
  H   H491      1.0  0.77987  0.50053  0.57083  1.0000
  C   C493      1.0  0.69063  0.52287  0.55543  1.0000
  C   C494      1.0  0.70311  0.53835  0.57234  1.0000
  H   H492      1.0  0.61434  0.61481  0.48565  1.0000
  H   H493      1.0  0.61936  0.56021  0.41741  1.0000
  H   H494      1.0  0.67778  0.53461  0.54247  1.0000
  H   H495      1.0  0.69974  0.56203  0.57222  1.0000
  N   N41       1.0  0.78534  0.50032  0.39899  1.0000
  H   H496      1.0  0.59929  0.53644  0.54806  1.0000
  C   C495      1.0  0.87321  0.55873  0.58416  1.0000
  Fe  Fe82      1.0  0.77148  0.51176  0.32266  1.0000
  Fe  Fe83      1.0  0.76611  0.52644  0.63750  1.0000
  H   H497      1.0  0.57124  0.65069  0.47806  1.0000
  N   N42       1.0  0.60644  0.60237  0.43031  1.0000
  H   H498      1.0  0.74093  0.54761  0.36725  1.0000
  H   H499      1.0  0.60855  0.58750  0.39617  1.0000
  C   C496      1.0  0.89264  0.52341  0.63424  1.0000
  S   S168      1.0  0.81074  0.54292  0.63295  1.0000
  H   H500      1.0  0.67424  0.52449  0.62651  1.0000
  H   H501      1.0  0.81788  0.58128  0.57953  1.0000
  C   C497      1.0  0.94399  0.53030  0.62686  1.0000
  C   C498      1.0  0.58246  0.62182  0.42605  1.0000
  C   C499      1.0  0.61994  0.55229  0.57693  1.0000
  H   H502      1.0  0.63684  0.58441  0.45481  1.0000
  C   C500      1.0  0.61993  0.58371  0.41243  1.0000
  C   C501      1.0  0.56970  0.63977  0.44306  1.0000
  H   H503      1.0  0.96797  0.52762  0.35721  1.0000
  H   H504      1.0  0.64294  0.56134  0.60667  1.0000
  C   C502      1.0  0.61806  0.60004  0.45135  1.0000
  C   C503      1.0  0.60570  0.61746  0.46878  1.0000
  Fe  Fe84      1.0  0.83071  0.53463  0.32876  1.0000
  S   S169      1.0  0.67944  0.54246  0.43612  1.0000
  C   C504      1.0  0.50595  0.63845  0.49563  1.0000
  S   S170      1.0  0.86138  0.55005  0.35372  1.0000
  H   H505      1.0  0.87138  0.53153  0.64101  1.0000
  H   H506      1.0  0.77414  0.55469  0.57354  1.0000
  C   C505      1.0  0.63598  0.54430  0.59628  1.0000
  H   H507      1.0  0.55021  0.65467  0.43987  1.0000
  S   S171      1.0  0.97373  0.55116  0.62949  1.0000
  Fe  Fe85      1.0  0.64771  0.49109  0.50761  1.0000
  C   C506      1.0  0.82066  0.55772  0.57770  1.0000
  N   N43       1.0  0.84787  0.54266  0.57955  1.0000
  H   H508      1.0  0.77869  0.52954  0.42642  1.0000
  C   C507      1.0  0.80645  0.51761  0.38690  1.0000
  C   C508      1.0  0.61137  0.53052  0.56328  1.0000
  H   H509      1.0  0.91247  0.56281  0.64145  1.0000
  S   S172      1.0  0.81598  0.48961  0.33086  1.0000
  C   C509      1.0  0.82686  0.49725  0.57464  1.0000
  H   H510      1.0  0.49528  0.65779  0.50350  1.0000
  H   H511      1.0  0.87269  0.50076  0.57942  1.0000
  C   C510      1.0  0.77296  0.50949  0.41916  1.0000
  C   C511      1.0  0.49907  0.63203  0.47363  1.0000
  Fe  Fe86      1.0  0.82816  0.49673  0.64102  1.0000
  H   H512      1.0  0.66676  0.49289  0.40900  1.0000
  H   H513      1.0  0.96991  0.49401  0.61166  1.0000
  C   C512      1.0  0.89699  0.49548  0.62514  1.0000
  C   C513      1.0  0.69412  0.49223  0.55572  1.0000
  C   C514      1.0  0.69463  0.49514  0.37900  1.0000
  S   S173      1.0  0.73214  0.49539  0.34196  1.0000
  S   S174      1.0  0.50010  0.94290  0.61924  1.0000
  C   C515      1.0  0.63489  0.49391  0.58855  1.0000
  H   H514      1.0  0.61300  0.48397  0.55835  1.0000
  C   C516      1.0  0.92476  0.48509  0.61668  1.0000
  H   H515      1.0  0.87192  0.48705  0.35117  1.0000
  H   H516      1.0  0.88876  0.57654  0.31721  1.0000
  H   H517      1.0  0.67429  0.48677  0.62019  1.0000
  H   H518      1.0  0.58666  0.95387  0.72779  1.0000
  C   C517      1.0  0.96275  0.48979  0.82569  1.0000
  S   S175      1.0  0.53156  0.90859  0.79468  1.0000
  Fe  Fe87      1.0  0.95031  0.63095  0.78302  1.0000
  C   C518      1.0  0.86375  0.52018  0.83171  1.0000
  C   C519      1.0  0.68800  0.92464  0.95905  1.0000
  H   H519      1.0  0.89273  0.75682  0.86654  1.0000
  C   C520      1.0  0.87645  0.54449  0.83918  1.0000
  H   H520      1.0  0.79339  0.95491  0.96194  1.0000
  C   C521      1.0  0.50861  0.85394  0.74771  1.0000
  H   H521      1.0  0.83886  0.93118  0.94377  1.0000
  C   C522      1.0  0.90380  0.73982  0.87708  1.0000
  S   S176      1.0  0.90560  0.65533  0.78719  1.0000
  Fe  Fe88      1.0  0.94548  0.59963  0.82798  1.0000
  S   S177      1.0  0.90016  0.62069  0.83581  1.0000
  H   H522      1.0  0.87231  0.52316  0.72574  1.0000
  Fe  Fe89      1.0  0.89183  0.61207  0.79956  1.0000
  S   S178      1.0  0.85111  0.59234  0.78910  1.0000
  Fe  Fe90      1.0  0.91816  0.66206  0.82308  1.0000
  S   S179      1.0  0.90573  0.70612  0.83930  1.0000
  S   S180      1.0  0.93554  0.58723  0.79303  1.0000
  C   C523      1.0  0.98724  0.72779  0.87661  1.0000
  S   S181      1.0  0.76323  0.53656  0.67474  1.0000
  H   H523      1.0  0.78180  0.89620  0.93244  1.0000
  Fe  Fe91      1.0  0.80963  0.54884  0.67038  1.0000
  S   S182      1.0  0.83197  0.58619  0.68423  1.0000
  Fe  Fe92      1.0  0.54333  0.95493  0.79715  1.0000
  H   H524      1.0  0.54978  0.95403  0.73935  1.0000
  C   C524      1.0  0.56785  0.94039  0.73069  1.0000
  H   H525      1.0  0.74119  0.89551  0.96077  1.0000
  H   H526      1.0  0.93661  0.55227  0.67817  1.0000
  H   H527      1.0  0.57508  0.92176  0.74226  1.0000
  Fe  Fe93      1.0  0.92876  0.77510  0.95821  1.0000
  C   C525      1.0  0.55177  0.95074  0.69210  1.0000
  S   S183      1.0  0.93510  0.73107  0.94102  1.0000
  Fe  Fe94      1.0  0.90042  0.83738  0.96594  1.0000
  S   S184      1.0  0.83076  0.50387  0.67780  1.0000
  S   S185      1.0  0.93892  0.81910  0.94432  1.0000
  H   H528      1.0  0.69689  0.92464  0.97633  1.0000
  H   H529      1.0  0.53770  0.86995  0.68478  1.0000
  H   H530      1.0  0.68671  0.95434  0.91965  1.0000
  C   C526      1.0  0.54217  0.89261  0.68653  1.0000
  S   S186      1.0  0.87151  0.87531  0.95061  1.0000
  C   C527      1.0  0.97199  0.74890  0.86291  1.0000
  C   C528      1.0  0.84798  0.58799  0.75990  1.0000
  C   C529      1.0  0.86724  0.60027  0.74442  1.0000
  C   C530      1.0  0.86257  0.59900  0.72117  1.0000
  C   C531      1.0  0.83906  0.58489  0.71327  1.0000
  C   C532      1.0  0.82061  0.57151  0.72873  1.0000
  C   C533      1.0  0.82490  0.57331  0.75199  1.0000
  H   H531      1.0  0.88523  0.61151  0.75033  1.0000
  H   H532      1.0  0.87703  0.60929  0.70928  1.0000
  H   H533      1.0  0.80232  0.56076  0.72279  1.0000
  H   H534      1.0  0.80997  0.56368  0.76389  1.0000
  C   C534      1.0  0.91202  0.71206  0.86812  1.0000
  C   C535      1.0  0.91032  0.74594  0.89946  1.0000
  C   C536      1.0  0.92490  0.72420  0.91316  1.0000
  C   C537      1.0  0.93250  0.69626  0.90436  1.0000
  C   C538      1.0  0.92620  0.69022  0.88195  1.0000
  H   H535      1.0  0.91887  0.53123  0.77501  1.0000
  H   H536      1.0  0.93262  0.66876  0.87529  1.0000
  H   H537      1.0  0.90420  0.76749  0.90604  1.0000
  H   H538      1.0  0.83507  0.51125  0.75657  1.0000
  C   C539      1.0  0.50372  0.91454  0.75333  1.0000
  H   H539      1.0  0.94370  0.67925  0.91483  1.0000
  H   H540      1.0  0.53092  0.85101  0.77922  1.0000
  C   C540      1.0  0.94958  0.54747  0.71270  1.0000
  C   C541      1.0  0.80256  0.93358  0.96793  1.0000
  C   C542      1.0  0.82830  0.92008  0.95764  1.0000
  C   C543      1.0  0.51797  0.89585  0.76961  1.0000
  C   C544      1.0  0.95861  0.52003  0.82955  1.0000
  C   C545      1.0  0.73020  0.94265  0.90627  1.0000
  Fe  Fe95      1.0  0.96537  0.82264  0.97528  1.0000
  H   H541      1.0  0.88184  0.53068  0.76636  1.0000
  H   H542      1.0  0.94168  0.53353  0.82080  1.0000
  C   C546      1.0  0.52020  0.86560  0.76667  1.0000
  C   C547      1.0  0.73788  0.90868  0.94540  1.0000
  H   H543      1.0  0.90725  0.49820  0.76384  1.0000
  N   N44       1.0  0.71183  0.92536  0.94205  1.0000
  H   H544      1.0  0.80186  0.50703  0.72474  1.0000
  H   H545      1.0  0.87090  0.56582  0.83131  1.0000
  C   C548      1.0  0.92999  0.54630  0.69526  1.0000
  C   C549      1.0  0.75712  0.92630  0.90983  1.0000
  S   S187      1.0  0.88797  0.79287  0.97737  1.0000
  C   C550      1.0  0.92564  0.51008  0.88411  1.0000
  N   N45       1.0  0.90407  0.51389  0.86618  1.0000
  S   S188      1.0  0.96442  0.64158  0.81761  1.0000
  N   N46       1.0  0.82443  0.66700  0.77181  1.0000
  C   C551      1.0  0.80277  0.64977  0.76680  1.0000
  C   C552      1.0  0.84163  0.67797  0.75496  1.0000
  C   C553      1.0  0.79733  0.64376  0.74439  1.0000
  C   C554      1.0  0.83696  0.67217  0.73237  1.0000
  C   C555      1.0  0.81455  0.65506  0.72710  1.0000
  C   C556      1.0  0.82964  0.67274  0.79550  1.0000
  H   H546      1.0  0.79015  0.63985  0.78022  1.0000
  H   H547      1.0  0.85938  0.69094  0.75889  1.0000
  H   H548      1.0  0.78072  0.62939  0.74050  1.0000
  H   H549      1.0  0.85110  0.68024  0.71908  1.0000
  H   H550      1.0  0.81133  0.64952  0.70971  1.0000
  H   H551      1.0  0.84501  0.68990  0.79727  1.0000
  H   H552      1.0  0.80869  0.68030  0.80437  1.0000
  H   H553      1.0  0.83936  0.65236  0.80407  1.0000
  C   C557      1.0  0.90501  0.52249  0.76222  1.0000
  H   H554      1.0  0.97134  0.55411  0.70910  1.0000
  H   H555      1.0  0.95638  0.54133  0.74816  1.0000
  C   C558      1.0  0.97553  0.53235  0.84548  1.0000
  C   C559      1.0  0.76093  0.90895  0.92941  1.0000
  H   H556      1.0  0.51056  0.83042  0.74576  1.0000
  H   H557      1.0  0.67178  0.94427  0.95745  1.0000
  C   C560      1.0  0.53652  0.91286  0.66886  1.0000
  H   H558      1.0  0.77504  0.92708  0.89750  1.0000
  C   C561      1.0  0.70757  0.94168  0.92257  1.0000
  H   H559      1.0  0.52822  0.90590  0.65312  1.0000
  H   H560      1.0  0.50129  0.93792  0.75571  1.0000
  H   H561      1.0  0.90662  0.55998  0.86215  1.0000
  C   C562      1.0  0.90200  0.53756  0.69998  1.0000
  C   C563      1.0  0.84039  0.89228  0.96510  1.0000
  N   N47       1.0  0.55764  0.93062  0.70923  1.0000
  C   C564      1.0  0.55296  0.90188  0.70668  1.0000
  H   H562      1.0  0.53657  0.95804  0.65795  1.0000
  N   N48       1.0  0.91341  0.53156  0.73925  1.0000
  H   H563      1.0  0.88636  0.53718  0.68658  1.0000
  C   C565      1.0  0.89413  0.52991  0.72219  1.0000
  C   C566      1.0  0.87089  0.49283  0.84199  1.0000
  H   H564      1.0  0.55685  0.88603  0.72045  1.0000
  C   C567      1.0  0.89654  0.54100  0.85666  1.0000
  C   C568      1.0  0.94092  0.54009  0.73474  1.0000
  H   H565      1.0  0.72685  0.95616  0.89108  1.0000
  H   H566      1.0  0.93722  0.53009  0.88607  1.0000
  C   C569      1.0  0.89127  0.49003  0.85926  1.0000
  S   S189      1.0  0.96828  0.56899  0.85330  1.0000
  C   C570      1.0  0.54124  0.94214  0.67161  1.0000
  H   H567      1.0  0.96350  0.74275  0.84696  1.0000
  C   C571      1.0  0.82829  0.49013  0.75259  1.0000
  H   H568      1.0  0.97141  0.80688  0.89721  1.0000
  H   H569      1.0  0.84853  0.52247  0.81787  1.0000
  S   S190      1.0  0.97448  0.63561  0.74979  1.0000
  C   C572      1.0  0.49419  0.87228  0.73149  1.0000
  H   H570      1.0  0.67641  0.90470  0.95722  1.0000
  H   H571      1.0  0.95362  0.79383  0.86012  1.0000
  H   H572      1.0  0.91461  0.50481  0.90041  1.0000
  C   C573      1.0  0.96634  0.77753  0.87035  1.0000
  S   S191      1.0  0.58573  0.96836  0.78211  1.0000
  Fe  Fe96      1.0  0.78495  0.49067  0.67947  1.0000
  H   H573      1.0  0.94284  0.49204  0.87996  1.0000
  C   C574      1.0  0.80946  0.48777  0.73461  1.0000
  H   H574      1.0  0.55520  0.97360  0.69425  1.0000
  C   C575      1.0  0.97636  0.78470  0.89138  1.0000
  S   S192      1.0  0.54722  0.97890  0.82951  1.0000
  H   H575      1.0  0.98738  0.76324  0.94014  1.0000
  C   C576      1.0  0.49166  0.90274  0.73429  1.0000
  H   H576      1.0  0.99062  0.70521  0.87133  1.0000
