data_image0
_chemical_formula_structural       H2CHC3H4CSNSC3H4CHC2NCHC3SCHC2HC4H2C2HS2H2C2HC3HSHCH2FeHCH2CH2CH2SHCSH2CHCSC2NC3H3C3H3SHCFeSFeNSCHS3HC2FeSH3SHCHC6H4C3HC2H3SHC6H3Fe2CHC3FeCHCH2SCSCSNCH5CS2HFeC3HCHSH3C2HC2HSCHSC2HC3H2FeCHNCFe2H2CSH2C2HSHCH2SC3HFe2HCH2CFe2NCSCH2NCH4CH2CNHSCSCH4S3HSCS2FeS2HFeSFeS2H2SFeSH2FeSCH2FeHCNC2HSCFeH2CHC6H5FeNH3C6H4C3H3C2HCHC2SHCH3CHCHNC2SHSHCHC2H2C3HCFeC3H2SCH3NCNC3HC2Fe2H3C2NC2H2SHC3SHCS2CH2CH4CS2C4H2CFeHCHC4S2CH2SH2CFeSC2FeNFeS2FeSFeHS2HS3C3HC6H2CHC2NCHCHCH2FeS2Fe2H5CHC7H4SFeCSHFeN2C6H11C3H3C3H3CHNHSC2HC7HCH2CH2C3SCFeHCS2HNH2CHC2S2HCH3CS2H2C2Fe2S2FeS2FeSFeS3C2SC6H2C6H7CHNS2CH2C7H5CNC6H11NC2FeH3FeCH2CHC3H2CHCHS2HC2HSH3CHFeC2H2CHSCHC2HSHC2FeC2HC5HFeCSH2CH2FeS2HFeSFeSHSHSH2SHFeSFeCHFeCSFeNSFeCH2SHFeS2FeS2FeSFeS4CFeCHC2H2C2HCH2CSHC7H5C3SNC2SH3C6H4SNCH2C4HC7H4CSNC6H8SHCH3CH4CSFeHCNC3HNCH2C2H4C5SFeH2C2H3SH2CHSCH5C2HC3HC3HNHFeSFeHS2H2SCHNHFeSHCFeHSCNHCH2SFeS2FeS2FeSFeS3FeCHCHC2HCH2SC7H4NH2C5H2C6H5C6H6CHC2SCFeCSHSC2NC2H2CNHC2HCHCHC2H3CH2CHC4H4C2SCSHCFeNC2H4SH2CHNHCH2C2HSCHCSC2HCH4CFeSC3H5SH2SCFeS2FeS2FeSFeS3HCSHSC4HC4H2C7H4C2NFeHCHFeC6H4C2H6CSC2SHNC3HC2H7CH2CH2SC3SCHCNCHSCHCH4FeCH2FeCH9CHC2HCHSNH2C2HCHFeC2HNFeC2HFeSFeSCSCFeHSCHSFeCSFeCSHSCS2CHCH3SCHNCNH2C6H4CH2C4SC2HC2HFeC2HC2H3CFeH2CHFeHCSCFeSFeHSNC2H2C2HSH2CHCH2SHC6H4SHCNCHCHSCHFeHFeHFeH3CHCHCNSHFeHC2HC3H2C4SCSHSH2FeS3CHS2CH2SFeHFeHSFe2SCHFe2S2C6H4CHC2H4CS2HCH2CH2CHC7H2CH3CHC6H5CHCHC2HSCSH4NC6H6SN2HCSFeHNFeH2C2HC6SNFeH2CH3SCH2SFeS2HSCH3S2HSC2H2FeSHFeHSNCFeSHSCSC6H4C6H2SH4C2H3CHCHC2HCH3C2SHNH3CSCFeHFeH2C2FeCNFeC3H4FeCSH2C2HC2HC2SCHC2NHSHSC2HCHC3HC2H2CHCH3CHSHC2HCH2C3HSHNHSH2C7H3SH2C3H4SH3SC5SCHCFeCHCH2CHC2SH2CHFeC3H2CH2CHC4H2CHNCHNSH2CH
_chemical_formula_sum              "H720 C720 S240 N60 Fe120"
_cell_length_a       57.834
_cell_length_b       58.0731
_cell_length_c       54.9919
_cell_angle_alpha    78.4302
_cell_angle_beta     82.2565
_cell_angle_gamma    80.9505

_space_group_name_H-M_alt    "P 1"
_space_group_IT_number       1

loop_
  _space_group_symop_operation_xyz
  'x, y, z'

loop_
  _atom_site_type_symbol
  _atom_site_label
  _atom_site_symmetry_multiplicity
  _atom_site_fract_x
  _atom_site_fract_y
  _atom_site_fract_z
  _atom_site_occupancy
  H   H1        1.0  0.02087  0.41235  0.30754  1.0000
  H   H2        1.0  0.03026  0.46445  0.15742  1.0000
  C   C1        1.0  0.04941  0.22729  0.45462  1.0000
  H   H3        1.0  0.01643  0.27915  0.43211  1.0000
  C   C2        1.0  0.03750  0.36189  0.46422  1.0000
  C   C3        1.0  0.02283  0.11761  0.45747  1.0000
  C   C4        1.0  0.15319  0.45128  0.99816  1.0000
  H   H4        1.0  0.13819  0.11118  0.43204  1.0000
  H   H5        1.0  0.10382  0.24984  0.44484  1.0000
  H   H6        1.0  0.04249  0.28776  0.38866  1.0000
  H   H7        1.0  0.29890  0.99660  0.42412  1.0000
  C   C5        1.0  0.13406  0.04469  0.45631  1.0000
  S   S1        1.0  0.31407  0.44859  0.00044  1.0000
  N   N1        1.0  0.06890  0.29245  0.40984  1.0000
  S   S2        1.0  0.20472  0.44744  0.03078  1.0000
  C   C6        1.0  0.01768  0.24642  0.41895  1.0000
  C   C7        1.0  0.09301  0.26667  0.43926  1.0000
  C   C8        1.0  0.15664  0.07562  0.43450  1.0000
  H   H8        1.0  0.04328  0.37744  0.45194  1.0000
  H   H9        1.0  0.99989  0.37948  0.33200  1.0000
  H   H10       1.0  0.00092  0.32062  0.46768  1.0000
  H   H11       1.0  0.06820  0.31651  0.46119  1.0000
  C   C9        1.0  0.15515  0.05159  0.44345  1.0000
  H   H12       1.0  0.06947  0.44651  0.14024  1.0000
  C   C10       1.0  0.30827  0.98910  0.40852  1.0000
  C   C11       1.0  0.08759  0.28292  0.45541  1.0000
  N   N2        1.0  0.11499  0.06130  0.46017  1.0000
  C   C12       1.0  0.27096  0.46468  0.02276  1.0000
  H   H13       1.0  0.23870  0.41952  0.00183  1.0000
  C   C13       1.0  0.03924  0.25105  0.45215  1.0000
  C   C14       1.0  0.02347  0.26060  0.43436  1.0000
  C   C15       1.0  0.04303  0.21279  0.43987  1.0000
  S   S3        1.0  0.14677  0.47745  0.06106  1.0000
  C   C16       1.0  0.01681  0.11170  0.43593  1.0000
  H   H14       1.0  0.05080  0.19439  0.44172  1.0000
  C   C17       1.0  0.08331  0.27166  0.41649  1.0000
  C   C18       1.0  0.28364  0.44838  0.00856  1.0000
  H   H15       1.0  0.05140  0.32462  0.42075  1.0000
  C   C19       1.0  0.13049  0.46390  0.99832  1.0000
  C   C20       1.0  0.23496  0.44844  0.02191  1.0000
  C   C21       1.0  0.24760  0.43231  0.00750  1.0000
  C   C22       1.0  0.27186  0.43241  0.00065  1.0000
  H   H16       1.0  0.08682  0.25847  0.40454  1.0000
  H   H17       1.0  0.09203  0.46964  0.10483  1.0000
  C   C23       1.0  0.06202  0.46419  0.13185  1.0000
  C   C24       1.0  0.11619  0.08486  0.45111  1.0000
  H   H18       1.0  0.23693  0.47740  0.04028  1.0000
  S   S4        1.0  0.00994  0.36146  0.42825  1.0000
  S   S5        1.0  0.09437  0.14958  0.46294  1.0000
  H   H19       1.0  0.10164  0.46973  0.17289  1.0000
  H   H20       1.0  0.04388  0.26225  0.46375  1.0000
  C   C25       1.0  0.13704  0.09239  0.43829  1.0000
  C   C26       1.0  0.06332  0.30840  0.42567  1.0000
  H   H21       1.0  0.02286  0.21132  0.41005  1.0000
  C   C27       1.0  0.04006  0.47427  0.14152  1.0000
  C   C28       1.0  0.00354  0.41062  0.30334  1.0000
  C   C29       1.0  0.02104  0.35001  0.45707  1.0000
  H   H22       1.0  0.05311  0.31621  0.37969  1.0000
  S   S6        1.0  0.00809  0.45101  0.26853  1.0000
  H   H23       1.0  0.17313  0.08128  0.42526  1.0000
  C   C30       1.0  0.02725  0.22241  0.42194  1.0000
  H   H24       1.0  0.12133  0.46902  0.01539  1.0000
  H   H25       1.0  0.16128  0.44628  0.01546  1.0000
  Fe  Fe1       1.0  0.18520  0.47787  0.04803  1.0000
  H   H26       1.0  0.10105  0.09798  0.45415  1.0000
  C   C31       1.0  0.07271  0.30394  0.44859  1.0000
  H   H27       1.0  0.02933  0.10042  0.42550  1.0000
  H   H28       1.0  0.28150  0.41984  0.98961  1.0000
  C   C32       1.0  0.24660  0.46488  0.02923  1.0000
  H   H29       1.0  0.00156  0.46032  0.33846  1.0000
  H   H30       1.0  0.17050  0.03843  0.44133  1.0000
  C   C33       1.0  0.05837  0.29692  0.38623  1.0000
  H   H31       1.0  0.07103  0.29035  0.37128  1.0000
  H   H32       1.0  0.27999  0.47715  0.02878  1.0000
  S   S7        1.0  0.99931  0.25871  0.39530  1.0000
  H   H33       1.0  0.07896  0.05765  0.46120  1.0000
  C   C34       1.0  0.07469  0.47738  0.11180  1.0000
  S   S8        1.0  0.99967  0.32871  0.37742  1.0000
  H   H34       1.0  0.19945  0.09075  0.47276  1.0000
  H   H35       1.0  0.19152  0.42019  0.99412  1.0000
  C   C35       1.0  0.99298  0.42720  0.28433  1.0000
  H   H36       1.0  0.13337  0.02601  0.46384  1.0000
  C   C36       1.0  0.12000  0.47064  0.97612  1.0000
  S   S9        1.0  0.05027  0.10526  0.46781  1.0000
  C   C37       1.0  0.99474  0.12052  0.42761  1.0000
  C   C38       1.0  0.99171  0.39199  0.31723  1.0000
  N   N3        1.0  0.16510  0.44552  0.97648  1.0000
  C   C39       1.0  0.18927  0.43320  0.97648  1.0000
  C   C40       1.0  0.00654  0.13217  0.47096  1.0000
  C   C41       1.0  0.01367  0.32987  0.47304  1.0000
  H   H37       1.0  0.99030  0.11599  0.41080  1.0000
  H   H38       1.0  0.09442  0.27894  0.47346  1.0000
  H   H39       1.0  0.20180  0.44625  0.97486  1.0000
  C   C42       1.0  0.09299  0.05412  0.47397  1.0000
  C   C43       1.0  0.15457  0.42211  0.77913  1.0000
  C   C44       1.0  0.15849  0.07556  0.55870  1.0000
  H   H40       1.0  0.06417  0.43965  0.62289  1.0000
  H   H41       1.0  0.14422  0.03488  0.51610  1.0000
  H   H42       1.0  0.20202  0.41426  0.83347  1.0000
  S   S10       1.0  0.19259  0.42201  0.90444  1.0000
  H   H43       1.0  0.13274  0.46552  0.83184  1.0000
  C   C45       1.0  0.04663  0.35380  0.48717  1.0000
  Fe  Fe2       1.0  0.05630  0.44945  0.74730  1.0000
  S   S11       1.0  0.08233  0.44535  0.77665  1.0000
  Fe  Fe3       1.0  0.03310  0.42152  0.71538  1.0000
  N   N4        1.0  0.16653  0.09686  0.54922  1.0000
  S   S12       1.0  0.04240  0.39082  0.69340  1.0000
  C   C46       1.0  0.99152  0.20562  0.50545  1.0000
  H   H44       1.0  0.01655  0.30669  0.50892  1.0000
  S   S13       1.0  0.06004  0.44705  0.70649  1.0000
  S   S14       1.0  0.03220  0.42116  0.75663  1.0000
  S   S15       1.0  0.06686  0.13718  0.57551  1.0000
  H   H45       1.0  0.04421  0.40653  0.61747  1.0000
  C   C47       1.0  0.29362  0.98596  0.56307  1.0000
  C   C48       1.0  0.01226  0.29758  0.69214  1.0000
  Fe  Fe4       1.0  0.07624  0.14206  0.53407  1.0000
  S   S16       1.0  0.03470  0.29708  0.60219  1.0000
  H   H46       1.0  0.00478  0.25484  0.66132  1.0000
  H   H47       1.0  0.99532  0.25412  0.52119  1.0000
  H   H48       1.0  0.11804  0.13404  0.56507  1.0000
  S   S17       1.0  0.03877  0.22869  0.62516  1.0000
  H   H49       1.0  0.13115  0.07807  0.50967  1.0000
  C   C49       1.0  0.18736  0.07856  0.48225  1.0000
  H   H50       1.0  0.01805  0.21693  0.55161  1.0000
  C   C50       1.0  0.05977  0.16320  0.58837  1.0000
  C   C51       1.0  0.05410  0.16100  0.61419  1.0000
  C   C52       1.0  0.04792  0.18121  0.62515  1.0000
  C   C53       1.0  0.04697  0.20388  0.61039  1.0000
  C   C54       1.0  0.05286  0.20623  0.58449  1.0000
  C   C55       1.0  0.05938  0.18588  0.57347  1.0000
  H   H51       1.0  0.05441  0.14357  0.62581  1.0000
  H   H52       1.0  0.04355  0.17924  0.64516  1.0000
  H   H53       1.0  0.05280  0.22369  0.57305  1.0000
  H   H54       1.0  0.06397  0.18774  0.55350  1.0000
  C   C56       1.0  0.02542  0.37622  0.67795  1.0000
  C   C57       1.0  0.03713  0.36255  0.66037  1.0000
  C   C58       1.0  0.02462  0.35009  0.64807  1.0000
  H   H55       1.0  0.02573  0.32364  0.70751  1.0000
  C   C59       1.0  0.31734  0.42460  0.86982  1.0000
  C   C60       1.0  0.05317  0.30335  0.68692  1.0000
  H   H56       1.0  0.05605  0.36154  0.65626  1.0000
  H   H57       1.0  0.03394  0.33961  0.63469  1.0000
  H   H58       1.0  0.19093  0.44528  0.82396  1.0000
  S   S18       1.0  0.09026  0.11070  0.51578  1.0000
  H   H59       1.0  0.05947  0.36305  0.49247  1.0000
  C   C61       1.0  0.22161  0.41035  0.91051  1.0000
  C   C62       1.0  0.22922  0.38647  0.90963  1.0000
  C   C63       1.0  0.25251  0.37679  0.91318  1.0000
  C   C64       1.0  0.26820  0.39066  0.91855  1.0000
  C   C65       1.0  0.26038  0.41441  0.92054  1.0000
  C   C66       1.0  0.23717  0.42442  0.91597  1.0000
  H   H60       1.0  0.21727  0.37550  0.90557  1.0000
  H   H61       1.0  0.25845  0.35846  0.91165  1.0000
  H   H62       1.0  0.27242  0.42520  0.92471  1.0000
  Fe  Fe5       1.0  0.00274  0.45150  0.75172  1.0000
  Fe  Fe6       1.0  0.02740  0.30509  0.56202  1.0000
  C   C67       1.0  0.00811  0.44652  0.64606  1.0000
  H   H63       1.0  0.28159  0.41802  0.87097  1.0000
  C   C68       1.0  0.28408  0.45539  0.86609  1.0000
  C   C69       1.0  0.00650  0.40929  0.62196  1.0000
  C   C70       1.0  0.14885  0.07156  0.50294  1.0000
  Fe  Fe7       1.0  0.06706  0.12864  0.48614  1.0000
  C   C71       1.0  0.17045  0.42829  0.79304  1.0000
  H   H64       1.0  0.10296  0.09568  0.58166  1.0000
  C   C72       1.0  0.30079  0.99701  0.58095  1.0000
  H   H65       1.0  0.23133  0.44290  0.91682  1.0000
  H   H66       1.0  0.09989  0.44736  0.82209  1.0000
  S   S19       1.0  0.18657  0.00698  0.50148  1.0000
  C   C73       1.0  0.15637  0.04704  0.50670  1.0000
  S   S20       1.0  0.25853  0.98912  0.48047  1.0000
  C   C74       1.0  0.18591  0.42751  0.83263  1.0000
  S   S21       1.0  0.21113  0.47412  0.85328  1.0000
  N   N5        1.0  0.02855  0.43486  0.63623  1.0000
  C   C75       1.0  0.10966  0.45836  0.80729  1.0000
  H   H67       1.0  0.99118  0.25766  0.69213  1.0000
  H   H68       1.0  0.99177  0.15328  0.54635  1.0000
  H   H69       1.0  0.05838  0.42940  0.65615  1.0000
  H   H70       1.0  0.00612  0.39430  0.61303  1.0000
  H   H71       1.0  0.16466  0.44841  0.93730  1.0000
  C   C76       1.0  0.00983  0.20712  0.54113  1.0000
  S   S22       1.0  0.00171  0.44974  0.71120  1.0000
  S   S23       1.0  0.15525  0.11845  0.48590  1.0000
  H   H72       1.0  0.17809  0.42863  0.85205  1.0000
  Fe  Fe8       1.0  0.18838  0.46055  0.88760  1.0000
  C   C77       1.0  0.00096  0.37727  0.68308  1.0000
  C   C78       1.0  0.10386  0.46162  0.78267  1.0000
  C   C79       1.0  0.13676  0.39992  0.81697  1.0000
  H   H73       1.0  0.99167  0.38759  0.69661  1.0000
  C   C80       1.0  0.15295  0.40639  0.83031  1.0000
  H   H74       1.0  0.28466  0.47686  0.95405  1.0000
  S   S24       1.0  0.05009  0.15762  0.50670  1.0000
  H   H75       1.0  0.07618  0.28088  0.66443  1.0000
  H   H76       1.0  0.12473  0.47104  0.93651  1.0000
  H   H77       1.0  0.27637  0.99148  0.55668  1.0000
  C   C81       1.0  0.04016  0.27389  0.66848  1.0000
  C   C82       1.0  0.19487  0.05391  0.48581  1.0000
  H   H78       1.0  0.00855  0.46105  0.65561  1.0000
  C   C83       1.0  0.17926  0.03807  0.49790  1.0000
  C   C84       1.0  0.12933  0.11752  0.56327  1.0000
  H   H79       1.0  0.15855  0.13457  0.54365  1.0000
  S   S25       1.0  0.29782  0.37808  0.92001  1.0000
  C   C85       1.0  0.19089  0.09751  0.53777  1.0000
  H   H80       1.0  0.19845  0.08056  0.53153  1.0000
  S   S26       1.0  0.05100  0.32458  0.53196  1.0000
  C   C86       1.0  0.15228  0.11768  0.55138  1.0000
  C   C87       1.0  0.12087  0.09592  0.57268  1.0000
  H   H81       1.0  0.20198  0.10089  0.55131  1.0000
  C   C88       1.0  0.99518  0.17122  0.53832  1.0000
  C   C89       1.0  0.02241  0.32207  0.49643  1.0000
  C   C90       1.0  0.03899  0.33405  0.50343  1.0000
  H   H82       1.0  0.19164  0.11171  0.52086  1.0000
  H   H83       1.0  0.28890  0.01101  0.58815  1.0000
  Fe  Fe9       1.0  0.22070  0.98285  0.49321  1.0000
  C   C91       1.0  0.13549  0.07477  0.57034  1.0000
  H   H84       1.0  0.26525  0.46091  0.86611  1.0000
  N   N6        1.0  0.16921  0.42075  0.81835  1.0000
  C   C92       1.0  0.16424  0.08746  0.49063  1.0000
  Fe  Fe10      1.0  0.99661  0.31069  0.61039  1.0000
  Fe  Fe11      1.0  0.02227  0.26231  0.60237  1.0000
  H   H85       1.0  0.06697  0.31283  0.68994  1.0000
  H   H86       1.0  0.12902  0.05788  0.57745  1.0000
  C   C93       1.0  0.12840  0.46858  0.81288  1.0000
  S   S27       1.0  0.01905  0.26890  0.56136  1.0000
  H   H87       1.0  0.15219  0.40018  0.85034  1.0000
  H   H88       1.0  0.16972  0.05902  0.55686  1.0000
  C   C94       1.0  0.13238  0.46504  0.95403  1.0000
  C   C95       1.0  0.15507  0.45244  0.95456  1.0000
  H   H89       1.0  0.18317  0.43990  0.78359  1.0000
  S   S28       1.0  0.10474  0.16326  0.51496  1.0000
  H   H90       1.0  0.01102  0.13650  0.48782  1.0000
  C   C96       1.0  0.02798  0.41634  0.62447  1.0000
  H   H91       1.0  0.12450  0.40388  0.78080  1.0000
  H   H92       1.0  0.15490  0.42895  0.75923  1.0000
  S   S29       1.0  0.15470  0.47687  0.87181  1.0000
  C   C97       1.0  0.03003  0.30934  0.69692  1.0000
  C   C98       1.0  0.29940  0.47230  0.86366  1.0000
  C   C99       1.0  0.13753  0.40798  0.79124  1.0000
  H   H93       1.0  0.04433  0.26007  0.65728  1.0000
  Fe  Fe12      1.0  0.02860  0.47530  0.70318  1.0000
  Fe  Fe13      1.0  0.32260  0.39475  0.93716  1.0000
  H   H94       1.0  0.12339  0.38913  0.82653  1.0000
  C   C100      1.0  0.05130  0.44127  0.63956  1.0000
  H   H95       1.0  0.99416  0.30294  0.69914  1.0000
  H   H96       1.0  0.04957  0.45990  0.64249  1.0000
  C   C101      1.0  0.00022  0.35069  0.65362  1.0000
  Fe  Fe14      1.0  0.11678  0.13320  0.49402  1.0000
  Fe  Fe15      1.0  0.07939  0.17724  0.48619  1.0000
  N   N7        1.0  0.01748  0.28003  0.67820  1.0000
  C   C102      1.0  0.05831  0.28555  0.67255  1.0000
  S   S30       1.0  0.02681  0.47979  0.74319  1.0000
  C   C103      1.0  0.00646  0.18367  0.55135  1.0000
  H   H97       1.0  0.08710  0.06453  0.48914  1.0000
  H   H98       1.0  0.21255  0.04716  0.47894  1.0000
  N   N8        1.0  0.32312  0.46553  0.86392  1.0000
  C   C104      1.0  0.11686  0.47564  0.76367  1.0000
  H   H99       1.0  0.02469  0.24456  0.50750  1.0000
  H   H100      1.0  0.09497  0.03502  0.48267  1.0000
  H   H101      1.0  0.01216  0.17535  0.56945  1.0000
  H   H102      1.0  0.31759  0.99075  0.49102  1.0000
  C   C105      1.0  0.99851  0.26768  0.67413  1.0000
  H   H103      1.0  0.11283  0.47806  0.74459  1.0000
  H   H104      1.0  0.19406  0.42325  0.96080  1.0000
  C   C106      1.0  0.29321  0.43141  0.86893  1.0000
  N   N9        1.0  0.00241  0.21777  0.51849  1.0000
  H   H105      1.0  0.31149  0.98533  0.66545  1.0000
  S   S31       1.0  0.07122  0.21687  0.47499  1.0000
  C   C107      1.0  0.32308  0.99002  0.58974  1.0000
  S   S32       1.0  0.32209  0.43381  0.93449  1.0000
  C   C108      1.0  0.00575  0.24255  0.50869  1.0000
  H   H106      1.0  0.99990  0.24881  0.48977  1.0000
  H   H107      1.0  0.18343  0.91725  0.47019  1.0000
  H   H108      1.0  0.07834  0.53797  0.98148  1.0000
  H   H109      1.0  0.07013  0.63138  0.47038  1.0000
  S   S33       1.0  0.03849  0.53777  0.17037  1.0000
  S   S34       1.0  0.01099  0.51447  0.24034  1.0000
  S   S35       1.0  0.30930  0.60292  0.98185  1.0000
  H   H110      1.0  0.07337  0.51143  0.06271  1.0000
  S   S36       1.0  0.31519  0.54280  0.03210  1.0000
  C   C109      1.0  0.00391  0.57200  0.27920  1.0000
  S   S37       1.0  0.20427  0.55816  0.05416  1.0000
  S   S38       1.0  0.14611  0.53146  0.07105  1.0000
  Fe  Fe16      1.0  0.03582  0.64938  0.38941  1.0000
  S   S39       1.0  0.05029  0.65822  0.34939  1.0000
  S   S40       1.0  0.05922  0.63539  0.41998  1.0000
  H   H111      1.0  0.18234  0.56165  0.10957  1.0000
  Fe  Fe17      1.0  0.01692  0.64713  0.34055  1.0000
  S   S41       1.0  0.02284  0.62304  0.31098  1.0000
  Fe  Fe18      1.0  0.02974  0.69413  0.35068  1.0000
  S   S42       1.0  0.04546  0.72809  0.33553  1.0000
  S   S43       1.0  0.01766  0.68593  0.39111  1.0000
  H   H112      1.0  0.01418  0.50550  0.13883  1.0000
  H   H113      1.0  0.26819  0.85625  0.45046  1.0000
  S   S44       1.0  0.09055  0.82334  0.44217  1.0000
  Fe  Fe19      1.0  0.18468  0.52707  0.05762  1.0000
  S   S45       1.0  0.14177  0.79046  0.43781  1.0000
  H   H114      1.0  0.09090  0.66476  0.43337  1.0000
  H   H115      1.0  0.21737  0.85488  0.44262  1.0000
  Fe  Fe20      1.0  0.10592  0.79106  0.42579  1.0000
  S   S46       1.0  0.10233  0.78744  0.38631  1.0000
  C   C110      1.0  0.10942  0.49848  0.14283  1.0000
  H   H116      1.0  0.15374  0.90227  0.45069  1.0000
  H   H117      1.0  0.23120  0.93789  0.41015  1.0000
  Fe  Fe21      1.0  0.99322  0.48247  0.24075  1.0000
  H   H118      1.0  0.03986  0.79087  0.35677  1.0000
  C   C111      1.0  0.02031  0.82229  0.40293  1.0000
  N   N10       1.0  0.06576  0.50004  0.10179  1.0000
  C   C112      1.0  0.04150  0.63266  0.44859  1.0000
  C   C113      1.0  0.00820  0.69765  0.45929  1.0000
  H   H119      1.0  0.03204  0.63885  0.25070  1.0000
  S   S47       1.0  0.19269  0.49116  0.08144  1.0000
  C   C114      1.0  0.99668  0.81883  0.40596  1.0000
  Fe  Fe22      1.0  0.01102  0.52061  0.19878  1.0000
  H   H120      1.0  0.19164  0.88029  0.41275  1.0000
  H   H121      1.0  0.24757  0.56773  0.98364  1.0000
  C   C115      1.0  0.01727  0.63256  0.44923  1.0000
  H   H122      1.0  0.15251  0.51668  0.98500  1.0000
  C   C116      1.0  0.06155  0.74241  0.35183  1.0000
  C   C117      1.0  0.07698  0.75733  0.33744  1.0000
  C   C118      1.0  0.08937  0.77046  0.34864  1.0000
  C   C119      1.0  0.08642  0.76923  0.37448  1.0000
  C   C120      1.0  0.07091  0.75434  0.38929  1.0000
  C   C121      1.0  0.05855  0.74076  0.37794  1.0000
  H   H123      1.0  0.07928  0.75891  0.31733  1.0000
  H   H124      1.0  0.10117  0.78194  0.33702  1.0000
  H   H125      1.0  0.06836  0.75343  0.40930  1.0000
  H   H126      1.0  0.04633  0.72959  0.38921  1.0000
  H   H127      1.0  0.01419  0.68022  0.45470  1.0000
  Fe  Fe23      1.0  0.14232  0.51431  0.03906  1.0000
  N   N11       1.0  0.21494  0.54038  0.11784  1.0000
  H   H128      1.0  0.99986  0.49169  0.29488  1.0000
  H   H129      1.0  0.02278  0.56499  0.22014  1.0000
  H   H130      1.0  0.30607  0.94662  0.37476  1.0000
  C   C122      1.0  0.28434  0.54679  0.03811  1.0000
  C   C123      1.0  0.27169  0.56948  0.03333  1.0000
  C   C124      1.0  0.24710  0.57268  0.03817  1.0000
  C   C125      1.0  0.23495  0.55316  0.04722  1.0000
  C   C126      1.0  0.24749  0.53033  0.05170  1.0000
  C   C127      1.0  0.27223  0.52720  0.04750  1.0000
  H   H131      1.0  0.28089  0.58471  0.02663  1.0000
  H   H132      1.0  0.23747  0.59039  0.03489  1.0000
  H   H133      1.0  0.23822  0.51518  0.05884  1.0000
  H   H134      1.0  0.28196  0.50960  0.05130  1.0000
  C   C128      1.0  0.06607  0.52246  0.16085  1.0000
  C   C129      1.0  0.10166  0.52164  0.13135  1.0000
  C   C130      1.0  0.08015  0.53360  0.14041  1.0000
  H   H135      1.0  0.11214  0.53038  0.11546  1.0000
  H   H136      1.0  0.07423  0.55147  0.13131  1.0000
  H   H137      1.0  0.24567  0.55309  0.09697  1.0000
  C   C131      1.0  0.01692  0.58581  0.28926  1.0000
  C   C132      1.0  0.18805  0.50449  0.14003  1.0000
  H   H138      1.0  0.03594  0.58332  0.28597  1.0000
  C   C133      1.0  0.03098  0.49728  0.13103  1.0000
  H   H139      1.0  0.09832  0.50745  0.08029  1.0000
  C   C134      1.0  0.22808  0.91963  0.41701  1.0000
  C   C135      1.0  0.07398  0.49944  0.17262  1.0000
  S   S48       1.0  0.99665  0.48692  0.19868  1.0000
  H   H140      1.0  0.09220  0.69240  0.36572  1.0000
  C   C136      1.0  0.11025  0.68893  0.44467  1.0000
  H   H141      1.0  0.02649  0.83285  0.41432  1.0000
  H   H142      1.0  0.01296  0.55896  0.26845  1.0000
  H   H143      1.0  0.27932  0.53648  0.99047  1.0000
  C   C137      1.0  0.30013  0.97036  0.40119  1.0000
  H   H144      1.0  0.06334  0.49074  0.18849  1.0000
  C   C138      1.0  0.19093  0.54454  0.11818  1.0000
  H   H145      1.0  0.00954  0.63345  0.43223  1.0000
  N   N12       1.0  0.00453  0.79490  0.37405  1.0000
  C   C139      1.0  0.22917  0.55965  0.10786  1.0000
  C   C140      1.0  0.24232  0.90482  0.43402  1.0000
  S   S49       1.0  0.00405  0.63564  0.38116  1.0000
  H   H146      1.0  0.09587  0.66344  0.38525  1.0000
  S   S50       1.0  0.99756  0.68453  0.33800  1.0000
  H   H147      1.0  0.00878  0.86413  0.44870  1.0000
  C   C141      1.0  0.07909  0.51352  0.08055  1.0000
  H   H148      1.0  0.23367  0.56721  0.12335  1.0000
  C   C142      1.0  0.04410  0.50995  0.11096  1.0000
  C   C143      1.0  0.20981  0.91079  0.40918  1.0000
  H   H149      1.0  0.12962  0.71604  0.45019  1.0000
  H   H150      1.0  0.07658  0.53269  0.08157  1.0000
  C   C144      1.0  0.00559  0.60334  0.30284  1.0000
  C   C145      1.0  0.17713  0.52666  0.12928  1.0000
  C   C146      1.0  0.16442  0.89008  0.46367  1.0000
  H   H151      1.0  0.22407  0.55057  0.99783  1.0000
  C   C147      1.0  0.02154  0.58208  0.20671  1.0000
  Fe  Fe24      1.0  0.25854  0.96202  0.45620  1.0000
  C   C148      1.0  0.16147  0.86588  0.46896  1.0000
  C   C149      1.0  0.20617  0.88726  0.41818  1.0000
  C   C150      1.0  0.22076  0.87295  0.43518  1.0000
  H   H152      1.0  0.07002  0.68422  0.39069  1.0000
  H   H153      1.0  0.15810  0.52982  0.12936  1.0000
  S   S51       1.0  0.11007  0.52503  0.01887  1.0000
  C   C151      1.0  0.21253  0.50031  0.13928  1.0000
  H   H154      1.0  0.10951  0.68002  0.46407  1.0000
  H   H155      1.0  0.17755  0.49043  0.14855  1.0000
  H   H156      1.0  0.05436  0.81476  0.38257  1.0000
  N   N13       1.0  0.01264  0.60171  0.22003  1.0000
  C   C152      1.0  0.02810  0.61288  0.22879  1.0000
  N   N14       1.0  0.10093  0.69151  0.40279  1.0000
  C   C153      1.0  0.11221  0.71116  0.39499  1.0000
  C   C154      1.0  0.09986  0.68037  0.42725  1.0000
  C   C155      1.0  0.12248  0.72039  0.41195  1.0000
  H   H157      1.0  0.04691  0.60753  0.22566  1.0000
  C   C156      1.0  0.12158  0.70910  0.43691  1.0000
  C   C157      1.0  0.08931  0.68251  0.38518  1.0000
  Fe  Fe25      1.0  0.15334  0.49445  0.09219  1.0000
  Fe  Fe26      1.0  0.12572  0.82093  0.45719  1.0000
  H   H158      1.0  0.19836  0.92219  0.39633  1.0000
  H   H159      1.0  0.25640  0.91192  0.44008  1.0000
  H   H160      1.0  0.00976  0.58115  0.19264  1.0000
  C   C158      1.0  0.01984  0.63074  0.24276  1.0000
  C   C159      1.0  0.11505  0.52727  0.98634  1.0000
  N   N15       1.0  0.23835  0.88190  0.44313  1.0000
  C   C160      1.0  0.02764  0.79855  0.37065  1.0000
  C   C161      1.0  0.00649  0.84775  0.46163  1.0000
  H   H161      1.0  0.03710  0.52799  0.10326  1.0000
  H   H162      1.0  0.11286  0.72022  0.37566  1.0000
  S   S52       1.0  0.18019  0.51358  0.02342  1.0000
  H   H163      1.0  0.13082  0.73640  0.40580  1.0000
  C   C162      1.0  0.03592  0.81217  0.38511  1.0000
  C   C163      1.0  0.31233  0.96100  0.38068  1.0000
  C   C164      1.0  0.23579  0.55548  0.98040  1.0000
  S   S53       1.0  0.14131  0.85593  0.45270  1.0000
  H   H164      1.0  0.00940  0.77524  0.34406  1.0000
  C   C165      1.0  0.09569  0.48759  0.16376  1.0000
  S   S54       1.0  0.09388  0.76525  0.45897  1.0000
  S   S55       1.0  0.27500  0.95787  0.41714  1.0000
  C   C166      1.0  0.22579  0.51860  0.12811  1.0000
  H   H165      1.0  0.21967  0.57411  0.09486  1.0000
  H   H166      1.0  0.24482  0.51527  0.12768  1.0000
  C   C167      1.0  0.05137  0.63146  0.47077  1.0000
  H   H167      1.0  0.99276  0.76255  0.37219  1.0000
  H   H168      1.0  0.03924  0.58407  0.19645  1.0000
  H   H169      1.0  0.22116  0.48297  0.14721  1.0000
  H   H170      1.0  0.04344  0.83848  0.46619  1.0000
  C   C168      1.0  0.99625  0.77955  0.35981  1.0000
  S   S56       1.0  0.13576  0.48244  0.13112  1.0000
  S   S57       1.0  0.21999  0.95865  0.46601  1.0000
  C   C169      1.0  0.27158  0.52655  0.97968  1.0000
  C   C170      1.0  0.25363  0.86651  0.46070  1.0000
  C   C171      1.0  0.99346  0.74226  0.47105  1.0000
  C   C172      1.0  0.99565  0.63697  0.24795  1.0000
  H   H171      1.0  0.30229  0.50012  0.97818  1.0000
  H   H172      1.0  0.24339  0.85412  0.47450  1.0000
  C   C173      1.0  0.00291  0.63113  0.47196  1.0000
  Fe  Fe27      1.0  0.12801  0.76694  0.47269  1.0000
  H   H173      1.0  0.26106  0.87706  0.47182  1.0000
  C   C174      1.0  0.02610  0.83317  0.47137  1.0000
  H   H174      1.0  0.10264  0.48096  0.97589  1.0000
  C   C175      1.0  0.02061  0.70683  0.47447  1.0000
  C   C176      1.0  0.29009  0.66173  0.94104  1.0000
  C   C177      1.0  0.09361  0.59888  0.60276  1.0000
  C   C178      1.0  0.09613  0.52231  0.80267  1.0000
  S   S58       1.0  0.27409  0.59132  0.93089  1.0000
  S   S59       1.0  0.12442  0.52636  0.90289  1.0000
  C   C179      1.0  0.11410  0.53644  0.79401  1.0000
  H   H175      1.0  0.14629  0.49577  0.75427  1.0000
  H   H176      1.0  0.07642  0.53563  0.61701  1.0000
  S   S60       1.0  0.17990  0.52575  0.85367  1.0000
  H   H177      1.0  0.08764  0.51612  0.78921  1.0000
  H   H178      1.0  0.04006  0.74839  0.48392  1.0000
  C   C180      1.0  0.30868  0.96768  0.55375  1.0000
  Fe  Fe28      1.0  0.21135  0.50512  0.87232  1.0000
  S   S61       1.0  0.24779  0.51355  0.87583  1.0000
  C   C181      1.0  0.13705  0.66853  0.52824  1.0000
  C   C182      1.0  0.29405  0.64383  0.90448  1.0000
  Fe  Fe29      1.0  0.01376  0.64017  0.55004  1.0000
  N   N16       1.0  0.31590  0.95041  0.65796  1.0000
  Fe  Fe30      1.0  0.06110  0.64915  0.56046  1.0000
  S   S62       1.0  0.04606  0.66345  0.59492  1.0000
  S   S63       1.0  0.10010  0.64531  0.54964  1.0000
  Fe  Fe31      1.0  0.02501  0.63273  0.60345  1.0000
  S   S64       1.0  0.02269  0.61233  0.64327  1.0000
  Fe  Fe32      1.0  0.01719  0.68262  0.57201  1.0000
  H   H179      1.0  0.24413  0.49060  0.94186  1.0000
  S   S65       1.0  0.04241  0.61688  0.57050  1.0000
  S   S66       1.0  0.03420  0.67083  0.53681  1.0000
  H   H180      1.0  0.04462  0.62941  0.51059  1.0000
  S   S67       1.0  0.00405  0.72153  0.56861  1.0000
  S   S68       1.0  0.30038  0.95238  0.53189  1.0000
  S   S69       1.0  0.04719  0.79372  0.50092  1.0000
  C   C183      1.0  0.11873  0.53767  0.83662  1.0000
  C   C184      1.0  0.13422  0.70886  0.50489  1.0000
  C   C185      1.0  0.09028  0.56293  0.58860  1.0000
  H   H181      1.0  0.06975  0.59638  0.66238  1.0000
  C   C186      1.0  0.02245  0.58131  0.64956  1.0000
  C   C187      1.0  0.02373  0.56879  0.67414  1.0000
  C   C188      1.0  0.02520  0.54387  0.67948  1.0000
  C   C189      1.0  0.02536  0.53134  0.66022  1.0000
  C   C190      1.0  0.02381  0.54390  0.63571  1.0000
  C   C191      1.0  0.02232  0.56878  0.63038  1.0000
  H   H182      1.0  0.02375  0.57840  0.68908  1.0000
  H   H183      1.0  0.02634  0.53436  0.69842  1.0000
  C   C192      1.0  0.17539  0.85039  0.48587  1.0000
  H   H184      1.0  0.02124  0.57822  0.61142  1.0000
  C   C193      1.0  0.11253  0.66981  0.53152  1.0000
  C   C194      1.0  0.09872  0.69053  0.52091  1.0000
  N   N17       1.0  0.08467  0.58948  0.62633  1.0000
  C   C195      1.0  0.09580  0.53356  0.97234  1.0000
  H   H185      1.0  0.31531  0.95141  0.48010  1.0000
  C   C196      1.0  0.09899  0.53384  0.94659  1.0000
  H   H186      1.0  0.07976  0.69168  0.52342  1.0000
  C   C197      1.0  0.31113  0.96678  0.67569  1.0000
  H   H187      1.0  0.09815  0.61679  0.59858  1.0000
  H   H188      1.0  0.22497  0.56555  0.96551  1.0000
  Fe  Fe33      1.0  0.15892  0.50822  0.88787  1.0000
  S   S70       1.0  0.99429  0.63002  0.52220  1.0000
  S   S71       1.0  0.02846  0.50004  0.66547  1.0000
  Fe  Fe34      1.0  0.30892  0.58779  0.94727  1.0000
  Fe  Fe35      1.0  0.17724  0.49293  0.83859  1.0000
  H   H189      1.0  0.29533  0.94138  0.60631  1.0000
  H   H190      1.0  0.13999  0.55438  0.80474  1.0000
  H   H191      1.0  0.28816  0.96863  0.63661  1.0000
  H   H192      1.0  0.09193  0.55283  0.57371  1.0000
  H   H193      1.0  0.29360  0.96521  0.68641  1.0000
  C   C198      1.0  0.12143  0.52773  0.93473  1.0000
  H   H194      1.0  0.28735  0.63329  0.89344  1.0000
  C   C199      1.0  0.02306  0.81218  0.48836  1.0000
  C   C200      1.0  0.26681  0.56894  0.91660  1.0000
  C   C201      1.0  0.24363  0.57014  0.91081  1.0000
  C   C202      1.0  0.23732  0.55296  0.89897  1.0000
  C   C203      1.0  0.25431  0.53467  0.89233  1.0000
  C   C204      1.0  0.27744  0.53337  0.89831  1.0000
  C   C205      1.0  0.28362  0.55027  0.91059  1.0000
  H   H195      1.0  0.23050  0.58457  0.91529  1.0000
  H   H196      1.0  0.21950  0.55427  0.89436  1.0000
  H   H197      1.0  0.29072  0.51930  0.89335  1.0000
  H   H198      1.0  0.30153  0.54911  0.91487  1.0000
  S   S72       1.0  0.22990  0.95273  0.52491  1.0000
  Fe  Fe36      1.0  0.08138  0.79710  0.47671  1.0000
  C   C206      1.0  0.12558  0.54397  0.81115  1.0000
  S   S73       1.0  0.19024  0.48999  0.90762  1.0000
  H   H199      1.0  0.20292  0.84676  0.50989  1.0000
  Fe  Fe37      1.0  0.23097  0.92906  0.49674  1.0000
  N   N18       1.0  0.09007  0.51555  0.82775  1.0000
  N   N19       1.0  0.06241  0.75204  0.56151  1.0000
  C   C207      1.0  0.06482  0.72879  0.57322  1.0000
  C   C208      1.0  0.08155  0.76189  0.54876  1.0000
  C   C209      1.0  0.08694  0.71496  0.57297  1.0000
  C   C210      1.0  0.10396  0.74859  0.54819  1.0000
  C   C211      1.0  0.10664  0.72505  0.56057  1.0000
  C   C212      1.0  0.03895  0.76597  0.56147  1.0000
  H   H200      1.0  0.04954  0.72079  0.58272  1.0000
  H   H201      1.0  0.07954  0.78009  0.53877  1.0000
  H   H202      1.0  0.08874  0.69640  0.58183  1.0000
  H   H203      1.0  0.11909  0.75626  0.53772  1.0000
  H   H204      1.0  0.12384  0.71441  0.55970  1.0000
  H   H205      1.0  0.02978  0.76239  0.54640  1.0000
  H   H206      1.0  0.02805  0.76128  0.57954  1.0000
  H   H207      1.0  0.03995  0.78533  0.55813  1.0000
  H   H208      1.0  0.99795  0.78984  0.50907  1.0000
  H   H209      1.0  0.07324  0.62200  0.63909  1.0000
  H   H210      1.0  0.06786  0.49128  0.82190  1.0000
  C   C213      1.0  0.19542  0.88310  0.49133  1.0000
  C   C214      1.0  0.28467  0.50606  0.97276  1.0000
  C   C215      1.0  0.13761  0.52168  0.97437  1.0000
  H   H211      1.0  0.11960  0.54088  0.77419  1.0000
  H   H212      1.0  0.05491  0.51140  0.84271  1.0000
  H   H213      1.0  0.29221  0.49091  0.86158  1.0000
  C   C216      1.0  0.19220  0.85897  0.49698  1.0000
  C   C217      1.0  0.09656  0.58578  0.58354  1.0000
  C   C218      1.0  0.10086  0.52334  0.84467  1.0000
  H   H214      1.0  0.31944  0.67844  0.94532  1.0000
  H   H215      1.0  0.08397  0.53847  0.93594  1.0000
  H   H216      1.0  0.07215  0.55925  0.65033  1.0000
  C   C219      1.0  0.23938  0.52121  0.95973  1.0000
  H   H217      1.0  0.17338  0.83175  0.49019  1.0000
  N   N20       1.0  0.24938  0.53408  0.97281  1.0000
  H   H218      1.0  0.16682  0.68686  0.51307  1.0000
  S   S74       1.0  0.11485  0.79698  0.49321  1.0000
  C   C220      1.0  0.08165  0.55328  0.61283  1.0000
  C   C221      1.0  0.03691  0.63045  0.49350  1.0000
  H   H219      1.0  0.12736  0.54365  0.85011  1.0000
  C   C222      1.0  0.25194  0.50054  0.95261  1.0000
  C   C223      1.0  0.08170  0.60370  0.64603  1.0000
  C   C224      1.0  0.14081  0.52192  0.94856  1.0000
  C   C225      1.0  0.14194  0.48191  0.79380  1.0000
  C   C226      1.0  0.07918  0.56680  0.63163  1.0000
  C   C227      1.0  0.02656  0.73832  0.49588  1.0000
  C   C228      1.0  0.00047  0.80574  0.49553  1.0000
  H   H220      1.0  0.03626  0.69620  0.48158  1.0000
  C   C229      1.0  0.01265  0.63032  0.49408  1.0000
  H   H221      1.0  0.10314  0.59359  0.56473  1.0000
  H   H222      1.0  0.09891  0.72622  0.49997  1.0000
  C   C230      1.0  0.10960  0.71006  0.50748  1.0000
  H   H223      1.0  0.15821  0.51750  0.93946  1.0000
  H   H224      1.0  0.14782  0.65255  0.53626  1.0000
  C   C231      1.0  0.13592  0.48554  0.76921  1.0000
  C   C232      1.0  0.31624  0.65130  0.89757  1.0000
  C   C233      1.0  0.28097  0.64904  0.92640  1.0000
  S   S75       1.0  0.21818  0.89253  0.50443  1.0000
  C   C234      1.0  0.30602  0.93834  0.62174  1.0000
  Fe  Fe38      1.0  0.26762  0.95761  0.51077  1.0000
  H   H225      1.0  0.03523  0.72398  0.50962  1.0000
  C   C235      1.0  0.14782  0.68795  0.51509  1.0000
  S   S76       1.0  0.99446  0.65353  0.58374  1.0000
  S   S77       1.0  0.14888  0.73311  0.49003  1.0000
  H   H226      1.0  0.02380  0.53435  0.62073  1.0000
  N   N21       1.0  0.01302  0.72877  0.48041  1.0000
  H   H227      1.0  0.09902  0.60441  0.65219  1.0000
  H   H228      1.0  0.09588  0.51834  0.86458  1.0000
  C   C236      1.0  0.30199  0.95365  0.63899  1.0000
  H   H229      1.0  0.28034  0.66533  0.95846  1.0000
  C   C237      1.0  0.27475  0.49298  0.95917  1.0000
  C   C238      1.0  0.18127  0.89866  0.47471  1.0000
  S   S78       1.0  0.26955  0.93100  0.48552  1.0000
  S   S79       1.0  0.16688  0.49359  0.79971  1.0000
  H   H230      1.0  0.26406  0.64264  0.93233  1.0000
  C   C239      1.0  0.07143  0.50048  0.83667  1.0000
  H   H231      1.0  0.07674  0.48643  0.85262  1.0000
  H   H232      1.0  0.22171  0.52708  0.95443  1.0000
  H   H233      1.0  0.01492  0.75045  0.50694  1.0000
  C   C240      1.0  0.31226  0.66907  0.93348  1.0000
  S   S80       1.0  0.54851  0.99402  0.35416  1.0000
  S   S81       1.0  0.48765  0.20866  0.01704  1.0000
  H   H234      1.0  0.50514  0.17779  0.97839  1.0000
  H   H235      1.0  0.50561  0.00908  0.24136  1.0000
  C   C241      1.0  0.61869  0.31347  0.98526  1.0000
  C   C242      1.0  0.54855  0.12153  0.17810  1.0000
  Fe  Fe39      1.0  0.43683  0.99259  0.29531  1.0000
  Fe  Fe40      1.0  0.47437  0.07085  0.14822  1.0000
  S   S82       1.0  0.49022  0.10181  0.15489  1.0000
  S   S83       1.0  0.43514  0.07095  0.15141  1.0000
  Fe  Fe41      1.0  0.52143  0.04217  0.13805  1.0000
  S   S84       1.0  0.54123  0.07017  0.14403  1.0000
  S   S85       1.0  0.40107  0.01389  0.29384  1.0000
  Fe  Fe42      1.0  0.51440  0.07350  0.17679  1.0000
  S   S86       1.0  0.52230  0.07472  0.21537  1.0000
  Fe  Fe43      1.0  0.51565  0.09584  0.12122  1.0000
  S   S87       1.0  0.53495  0.12210  0.09256  1.0000
  S   S88       1.0  0.49660  0.04332  0.17270  1.0000
  S   S89       1.0  0.49779  0.06717  0.11252  1.0000
  C   C243      1.0  0.56563  0.10794  0.19270  1.0000
  C   C244      1.0  0.57434  0.11517  0.14111  1.0000
  S   S90       1.0  0.36781  0.99894  0.36122  1.0000
  C   C245      1.0  0.63800  0.33977  0.05784  1.0000
  C   C246      1.0  0.58391  0.03070  0.21275  1.0000
  C   C247      1.0  0.56251  0.04414  0.20643  1.0000
  C   C248      1.0  0.54781  0.05565  0.22394  1.0000
  C   C249      1.0  0.55413  0.05281  0.24818  1.0000
  C   C250      1.0  0.57525  0.03879  0.25473  1.0000
  H   H236      1.0  0.55758  0.04567  0.18794  1.0000
  H   H237      1.0  0.54277  0.06152  0.26190  1.0000
  C   C251      1.0  0.39651  0.01911  0.21101  1.0000
  C   C252      1.0  0.41964  0.02196  0.21361  1.0000
  C   C253      1.0  0.43232  0.03681  0.19479  1.0000
  C   C254      1.0  0.42167  0.04929  0.17365  1.0000
  C   C255      1.0  0.39868  0.04613  0.17110  1.0000
  C   C256      1.0  0.38629  0.03094  0.18951  1.0000
  H   H238      1.0  0.44991  0.03931  0.19719  1.0000
  H   H239      1.0  0.39029  0.05570  0.15489  1.0000
  H   H240      1.0  0.36849  0.02874  0.18730  1.0000
  H   H241      1.0  0.47803  0.14822  0.00689  1.0000
  H   H242      1.0  0.61215  0.06765  0.18992  1.0000
  H   H243      1.0  0.49296  0.99306  0.20743  1.0000
  H   H244      1.0  0.55462  0.10258  0.02770  1.0000
  C   C257      1.0  0.59728  0.30523  0.99605  1.0000
  H   H245      1.0  0.53176  0.12866  0.18693  1.0000
  N   N22       1.0  0.58640  0.09789  0.18174  1.0000
  S   S91       1.0  0.37978  0.00100  0.23409  1.0000
  S   S92       1.0  0.46943  0.00989  0.28201  1.0000
  C   C258      1.0  0.49016  0.00706  0.30324  1.0000
  H   H246      1.0  0.58016  0.03678  0.27343  1.0000
  H   H247      1.0  0.51829  0.09432  0.05561  1.0000
  C   C259      1.0  0.52918  0.01247  0.31065  1.0000
  C   C260      1.0  0.50104  0.18501  0.03830  1.0000
  C   C261      1.0  0.48693  0.17276  0.05794  1.0000
  C   C262      1.0  0.49703  0.15349  0.07488  1.0000
  C   C263      1.0  0.52137  0.14655  0.07237  1.0000
  C   C264      1.0  0.53548  0.15897  0.05289  1.0000
  C   C265      1.0  0.52536  0.17801  0.03579  1.0000
  H   H248      1.0  0.46810  0.17813  0.06001  1.0000
  H   H249      1.0  0.48601  0.14406  0.08984  1.0000
  H   H250      1.0  0.55434  0.15372  0.05089  1.0000
  H   H251      1.0  0.53641  0.18741  0.02085  1.0000
  H   H252      1.0  0.54572  0.01922  0.30395  1.0000
  C   C266      1.0  0.52538  0.00061  0.33528  1.0000
  N   N23       1.0  0.41523  0.08116  0.22227  1.0000
  C   C267      1.0  0.41492  0.06818  0.24598  1.0000
  C   C268      1.0  0.43576  0.08838  0.20985  1.0000
  C   C269      1.0  0.43564  0.06168  0.25765  1.0000
  C   C270      1.0  0.45682  0.08194  0.22088  1.0000
  C   C271      1.0  0.45676  0.06837  0.24487  1.0000
  C   C272      1.0  0.39323  0.08795  0.21057  1.0000
  H   H253      1.0  0.39867  0.06246  0.25586  1.0000
  H   H254      1.0  0.43606  0.09861  0.19101  1.0000
  H   H255      1.0  0.43541  0.05123  0.27638  1.0000
  H   H256      1.0  0.47314  0.08723  0.21084  1.0000
  H   H257      1.0  0.47308  0.06291  0.25351  1.0000
  H   H258      1.0  0.38264  0.07293  0.21472  1.0000
  H   H259      1.0  0.38281  0.10347  0.21758  1.0000
  H   H260      1.0  0.39669  0.09244  0.18987  1.0000
  H   H261      1.0  0.61855  0.09479  0.19750  1.0000
  H   H262      1.0  0.49182  0.01176  0.12941  1.0000
  H   H263      1.0  0.51453  0.02539  0.27581  1.0000
  N   N24       1.0  0.51488  0.14216  0.99567  1.0000
  C   C273      1.0  0.65445  0.31989  0.05516  1.0000
  C   C274      1.0  0.51820  0.99794  0.23078  1.0000
  Fe  Fe44      1.0  0.58168  0.98258  0.33083  1.0000
  H   H264      1.0  0.59682  0.07813  0.21678  1.0000
  H   H265      1.0  0.33828  0.46577  0.03648  1.0000
  H   H266      1.0  0.54738  0.00005  0.25046  1.0000
  Fe  Fe45      1.0  0.39477  0.98834  0.27077  1.0000
  C   C275      1.0  0.53618  0.12961  0.00131  1.0000
  H   H267      1.0  0.42860  0.25317  0.02569  1.0000
  H   H268      1.0  0.60738  0.09345  0.14756  1.0000
  C   C276      1.0  0.51152  0.01589  0.29474  1.0000
  H   H269      1.0  0.56181  0.10491  0.21288  1.0000
  C   C277      1.0  0.43441  0.32185  0.97726  1.0000
  C   C278      1.0  0.49563  0.12022  0.03256  1.0000
  C   C279      1.0  0.59095  0.10145  0.15628  1.0000
  H   H270      1.0  0.59543  0.02221  0.19897  1.0000
  H   H271      1.0  0.55218  0.13336  0.98938  1.0000
  C   C280      1.0  0.51725  0.10735  0.03847  1.0000
  H   H272      1.0  0.42771  0.01295  0.23019  1.0000
  C   C281      1.0  0.58659  0.29038  0.98473  1.0000
  H   H273      1.0  0.46949  0.98900  0.33477  1.0000
  S   S93       1.0  0.61760  0.01213  0.24416  1.0000
  S   S94       1.0  0.54216  0.00764  0.13187  1.0000
  H   H274      1.0  0.58893  0.31030  0.01336  1.0000
  C   C282      1.0  0.49478  0.13775  0.01101  1.0000
  C   C283      1.0  0.64485  0.35890  0.06569  1.0000
  H   H275      1.0  0.37125  0.99169  0.44920  1.0000
  S   S95       1.0  0.39278  0.35128  0.98289  1.0000
  H   H276      1.0  0.63219  0.37467  0.06674  1.0000
  H   H277      1.0  0.57766  0.11758  0.12089  1.0000
  H   H278      1.0  0.36281  0.45326  0.00165  1.0000
  C   C284      1.0  0.60437  0.08403  0.19721  1.0000
  H   H279      1.0  0.62033  0.34071  0.05273  1.0000
  Fe  Fe46      1.0  0.50854  0.22549  0.98185  1.0000
  C   C285      1.0  0.49941  0.99344  0.12994  1.0000
  C   C286      1.0  0.55300  0.12521  0.15215  1.0000
  H   H280      1.0  0.47977  0.11717  0.04504  1.0000
  H   H281      1.0  0.57015  0.28424  0.99328  1.0000
  C   C287      1.0  0.54165  0.99291  0.23582  1.0000
  H   H282      1.0  0.43302  0.31817  0.99745  1.0000
  S   S96       1.0  0.63160  0.33173  0.00076  1.0000
  C   C288      1.0  0.59036  0.02812  0.23686  1.0000
  H   H283      1.0  0.53978  0.13542  0.14054  1.0000
  C   C289      1.0  0.53769  0.11207  0.02282  1.0000
  C   C290      1.0  0.37047  0.46965  0.99829  1.0000
  H   H284      1.0  0.64952  0.30537  0.04809  1.0000
  S   S97       1.0  0.61496  0.99927  0.31986  1.0000
  H   H285      1.0  0.33480  0.01268  0.40129  1.0000
  C   C291      1.0  0.52372  0.98688  0.13058  1.0000
  C   C292      1.0  0.48607  0.99559  0.32803  1.0000
  Fe  Fe47      1.0  0.38943  0.98689  0.32706  1.0000
  C   C293      1.0  0.32856  0.99822  0.39550  1.0000
  C   C294      1.0  0.34111  0.98846  0.37537  1.0000
  H   H286      1.0  0.45065  0.23916  0.98839  1.0000
  C   C295      1.0  0.42273  0.26024  0.00739  1.0000
  C   C296      1.0  0.39018  0.47232  0.98068  1.0000
  C   C297      1.0  0.51111  0.98902  0.21166  1.0000
  C   C298      1.0  0.40299  0.27742  0.00465  1.0000
  C   C299      1.0  0.50364  0.99259  0.34416  1.0000
  H   H287      1.0  0.39343  0.28409  0.02074  1.0000
  Fe  Fe48      1.0  0.61360  0.98973  0.28240  1.0000
  C   C300      1.0  0.43517  0.25237  0.98639  1.0000
  S   S98       1.0  0.32786  0.38498  0.97789  1.0000
  H   H288      1.0  0.50064  0.98354  0.36328  1.0000
  H   H289      1.0  0.46615  0.98130  0.12907  1.0000
  C   C301      1.0  0.39603  0.28658  0.98080  1.0000
  H   H290      1.0  0.65602  0.00326  0.35226  1.0000
  H   H291      1.0  0.38106  0.30043  0.97878  1.0000
  Fe  Fe49      1.0  0.49930  0.26465  0.93761  1.0000
  S   S99       1.0  0.53364  0.25332  0.91593  1.0000
  S   S100      1.0  0.47476  0.29588  0.91965  1.0000
  H   H292      1.0  0.38225  0.06569  0.75845  1.0000
  Fe  Fe50      1.0  0.54925  0.25038  0.95210  1.0000
  S   S101      1.0  0.58461  0.26505  0.94691  1.0000
  Fe  Fe51      1.0  0.52556  0.21587  0.92928  1.0000
  S   S102      1.0  0.53343  0.18418  0.90883  1.0000
  H   H293      1.0  0.40685  0.35653  0.92928  1.0000
  S   S103      1.0  0.33033  0.00348  0.61368  1.0000
  H   H294      1.0  0.49939  0.32462  0.94541  1.0000
  S   S104      1.0  0.36111  0.38780  0.92399  1.0000
  H   H295      1.0  0.47359  0.99547  0.85639  1.0000
  H   H296      1.0  0.61685  0.08261  0.62299  1.0000
  S   S105      1.0  0.39511  0.01572  0.62726  1.0000
  H   H297      1.0  0.46501  0.29567  0.97324  1.0000
  Fe  Fe52      1.0  0.39039  0.01868  0.66798  1.0000
  S   S106      1.0  0.39291  0.05301  0.68084  1.0000
  Fe  Fe53      1.0  0.36309  0.99645  0.63495  1.0000
  C   C302      1.0  0.39847  0.02136  0.77455  1.0000
  H   H298      1.0  0.40265  0.03349  0.78551  1.0000
  Fe  Fe54      1.0  0.55894  0.01626  0.64058  1.0000
  C   C303      1.0  0.64346  0.99840  0.49857  1.0000
  S   S107      1.0  0.52128  0.03303  0.64127  1.0000
  Fe  Fe55      1.0  0.59999  0.01671  0.66881  1.0000
  N   N25       1.0  0.40862  0.27908  0.96024  1.0000
  S   S108      1.0  0.60924  0.03172  0.70033  1.0000
  Fe  Fe56      1.0  0.60903  0.01194  0.61386  1.0000
  C   C304      1.0  0.59734  0.28330  0.96255  1.0000
  H   H299      1.0  0.35693  0.47746  0.85479  1.0000
  H   H300      1.0  0.63218  0.06004  0.65892  1.0000
  S   S109      1.0  0.58739  0.03949  0.63409  1.0000
  H   H301      1.0  0.63443  0.01383  0.48730  1.0000
  Fe  Fe57      1.0  0.51137  0.06919  0.80607  1.0000
  S   S110      1.0  0.47500  0.08451  0.81974  1.0000
  S   S111      1.0  0.52801  0.03280  0.82244  1.0000
  Fe  Fe58      1.0  0.51444  0.10761  0.76048  1.0000
  S   S112      1.0  0.47784  0.12527  0.76984  1.0000
  S   S113      1.0  0.53671  0.11968  0.72501  1.0000
  Fe  Fe59      1.0  0.48887  0.11981  0.80887  1.0000
  S   S114      1.0  0.47994  0.15158  0.82912  1.0000
  Fe  Fe60      1.0  0.46796  0.08825  0.77961  1.0000
  S   S115      1.0  0.43751  0.07132  0.77145  1.0000
  S   S116      1.0  0.52608  0.10386  0.79851  1.0000
  S   S117      1.0  0.50375  0.07154  0.76680  1.0000
  S   S118      1.0  0.62424  0.99089  0.64838  1.0000
  C   C305      1.0  0.33216  0.44200  0.86723  1.0000
  Fe  Fe61      1.0  0.33031  0.42379  0.97423  1.0000
  C   C306      1.0  0.63286  0.98956  0.52233  1.0000
  H   H302      1.0  0.38898  0.27754  0.93086  1.0000
  C   C307      1.0  0.51235  0.01339  0.81263  1.0000
  C   C308      1.0  0.48613  0.98277  0.79793  1.0000
  H   H303      1.0  0.52433  0.30905  0.91064  1.0000
  H   H304      1.0  0.58930  0.30509  0.90231  1.0000
  C   C309      1.0  0.47660  0.00628  0.79847  1.0000
  C   C310      1.0  0.48958  0.02143  0.80602  1.0000
  H   H305      1.0  0.32443  0.40590  0.87301  1.0000
  C   C311      1.0  0.40996  0.99805  0.77791  1.0000
  H   H306      1.0  0.45901  0.01286  0.79336  1.0000
  H   H307      1.0  0.48164  0.03933  0.80695  1.0000
  C   C312      1.0  0.45255  0.30909  0.96358  1.0000
  S   S119      1.0  0.57910  0.99059  0.61731  1.0000
  H   H308      1.0  0.36636  0.02022  0.72829  1.0000
  C   C313      1.0  0.33699  0.98618  0.48717  1.0000
  C   C314      1.0  0.58927  0.05639  0.70692  1.0000
  C   C315      1.0  0.58042  0.07377  0.68763  1.0000
  C   C316      1.0  0.56478  0.09357  0.69321  1.0000
  C   C317      1.0  0.55733  0.09562  0.71808  1.0000
  C   C318      1.0  0.56592  0.07808  0.73736  1.0000
  C   C319      1.0  0.58224  0.05877  0.73177  1.0000
  H   H309      1.0  0.58583  0.07218  0.66841  1.0000
  H   H310      1.0  0.55803  0.10702  0.67826  1.0000
  H   H311      1.0  0.56019  0.07948  0.75662  1.0000
  H   H312      1.0  0.58905  0.04540  0.74676  1.0000
  H   H313      1.0  0.53986  0.98361  0.81658  1.0000
  C   C320      1.0  0.52214  0.98988  0.81175  1.0000
  C   C321      1.0  0.50197  0.01469  0.63568  1.0000
  C   C322      1.0  0.50251  0.00114  0.73071  1.0000
  S   S120      1.0  0.35645  0.00292  0.67462  1.0000
  N   N26       1.0  0.55595  0.31878  0.91940  1.0000
  C   C323      1.0  0.46202  0.00592  0.63782  1.0000
  C   C324      1.0  0.47775  0.02057  0.64158  1.0000
  S   S121      1.0  0.38158  0.44955  0.89612  1.0000
  H   H314      1.0  0.55232  0.02121  0.73956  1.0000
  H   H315      1.0  0.44338  0.01064  0.64252  1.0000
  H   H316      1.0  0.47105  0.03648  0.64904  1.0000
  C   C325      1.0  0.43339  0.06765  0.74115  1.0000
  C   C326      1.0  0.43679  0.04478  0.73526  1.0000
  C   C327      1.0  0.42613  0.04014  0.71536  1.0000
  C   C328      1.0  0.41178  0.05837  0.70145  1.0000
  C   C329      1.0  0.40996  0.08149  0.70618  1.0000
  C   C330      1.0  0.42062  0.08610  0.72590  1.0000
  H   H317      1.0  0.44623  0.03027  0.74723  1.0000
  H   H318      1.0  0.42772  0.02224  0.71191  1.0000
  H   H319      1.0  0.39898  0.09573  0.69550  1.0000
  H   H320      1.0  0.41738  0.10367  0.73050  1.0000
  S   S122      1.0  0.62847  0.02597  0.57626  1.0000
  N   N27       1.0  0.38314  0.02914  0.75678  1.0000
  C   C331      1.0  0.61873  0.29156  0.95177  1.0000
  H   H321      1.0  0.35416  0.05445  0.76555  1.0000
  H   H322      1.0  0.62728  0.28621  0.93465  1.0000
  C   C332      1.0  0.45397  0.31321  0.93751  1.0000
  C   C333      1.0  0.43784  0.33089  0.92525  1.0000
  C   C334      1.0  0.41960  0.34349  0.93894  1.0000
  C   C335      1.0  0.52380  0.00121  0.73998  1.0000
  H   H323      1.0  0.43900  0.33440  0.90506  1.0000
  C   C336      1.0  0.47039  0.98554  0.62771  1.0000
  C   C337      1.0  0.51765  0.17507  0.88742  1.0000
  C   C338      1.0  0.52588  0.15342  0.87928  1.0000
  C   C339      1.0  0.51434  0.14568  0.86190  1.0000
  C   C340      1.0  0.49441  0.15958  0.85230  1.0000
  C   C341      1.0  0.48613  0.18117  0.86052  1.0000
  C   C342      1.0  0.49761  0.18886  0.87797  1.0000
  H   H324      1.0  0.54136  0.14257  0.88641  1.0000
  H   H325      1.0  0.52099  0.12907  0.85577  1.0000
  H   H326      1.0  0.47074  0.19210  0.85326  1.0000
  H   H327      1.0  0.49104  0.20556  0.88395  1.0000
  C   C343      1.0  0.37119  0.05359  0.75356  1.0000
  S   S123      1.0  0.51507  0.26381  0.97287  1.0000
  N   N28       1.0  0.52871  0.16943  0.77781  1.0000
  C   C344      1.0  0.54923  0.15523  0.77238  1.0000
  C   C345      1.0  0.52576  0.18007  0.79827  1.0000
  C   C346      1.0  0.56711  0.15066  0.78818  1.0000
  C   C347      1.0  0.54341  0.17618  0.81427  1.0000
  C   C348      1.0  0.56409  0.16116  0.80931  1.0000
  C   C349      1.0  0.50993  0.17399  0.76135  1.0000
  H   H328      1.0  0.55169  0.14691  0.75604  1.0000
  H   H329      1.0  0.50936  0.19109  0.80276  1.0000
  H   H330      1.0  0.58305  0.13883  0.78416  1.0000
  H   H331      1.0  0.54071  0.18422  0.83083  1.0000
  H   H332      1.0  0.57762  0.15753  0.82197  1.0000
  H   H333      1.0  0.50965  0.19206  0.74988  1.0000
  H   H334      1.0  0.51237  0.16096  0.74857  1.0000
  H   H335      1.0  0.49255  0.17246  0.77260  1.0000
  S   S124      1.0  0.48998  0.22759  0.94793  1.0000
  H   H336      1.0  0.36793  0.06040  0.73373  1.0000
  C   C350      1.0  0.55215  0.33841  0.95456  1.0000
  H   H337      1.0  0.61601  0.99819  0.52953  1.0000
  H   H338      1.0  0.56496  0.29282  0.89613  1.0000
  H   H339      1.0  0.42268  0.99218  0.79142  1.0000
  C   C351      1.0  0.51040  0.99434  0.62548  1.0000
  H   H340      1.0  0.39754  0.45833  0.97031  1.0000
  H   H341      1.0  0.47708  0.02070  0.70654  1.0000
  H   H342      1.0  0.49292  0.98600  0.73677  1.0000
  H   H343      1.0  0.56030  0.34629  0.96699  1.0000
  C   C352      1.0  0.53578  0.02093  0.73243  1.0000
  S   S125      1.0  0.36955  0.41911  0.96493  1.0000
  Fe  Fe62      1.0  0.36108  0.42604  0.92549  1.0000
  H   H344      1.0  0.56916  0.32292  0.88109  1.0000
  C   C353      1.0  0.56582  0.32965  0.93457  1.0000
  N   N29       1.0  0.50537  0.04020  0.70662  1.0000
  C   C354      1.0  0.52617  0.04044  0.71575  1.0000
  C   C355      1.0  0.49356  0.02087  0.71381  1.0000
  C   C356      1.0  0.38298  0.47663  0.90493  1.0000
  H   H345      1.0  0.64574  0.31269  0.95438  1.0000
  N   N30       1.0  0.64787  0.05695  0.62207  1.0000
  C   C357      1.0  0.49508  0.06142  0.69030  1.0000
  H   H346      1.0  0.53535  0.05585  0.71025  1.0000
  H   H347      1.0  0.51745  0.98821  0.89560  1.0000
  C   C358      1.0  0.51332  0.16058  0.97321  1.0000
  C   C359      1.0  0.57053  0.30961  0.89857  1.0000
  H   H348      1.0  0.53096  0.98606  0.75309  1.0000
  H   H349      1.0  0.50896  0.06927  0.67655  1.0000
  H   H350      1.0  0.48210  0.05715  0.67927  1.0000
  H   H351      1.0  0.48614  0.07471  0.70167  1.0000
  C   C360      1.0  0.53231  0.31726  0.92293  1.0000
  C   C361      1.0  0.37830  0.01399  0.74258  1.0000
  C   C362      1.0  0.62925  0.30665  0.96291  1.0000
  C   C363      1.0  0.40530  0.98253  0.76339  1.0000
  C   C364      1.0  0.41747  0.33862  0.96502  1.0000
  S   S126      1.0  0.41221  0.98416  0.68116  1.0000
  Fe  Fe63      1.0  0.36668  0.38106  0.96448  1.0000
  H   H352      1.0  0.34472  0.00306  0.48291  1.0000
  H   H353      1.0  0.52902  0.98995  0.62048  1.0000
  C   C365      1.0  0.42780  0.26199  0.96280  1.0000
  C   C366      1.0  0.51477  0.99052  0.87561  1.0000
  H   H354      1.0  0.53215  0.99022  0.86411  1.0000
  H   H355      1.0  0.39188  0.30723  0.93446  1.0000
  H   H356      1.0  0.53090  0.16315  0.96288  1.0000
  S   S127      1.0  0.56992  0.99545  0.67693  1.0000
  H   H357      1.0  0.58453  0.33102  0.93171  1.0000
  H   H358      1.0  0.62400  0.07072  0.59492  1.0000
  C   C367      1.0  0.65661  0.01373  0.56430  1.0000
  H   H359      1.0  0.51730  0.34310  0.97411  1.0000
  S   S128      1.0  0.54394  0.21177  0.96399  1.0000
  C   C368      1.0  0.38920  0.99044  0.74576  1.0000
  H   H360      1.0  0.35088  0.43651  0.86809  1.0000
  H   H361      1.0  0.35259  0.47482  0.93236  1.0000
  H   H362      1.0  0.50491  0.00847  0.86999  1.0000
  H   H363      1.0  0.64140  0.09181  0.60120  1.0000
  H   H364      1.0  0.43791  0.25621  0.94647  1.0000
  C   C369      1.0  0.63178  0.07657  0.60974  1.0000
  C   C370      1.0  0.40106  0.28878  0.93540  1.0000
  H   H365      1.0  0.41648  0.28965  0.92091  1.0000
  C   C371      1.0  0.64577  0.05065  0.64753  1.0000
  C   C372      1.0  0.51808  0.32606  0.94258  1.0000
  C   C373      1.0  0.52813  0.33651  0.95860  1.0000
  H   H366      1.0  0.50258  0.15577  0.96014  1.0000
  C   C374      1.0  0.54659  0.84914  0.28309  1.0000
  C   C375      1.0  0.56880  0.85262  0.28797  1.0000
  C   C376      1.0  0.50040  0.92651  0.34391  1.0000
  H   H367      1.0  0.60832  0.70867  0.99805  1.0000
  N   N31       1.0  0.40916  0.91753  0.22703  1.0000
  H   H368      1.0  0.53464  0.95529  0.29709  1.0000
  Fe  Fe64      1.0  0.47944  0.75253  0.02391  1.0000
  S   S129      1.0  0.46824  0.77991  0.04975  1.0000
  Fe  Fe65      1.0  0.46410  0.70990  0.00585  1.0000
  H   H369      1.0  0.61962  0.63215  0.01390  1.0000
  S   S130      1.0  0.48339  0.71312  0.03799  1.0000
  S   S131      1.0  0.45719  0.74974  0.99371  1.0000
  H   H370      1.0  0.53361  0.94141  0.36397  1.0000
  H   H371      1.0  0.53553  0.87623  0.07751  1.0000
  S   S132      1.0  0.65648  0.57812  0.01866  1.0000
  C   C377      1.0  0.47651  0.89299  0.08448  1.0000
  H   H372      1.0  0.45110  0.87640  0.07107  1.0000
  N   N32       1.0  0.54378  0.84258  0.26121  1.0000
  H   H373      1.0  0.51317  0.85706  0.24320  1.0000
  Fe  Fe66      1.0  0.41750  0.94583  0.30491  1.0000
  S   S133      1.0  0.42768  0.90638  0.31413  1.0000
  H   H374      1.0  0.44560  0.90828  0.17526  1.0000
  C   C378      1.0  0.48681  0.86087  0.06147  1.0000
  Fe  Fe67      1.0  0.59823  0.94122  0.30325  1.0000
  H   H375      1.0  0.57212  0.97019  0.16794  1.0000
  S   S134      1.0  0.57755  0.91381  0.29471  1.0000
  C   C379      1.0  0.53521  0.62416  0.02255  1.0000
  N   N33       1.0  0.51923  0.93718  0.33165  1.0000
  H   H376      1.0  0.50761  0.83762  0.27267  1.0000
  C   C380      1.0  0.52812  0.84417  0.05213  1.0000
  H   H377      1.0  0.55032  0.95098  0.33525  1.0000
  H   H378      1.0  0.38061  0.96933  0.41447  1.0000
  S   S135      1.0  0.59963  0.94579  0.34279  1.0000
  Fe  Fe68      1.0  0.48993  0.85836  0.19607  1.0000
  S   S136      1.0  0.52573  0.83847  0.18731  1.0000
  S   S137      1.0  0.46720  0.84509  0.23090  1.0000
  Fe  Fe69      1.0  0.49529  0.89596  0.15057  1.0000
  S   S138      1.0  0.53160  0.87946  0.13830  1.0000
  S   S139      1.0  0.47669  0.93046  0.13199  1.0000
  Fe  Fe70      1.0  0.51606  0.84508  0.14766  1.0000
  S   S140      1.0  0.52665  0.81871  0.12073  1.0000
  Fe  Fe71      1.0  0.53743  0.87472  0.17882  1.0000
  S   S141      1.0  0.56995  0.88486  0.19116  1.0000
  S   S142      1.0  0.47925  0.86222  0.15747  1.0000
  S   S143      1.0  0.50226  0.89380  0.19001  1.0000
  Fe  Fe72      1.0  0.51622  0.71168  0.01112  1.0000
  C   C381      1.0  0.49466  0.95240  0.13097  1.0000
  H   H379      1.0  0.58470  0.95128  0.19457  1.0000
  C   C382      1.0  0.43471  0.91781  0.18870  1.0000
  H   H380      1.0  0.50016  0.91867  0.36355  1.0000
  C   C383      1.0  0.53342  0.96319  0.13139  1.0000
  C   C384      1.0  0.51888  0.94598  0.13197  1.0000
  H   H381      1.0  0.34226  0.96225  0.35243  1.0000
  C   C385      1.0  0.36998  0.50853  0.00599  1.0000
  H   H382      1.0  0.55220  0.95807  0.13186  1.0000
  H   H383      1.0  0.52661  0.92780  0.13285  1.0000
  S   S144      1.0  0.54988  0.69055  0.02493  1.0000
  C   C386      1.0  0.46962  0.87677  0.07218  1.0000
  C   C387      1.0  0.57421  0.91121  0.26379  1.0000
  C   C388      1.0  0.55253  0.90644  0.25837  1.0000
  C   C389      1.0  0.55052  0.89973  0.23554  1.0000
  C   C390      1.0  0.57036  0.89719  0.21815  1.0000
  C   C391      1.0  0.59172  0.90305  0.22310  1.0000
  C   C392      1.0  0.59360  0.91025  0.24567  1.0000
  H   H384      1.0  0.53745  0.90698  0.27231  1.0000
  H   H385      1.0  0.53393  0.89546  0.23193  1.0000
  H   H386      1.0  0.60716  0.90122  0.20976  1.0000
  H   H387      1.0  0.61046  0.91362  0.24967  1.0000
  N   N34       1.0  0.36083  0.48753  0.01091  1.0000
  H   H388      1.0  0.42435  0.88630  0.21266  1.0000
  H   H389      1.0  0.50068  0.95510  0.27424  1.0000
  C   C393      1.0  0.41867  0.95459  0.20232  1.0000
  C   C394      1.0  0.58812  0.84958  0.27022  1.0000
  C   C395      1.0  0.50036  0.89306  0.08597  1.0000
  C   C396      1.0  0.48119  0.92565  0.33131  1.0000
  C   C397      1.0  0.56249  0.66556  0.98627  1.0000
  H   H390      1.0  0.51884  0.67413  0.06850  1.0000
  H   H391      1.0  0.55071  0.91970  0.34650  1.0000
  C   C398      1.0  0.44006  0.89020  0.29066  1.0000
  C   C399      1.0  0.45092  0.90085  0.26770  1.0000
  C   C400      1.0  0.46021  0.88706  0.24940  1.0000
  C   C401      1.0  0.45800  0.86283  0.25379  1.0000
  C   C402      1.0  0.44736  0.85232  0.27680  1.0000
  C   C403      1.0  0.43870  0.86587  0.29524  1.0000
  H   H392      1.0  0.45204  0.91963  0.26392  1.0000
  H   H393      1.0  0.46831  0.89539  0.23170  1.0000
  H   H394      1.0  0.44560  0.83362  0.28036  1.0000
  H   H395      1.0  0.43038  0.85752  0.31295  1.0000
  H   H396      1.0  0.39577  0.95132  0.23661  1.0000
  C   C404      1.0  0.48449  0.78886  0.07091  1.0000
  C   C405      1.0  0.47289  0.80462  0.08649  1.0000
  C   C406      1.0  0.48525  0.81325  0.10254  1.0000
  C   C407      1.0  0.50950  0.80633  0.10314  1.0000
  C   C408      1.0  0.52100  0.79016  0.08798  1.0000
  C   C409      1.0  0.50863  0.78151  0.07196  1.0000
  H   H397      1.0  0.45419  0.81030  0.08602  1.0000
  H   H398      1.0  0.47607  0.82553  0.11415  1.0000
  H   H399      1.0  0.53972  0.78455  0.08833  1.0000
  H   H400      1.0  0.51784  0.76935  0.06023  1.0000
  H   H401      1.0  0.59263  0.66051  0.03648  1.0000
  H   H402      1.0  0.51778  0.61949  0.99195  1.0000
  C   C410      1.0  0.56806  0.95813  0.18596  1.0000
  H   H403      1.0  0.37776  0.90499  0.24568  1.0000
  C   C411      1.0  0.51964  0.94700  0.30682  1.0000
  C   C412      1.0  0.39985  0.49353  0.97587  1.0000
  S   S145      1.0  0.51354  0.75125  0.99879  1.0000
  C   C413      1.0  0.58836  0.65735  0.01896  1.0000
  Fe  Fe73      1.0  0.32744  0.56676  0.99678  1.0000
  C   C414      1.0  0.43278  0.94249  0.18499  1.0000
  S   S146      1.0  0.42632  0.96794  0.33059  1.0000
  H   H404      1.0  0.46654  0.93535  0.29625  1.0000
  S   S147      1.0  0.44111  0.67964  0.01309  1.0000
  C   C415      1.0  0.60365  0.64126  0.00626  1.0000
  C   C416      1.0  0.56791  0.66975  0.00888  1.0000
  N   N35       1.0  0.51180  0.64665  0.05156  1.0000
  C   C417      1.0  0.53281  0.63438  0.04390  1.0000
  C   C418      1.0  0.49290  0.64934  0.03825  1.0000
  H   H405      1.0  0.55208  0.61491  0.01623  1.0000
  H   H406      1.0  0.38978  0.62283  0.00261  1.0000
  C   C419      1.0  0.32978  0.95525  0.46587  1.0000
  N   N36       1.0  0.55080  0.97094  0.20228  1.0000
  H   H407      1.0  0.39666  0.52862  0.98417  1.0000
  C   C420      1.0  0.35340  0.94707  0.42815  1.0000
  C   C421      1.0  0.49471  0.63952  0.01671  1.0000
  H   H408      1.0  0.47631  0.65932  0.04409  1.0000
  C   C422      1.0  0.59851  0.63745  0.98338  1.0000
  H   H409      1.0  0.49138  0.66311  0.08056  1.0000
  C   C423      1.0  0.33483  0.94219  0.44657  1.0000
  H   H410      1.0  0.60522  0.85324  0.27332  1.0000
  C   C424      1.0  0.48137  0.93584  0.30609  1.0000
  C   C425      1.0  0.53943  0.93716  0.34508  1.0000
  H   H411      1.0  0.57090  0.85872  0.30487  1.0000
  H   H412      1.0  0.46614  0.91729  0.34098  1.0000
  H   H413      1.0  0.56031  0.83546  0.22586  1.0000
  C   C426      1.0  0.42256  0.90553  0.20984  1.0000
  H   H414      1.0  0.52062  0.82538  0.24591  1.0000
  H   H415      1.0  0.54096  0.83540  0.06563  1.0000
  C   C427      1.0  0.40684  0.94176  0.22331  1.0000
  H   H416      1.0  0.52028  0.82979  0.04687  1.0000
  C   C428      1.0  0.56264  0.83959  0.24369  1.0000
  C   C429      1.0  0.41248  0.64802  0.00639  1.0000
  C   C430      1.0  0.50061  0.94671  0.29373  1.0000
  C   C431      1.0  0.39633  0.90456  0.24905  1.0000
  H   H417      1.0  0.44212  0.95221  0.16862  1.0000
  H   H418      1.0  0.46345  0.90546  0.09296  1.0000
  H   H419      1.0  0.57161  0.73123  0.98276  1.0000
  H   H420      1.0  0.59976  0.84148  0.23355  1.0000
  C   C432      1.0  0.52777  0.97556  0.19744  1.0000
  C   C433      1.0  0.51704  0.87651  0.07563  1.0000
  S   S148      1.0  0.63391  0.95326  0.29083  1.0000
  C   C434      1.0  0.58509  0.84292  0.24797  1.0000
  S   S149      1.0  0.37990  0.96293  0.30356  1.0000
  H   H421      1.0  0.53153  0.85234  0.29660  1.0000
  C   C435      1.0  0.33282  0.96988  0.36792  1.0000
  Fe  Fe74      1.0  0.63320  0.96190  0.32954  1.0000
  N   N37       1.0  0.34264  0.97292  0.46660  1.0000
  C   C436      1.0  0.60378  0.70736  0.97991  1.0000
  C   C437      1.0  0.51002  0.65788  0.07350  1.0000
  H   H422      1.0  0.39664  0.91257  0.26577  1.0000
  H   H423      1.0  0.56104  0.94261  0.18209  1.0000
  H   H424      1.0  0.53757  0.85379  0.03517  1.0000
  H   H425      1.0  0.42129  0.63600  0.02104  1.0000
  S   S150      1.0  0.57854  0.97718  0.29244  1.0000
  H   H426      1.0  0.36195  0.52296  0.01546  1.0000
  H   H427      1.0  0.48131  0.84825  0.05200  1.0000
  C   C438      1.0  0.52020  0.84057  0.25554  1.0000
  H   H428      1.0  0.52225  0.96919  0.18219  1.0000
  N   N38       1.0  0.51016  0.86070  0.06358  1.0000
  H   H429      1.0  0.50586  0.90576  0.09531  1.0000
  C   C439      1.0  0.41893  0.67098  0.99827  1.0000
  H   H430      1.0  0.40452  0.88577  0.25367  1.0000
  H   H431      1.0  0.35699  0.93770  0.41256  1.0000
  C   C440      1.0  0.38967  0.51180  0.98850  1.0000
  C   C441      1.0  0.55788  0.97941  0.22121  1.0000
  H   H432      1.0  0.64662  0.51732  0.97696  1.0000
  S   S151      1.0  0.43114  0.96874  0.27003  1.0000
  C   C442      1.0  0.40716  0.68629  0.97939  1.0000
  H   H433      1.0  0.41677  0.97381  0.19949  1.0000
  C   C443      1.0  0.38246  0.65592  0.97743  1.0000
  S   S152      1.0  0.49763  0.70591  0.98019  1.0000
  C   C444      1.0  0.39455  0.64046  0.99594  1.0000
  C   C445      1.0  0.36104  0.97767  0.44875  1.0000
  H   H434      1.0  0.57622  0.97617  0.22486  1.0000
  C   C446      1.0  0.51603  0.62688  0.00883  1.0000
  H   H435      1.0  0.54806  0.63309  0.05386  1.0000
  H   H436      1.0  0.51856  0.64558  0.08892  1.0000
  H   H437      1.0  0.47968  0.64201  0.00609  1.0000
  H   H438      1.0  0.34013  0.49376  0.04472  1.0000
  C   C447      1.0  0.33978  0.48476  0.02876  1.0000
  Fe  Fe75      1.0  0.65145  0.59678  0.97928  1.0000
  S   S153      1.0  0.36400  0.57648  0.98468  1.0000
  C   C448      1.0  0.48490  0.97620  0.12979  1.0000
  C   C449      1.0  0.65354  0.49876  0.98163  1.0000
  C   C450      1.0  0.36668  0.96485  0.42925  1.0000
  H   H439      1.0  0.54670  0.67486  0.97845  1.0000
  H   H440      1.0  0.32394  0.92889  0.44550  1.0000
  H   H441      1.0  0.32380  0.49268  0.01934  1.0000
  H   H442      1.0  0.58486  0.70010  0.91756  1.0000
  H   H443      1.0  0.35341  0.90249  0.64490  1.0000
  S   S154      1.0  0.61809  0.61909  0.96567  1.0000
  H   H444      1.0  0.50884  0.91174  0.87839  1.0000
  H   H445      1.0  0.34290  0.94669  0.55533  1.0000
  S   S155      1.0  0.49950  0.75998  0.92829  1.0000
  C   C451      1.0  0.48119  0.97712  0.86180  1.0000
  Fe  Fe76      1.0  0.48270  0.92549  0.79699  1.0000
  S   S156      1.0  0.51393  0.90656  0.81645  1.0000
  S   S157      1.0  0.35856  0.64796  0.96465  1.0000
  Fe  Fe77      1.0  0.46821  0.88067  0.78795  1.0000
  S   S158      1.0  0.49796  0.85735  0.80651  1.0000
  S   S159      1.0  0.44057  0.86547  0.77370  1.0000
  Fe  Fe78      1.0  0.48971  0.88012  0.83582  1.0000
  S   S160      1.0  0.48525  0.86890  0.87797  1.0000
  Fe  Fe79      1.0  0.51954  0.88555  0.78550  1.0000
  S   S161      1.0  0.55436  0.87364  0.76546  1.0000
  S   S162      1.0  0.45793  0.90114  0.81887  1.0000
  S   S163      1.0  0.49039  0.90674  0.76448  1.0000
  H   H446      1.0  0.41436  0.94331  0.72378  1.0000
  C   C452      1.0  0.56668  0.92846  0.70796  1.0000
  S   S164      1.0  0.46851  0.96405  0.79016  1.0000
  H   H447      1.0  0.48463  0.94131  0.66074  1.0000
  S   S165      1.0  0.34345  0.60050  0.93042  1.0000
  C   C453      1.0  0.48258  0.89370  0.70781  1.0000
  C   C454      1.0  0.40267  0.51135  0.90043  1.0000
  C   C455      1.0  0.59030  0.70257  0.93488  1.0000
  C   C456      1.0  0.38623  0.51993  0.91870  1.0000
  H   H448      1.0  0.45304  0.96355  0.84924  1.0000
  C   C457      1.0  0.55706  0.91536  0.73054  1.0000
  C   C458      1.0  0.56547  0.89122  0.73770  1.0000
  C   C459      1.0  0.58321  0.88032  0.72224  1.0000
  C   C460      1.0  0.40083  0.48996  0.89328  1.0000
  H   H449      1.0  0.54338  0.92391  0.74247  1.0000
  H   H450      1.0  0.58980  0.86173  0.72765  1.0000
  C   C461      1.0  0.50093  0.93012  0.87386  1.0000
  C   C462      1.0  0.38732  0.92038  0.73137  1.0000
  C   C463      1.0  0.38154  0.89801  0.74305  1.0000
  C   C464      1.0  0.39812  0.88123  0.75564  1.0000
  C   C465      1.0  0.42034  0.88697  0.75746  1.0000
  C   C466      1.0  0.42608  0.90953  0.74617  1.0000
  C   C467      1.0  0.40974  0.92608  0.73269  1.0000
  H   H451      1.0  0.39357  0.86386  0.76431  1.0000
  H   H452      1.0  0.44315  0.91418  0.74757  1.0000
  H   H453      1.0  0.38532  0.97850  0.73445  1.0000
  H   H454      1.0  0.60588  0.88436  0.68773  1.0000
  C   C468      1.0  0.33107  0.96082  0.56236  1.0000
  C   C469      1.0  0.58434  0.91726  0.69243  1.0000
  N   N39       1.0  0.57669  0.71784  0.94870  1.0000
  Fe  Fe80      1.0  0.49195  0.74585  0.96981  1.0000
  H   H455      1.0  0.36424  0.89353  0.74217  1.0000
  C   C470      1.0  0.59236  0.89316  0.69964  1.0000
  H   H456      1.0  0.51656  0.95644  0.80369  1.0000
  Fe  Fe81      1.0  0.35977  0.56489  0.94915  1.0000
  C   C471      1.0  0.49783  0.79050  0.91521  1.0000
  C   C472      1.0  0.50319  0.79723  0.88932  1.0000
  C   C473      1.0  0.49989  0.82124  0.87774  1.0000
  C   C474      1.0  0.49138  0.83875  0.89204  1.0000
  C   C475      1.0  0.48675  0.83209  0.91806  1.0000
  C   C476      1.0  0.48992  0.80803  0.92964  1.0000
  H   H457      1.0  0.50949  0.78377  0.87805  1.0000
  H   H458      1.0  0.50373  0.82615  0.85774  1.0000
  H   H459      1.0  0.48026  0.84555  0.92927  1.0000
  H   H460      1.0  0.48576  0.80304  0.94961  1.0000
  C   C477      1.0  0.33871  0.91664  0.64325  1.0000
  C   C478      1.0  0.61110  0.68940  0.94321  1.0000
  H   H461      1.0  0.62146  0.67662  0.93271  1.0000
  H   H462      1.0  0.47041  0.92138  0.86105  1.0000
  H   H463      1.0  0.41695  0.52126  0.89183  1.0000
  H   H464      1.0  0.45887  0.77422  0.88035  1.0000
  H   H465      1.0  0.52612  0.93646  0.63833  1.0000
  H   H466      1.0  0.33911  0.48763  0.88101  1.0000
  C   C479      1.0  0.52261  0.89948  0.69171  1.0000
  S   S166      1.0  0.36577  0.94099  0.71612  1.0000
  C   C480      1.0  0.36786  0.50695  0.92988  1.0000
  C   C481      1.0  0.34891  0.67016  0.90501  1.0000
  S   S167      1.0  0.39047  0.54582  0.92845  1.0000
  H   H467      1.0  0.63684  0.96350  0.55593  1.0000
  N   N40       1.0  0.51464  0.91872  0.67467  1.0000
  C   C482      1.0  0.55445  0.73060  0.94011  1.0000
  C   C483      1.0  0.49098  0.92591  0.67405  1.0000
  C   C484      1.0  0.47460  0.91347  0.69050  1.0000
  H   H468      1.0  0.50096  0.96461  0.61265  1.0000
  C   C485      1.0  0.65065  0.48302  0.96631  1.0000
  C   C486      1.0  0.53143  0.93231  0.65754  1.0000
  H   H469      1.0  0.36200  0.65403  0.90909  1.0000
  H   H470      1.0  0.35151  0.67808  0.88488  1.0000
  H   H471      1.0  0.35544  0.96628  0.58677  1.0000
  H   H472      1.0  0.56021  0.94702  0.70244  1.0000
  H   H473      1.0  0.51324  0.87174  0.72231  1.0000
  H   H474      1.0  0.53236  0.94914  0.66385  1.0000
  H   H475      1.0  0.35534  0.51324  0.94428  1.0000
  C   C487      1.0  0.50675  0.88672  0.70854  1.0000
  H   H476      1.0  0.44060  0.82124  0.91609  1.0000
  H   H477      1.0  0.54945  0.92225  0.65646  1.0000
  C   C488      1.0  0.58300  0.72011  0.97113  1.0000
  H   H478      1.0  0.43113  0.84717  0.87625  1.0000
  H   H479      1.0  0.35259  0.68313  0.91592  1.0000
  S   S168      1.0  0.59577  0.93179  0.66299  1.0000
  C   C489      1.0  0.45989  0.79535  0.84344  1.0000
  C   C490      1.0  0.43895  0.83244  0.86714  1.0000
  C   C491      1.0  0.43758  0.80605  0.90797  1.0000
  S   S169      1.0  0.45083  0.96641  0.62445  1.0000
  C   C492      1.0  0.45442  0.79176  0.86940  1.0000
  H   H480      1.0  0.41873  0.80353  0.91210  1.0000
  C   C493      1.0  0.46941  0.95915  0.85780  1.0000
  N   N41       1.0  0.44420  0.81024  0.88091  1.0000
  C   C494      1.0  0.44383  0.83654  0.84114  1.0000
  H   H481      1.0  0.44834  0.79003  0.91755  1.0000
  S   S170      1.0  0.38373  0.96047  0.64550  1.0000
  C   C495      1.0  0.45440  0.81788  0.82925  1.0000
  H   H482      1.0  0.43951  0.85408  0.83018  1.0000
  C   C496      1.0  0.47930  0.93552  0.86406  1.0000
  H   H483      1.0  0.54817  0.74635  0.94904  1.0000
  H   H484      1.0  0.45841  0.82101  0.80907  1.0000
  H   H485      1.0  0.41464  0.49620  0.96164  1.0000
  H   H486      1.0  0.34367  0.97517  0.50443  1.0000
  Fe  Fe82      1.0  0.37902  0.96809  0.68436  1.0000
  C   C497      1.0  0.36644  0.48509  0.92327  1.0000
  H   H487      1.0  0.57366  0.64643  0.95595  1.0000
  H   H488      1.0  0.41173  0.70403  0.97300  1.0000
  Fe  Fe83      1.0  0.34595  0.61181  0.96691  1.0000
  C   C498      1.0  0.51236  0.94854  0.87737  1.0000
  H   H489      1.0  0.54134  0.89392  0.69248  1.0000
  H   H490      1.0  0.45585  0.91924  0.68987  1.0000
  H   H491      1.0  0.46839  0.78079  0.83438  1.0000
  H   H492      1.0  0.37974  0.69109  0.95503  1.0000
  H   H493      1.0  0.41429  0.96445  0.76570  1.0000
  H   H494      1.0  0.54060  0.71868  0.94459  1.0000
  H   H495      1.0  0.47008  0.88401  0.72087  1.0000
  H   H496      1.0  0.34500  0.92942  0.67546  1.0000
  H   H497      1.0  0.55640  0.73722  0.91962  1.0000
  C   C499      1.0  0.38895  0.67887  0.96923  1.0000
  H   H498      1.0  0.64163  0.48949  0.94975  1.0000
  C   C500      1.0  0.57773  0.64939  0.97362  1.0000
  C   C501      1.0  0.33392  0.93203  0.66042  1.0000
  H   H499      1.0  0.52934  0.94424  0.88466  1.0000
  C   C502      1.0  0.33862  0.48362  0.86217  1.0000
  H   H500      1.0  0.32666  0.64643  0.88098  1.0000
  S   S171      1.0  0.32540  0.55147  0.96304  1.0000
  N   N42       1.0  0.50238  0.97167  0.87152  1.0000
  H   H501      1.0  0.32452  0.96315  0.68920  1.0000
  H   H502      1.0  0.33242  0.50024  0.84950  1.0000
  C   C503      1.0  0.33827  0.97191  0.58020  1.0000
  C   C504      1.0  0.32467  0.91989  0.62376  1.0000
  H   H503      1.0  0.32840  0.90840  0.60999  1.0000
  C   C505      1.0  0.64459  0.97008  0.53720  1.0000
  H   H504      1.0  0.41362  0.48347  0.87911  1.0000
  Fe  Fe84      1.0  0.59254  0.97157  0.65353  1.0000
  C   C506      1.0  0.50897  0.97452  0.80444  1.0000
  C   C507      1.0  0.61786  0.69189  0.96585  1.0000
  H   H505      1.0  0.63350  0.68112  0.97291  1.0000
  N   N43       1.0  0.32505  0.66379  0.91200  1.0000
  Fe  Fe85      1.0  0.41504  0.98002  0.64112  1.0000
  C   C508      1.0  0.49456  0.97998  0.62114  1.0000
  C   C509      1.0  0.97068  0.42472  0.27887  1.0000
  H   H506      1.0  0.69130  0.37453  0.08651  1.0000
  Fe  Fe86      1.0  0.83547  0.47349  0.10630  1.0000
  S   S172      1.0  0.78878  0.06866  0.45133  1.0000
  Fe  Fe87      1.0  0.73546  0.01098  0.43689  1.0000
  S   S173      1.0  0.70730  0.01919  0.40970  1.0000
  C   C510      1.0  0.80676  0.40591  0.02811  1.0000
  S   S174      1.0  0.77308  0.01682  0.42476  1.0000
  C   C511      1.0  0.80123  0.40987  0.97810  1.0000
  Fe  Fe88      1.0  0.70259  0.37370  0.00705  1.0000
  H   H507      1.0  0.97140  0.21605  0.42175  1.0000
  S   S175      1.0  0.72483  0.37268  0.03864  1.0000
  C   C512      1.0  0.67135  0.45064  0.99361  1.0000
  H   H508      1.0  0.94180  0.40394  0.28811  1.0000
  S   S176      1.0  0.75876  0.46087  0.06980  1.0000
  Fe  Fe89      1.0  0.93901  0.32468  0.41675  1.0000
  C   C513      1.0  0.89826  0.25289  0.45054  1.0000
  S   S177      1.0  0.90338  0.32341  0.43854  1.0000
  Fe  Fe90      1.0  0.96384  0.34454  0.36601  1.0000
  C   C514      1.0  0.97382  0.43841  0.34647  1.0000
  S   S178      1.0  0.95353  0.36692  0.32929  1.0000
  H   H509      1.0  0.84008  0.27436  0.45047  1.0000
  S   S179      1.0  0.86937  0.44260  0.02738  1.0000
  C   C515      1.0  0.96607  0.21050  0.40535  1.0000
  S   S180      1.0  0.94815  0.31070  0.38118  1.0000
  S   S181      1.0  0.95201  0.35960  0.40078  1.0000
  C   C516      1.0  0.89248  0.29601  0.44364  1.0000
  H   H510      1.0  0.95457  0.09260  0.44606  1.0000
  C   C517      1.0  0.86814  0.29579  0.44569  1.0000
  H   H511      1.0  0.97122  0.15110  0.47373  1.0000
  H   H512      1.0  0.86990  0.46401  0.19046  1.0000
  H   H513      1.0  0.68291  0.45977  0.02567  1.0000
  S   S182      1.0  0.95009  0.14359  0.43146  1.0000
  C   C518      1.0  0.83716  0.10676  0.46625  1.0000
  H   H514      1.0  0.77099  0.12131  0.45018  1.0000
  N   N44       1.0  0.94210  0.22175  0.40092  1.0000
  C   C519      1.0  0.67383  0.46626  0.00918  1.0000
  N   N45       1.0  0.97222  0.47601  0.31840  1.0000
  H   H515      1.0  0.87859  0.25254  0.39270  1.0000
  H   H516      1.0  0.66080  0.38644  0.09153  1.0000
  C   C520      1.0  0.73543  0.39748  0.04550  1.0000
  C   C521      1.0  0.75034  0.39378  0.06450  1.0000
  C   C522      1.0  0.75886  0.41294  0.07096  1.0000
  C   C523      1.0  0.75209  0.43615  0.05889  1.0000
  C   C524      1.0  0.73707  0.43987  0.03994  1.0000
  C   C525      1.0  0.72907  0.42062  0.03297  1.0000
  H   H517      1.0  0.75519  0.37598  0.07449  1.0000
  H   H518      1.0  0.76985  0.40985  0.08606  1.0000
  H   H519      1.0  0.73121  0.45774  0.03092  1.0000
  H   H520      1.0  0.71745  0.42377  0.01846  1.0000
  C   C526      1.0  0.69404  0.99982  0.39607  1.0000
  H   H521      1.0  0.88610  0.20916  0.40824  1.0000
  H   H522      1.0  0.90430  0.47945  0.20125  1.0000
  C   C527      1.0  0.85891  0.27427  0.44943  1.0000
  C   C528      1.0  0.96938  0.38955  0.31184  1.0000
  C   C529      1.0  0.95903  0.40583  0.29246  1.0000
  C   C530      1.0  0.86892  0.44605  0.97726  1.0000
  S   S183      1.0  0.92200  0.18983  0.47391  1.0000
  C   C531      1.0  0.91529  0.25705  0.38878  1.0000
  C   C532      1.0  0.93988  0.45333  0.32404  1.0000
  H   H523      1.0  0.67856  0.43218  0.99809  1.0000
  C   C533      1.0  0.94857  0.08658  0.46552  1.0000
  C   C534      1.0  0.67801  0.00972  0.37845  1.0000
  H   H524      1.0  0.92297  0.45101  0.31908  1.0000
  Fe  Fe91      1.0  0.77214  0.03401  0.45822  1.0000
  C   C535      1.0  0.86917  0.45829  0.99668  1.0000
  C   C536      1.0  0.93811  0.24566  0.39226  1.0000
  H   H525      1.0  0.86973  0.42694  0.98119  1.0000
  C   C537      1.0  0.67743  0.31924  0.06057  1.0000
  C   C538      1.0  0.81037  0.07773  0.46642  1.0000
  H   H526      1.0  0.92677  0.18976  0.41363  1.0000
  H   H527      1.0  0.70870  0.47424  0.08611  1.0000
  H   H528      1.0  0.67352  0.02879  0.37404  1.0000
  C   C539      1.0  0.81553  0.42428  0.01070  1.0000
  Fe  Fe92      1.0  0.66316  0.35260  0.98785  1.0000
  H   H529      1.0  0.70167  0.33807  0.07237  1.0000
  H   H530      1.0  0.91346  0.10574  0.43922  1.0000
  C   C540      1.0  0.78006  0.37517  0.98725  1.0000
  H   H531      1.0  0.78858  0.37545  0.03367  1.0000
  Fe  Fe93      1.0  0.98284  0.29643  0.39620  1.0000
  H   H532      1.0  0.92643  0.27457  0.44450  1.0000
  C   C541      1.0  0.92375  0.20863  0.40639  1.0000
  S   S184      1.0  0.97236  0.30800  0.43312  1.0000
  C   C542      1.0  0.79518  0.38983  0.02005  1.0000
  Fe  Fe94      1.0  0.98659  0.34134  0.41344  1.0000
  S   S185      1.0  0.73321  0.03149  0.46819  1.0000
  Fe  Fe95      1.0  0.79535  0.46731  0.07593  1.0000
  H   H533      1.0  0.91210  0.27612  0.38255  1.0000
  S   S186      1.0  0.70148  0.33992  0.99313  1.0000
  N   N46       1.0  0.79209  0.39227  0.99539  1.0000
  C   C543      1.0  0.97826  0.13463  0.44126  1.0000
  C   C544      1.0  0.90071  0.21944  0.40313  1.0000
  H   H534      1.0  0.76757  0.36701  0.00255  1.0000
  H   H535      1.0  0.82461  0.43678  0.01674  1.0000
  C   C545      1.0  0.89650  0.24381  0.39433  1.0000
  C   C546      1.0  0.90760  0.27452  0.44597  1.0000
  H   H536      1.0  0.85638  0.31234  0.44397  1.0000
  S   S187      1.0  0.82791  0.44363  0.08866  1.0000
  H   H537      1.0  0.97871  0.21600  0.38886  1.0000
  H   H538      1.0  0.92982  0.35066  0.45729  1.0000
  C   C547      1.0  0.67629  0.99819  0.46537  1.0000
  H   H539      1.0  0.79321  0.36089  0.98088  1.0000
  C   C548      1.0  0.90838  0.09082  0.45414  1.0000
  H   H540      1.0  0.75338  0.00895  0.37476  1.0000
  H   H541      1.0  0.68912  0.98469  0.45719  1.0000
  S   S188      1.0  0.84842  0.46988  0.14476  1.0000
  H   H542      1.0  0.94405  0.41955  0.34904  1.0000
  C   C549      1.0  0.87516  0.47827  0.15109  1.0000
  C   C550      1.0  0.95045  0.47352  0.31289  1.0000
  C   C551      1.0  0.82170  0.09735  0.45420  1.0000
  C   C552      1.0  0.88095  0.47380  0.17585  1.0000
  C   C553      1.0  0.87386  0.25271  0.45203  1.0000
  C   C554      1.0  0.66798  0.99526  0.36608  1.0000
  H   H543      1.0  0.81822  0.10552  0.43533  1.0000
  H   H544      1.0  0.89048  0.09686  0.46269  1.0000
  H   H545      1.0  0.69051  0.30413  0.05789  1.0000
  H   H546      1.0  0.95258  0.25612  0.38827  1.0000
  S   S189      1.0  0.88541  0.15960  0.45553  1.0000
  H   H547      1.0  0.90756  0.07521  0.44564  1.0000
  C   C555      1.0  0.95167  0.43570  0.34095  1.0000
  N   N47       1.0  0.92528  0.08462  0.47280  1.0000
  C   C556      1.0  0.95586  0.36906  0.46654  1.0000
  H   H548      1.0  0.96247  0.43727  0.26415  1.0000
  C   C557      1.0  0.68364  0.33858  0.06864  1.0000
  H   H549      1.0  0.96759  0.19080  0.40888  1.0000
  S   S190      1.0  0.86149  0.22615  0.45539  1.0000
  C   C558      1.0  0.81298  0.42619  0.98549  1.0000
  H   H550      1.0  0.95744  0.38054  0.44838  1.0000
  Fe  Fe96      1.0  0.84631  0.46318  0.05387  1.0000
  H   H551      1.0  0.80901  0.40415  0.04771  1.0000
  Fe  Fe97      1.0  0.78248  0.98218  0.45041  1.0000
  H   H552      1.0  0.84537  0.12205  0.45667  1.0000
  Fe  Fe98      1.0  0.92352  0.15528  0.46150  1.0000
  H   H553      1.0  0.68571  0.01295  0.46705  1.0000
  H   H554      1.0  0.72862  0.00077  0.34504  1.0000
  H   H555      1.0  0.91002  0.23651  0.45208  1.0000
  C   C559      1.0  0.67442  0.37895  0.07793  1.0000
  H   H556      1.0  0.67704  0.39270  0.06089  1.0000
  C   C560      1.0  0.75376  0.99092  0.37189  1.0000
  H   H557      1.0  0.66311  0.00508  0.45178  1.0000
  C   C561      1.0  0.98406  0.14039  0.46303  1.0000
  N   N48       1.0  0.66741  0.35809  0.07109  1.0000
  S   S191      1.0  0.66353  0.38436  0.00588  1.0000
  H   H558      1.0  0.78515  0.16108  0.44406  1.0000
  Fe  Fe99      1.0  0.88324  0.19250  0.47182  1.0000
  H   H559      1.0  0.98345  0.42439  0.35891  1.0000
  C   C562      1.0  0.98398  0.45871  0.33479  1.0000
  C   C563      1.0  0.76541  0.12389  0.46973  1.0000
  H   H560      1.0  0.74752  0.13412  0.47082  1.0000
  C   C564      1.0  0.73976  0.98616  0.35511  1.0000
  C   C565      1.0  0.79044  0.15544  0.46276  1.0000
  C   C566      1.0  0.94048  0.35196  0.47161  1.0000
  H   H561      1.0  0.81303  0.18281  0.45821  1.0000
  H   H562      1.0  0.75315  0.45002  0.98027  1.0000
  C   C567      1.0  0.80615  0.16780  0.47062  1.0000
  C   C568      1.0  0.73967  0.46101  0.96961  1.0000
  C   C569      1.0  0.96831  0.35530  0.50768  1.0000
  C   C570      1.0  0.98633  0.43975  0.64418  1.0000
  S   S192      1.0  0.67089  0.37233  0.94875  1.0000
  C   C571      1.0  0.98850  0.36444  0.67113  1.0000
  S   S193      1.0  0.71247  0.39469  0.96941  1.0000
  H   H563      1.0  0.89944  0.07430  0.50296  1.0000
  S   S194      1.0  0.65782  0.43989  0.95188  1.0000
  H   H564      1.0  0.78253  0.11378  0.51411  1.0000
  H   H565      1.0  0.96888  0.41520  0.63086  1.0000
  Fe  Fe100     1.0  0.83212  0.42890  0.89898  1.0000
  S   S195      1.0  0.81544  0.44055  0.86344  1.0000
  S   S196      1.0  0.83277  0.39156  0.91974  1.0000
  S   S197      1.0  0.78372  0.99957  0.48322  1.0000
  C   C572      1.0  0.89633  0.45311  0.80373  1.0000
  H   H566      1.0  0.83345  0.06903  0.52201  1.0000
  S   S198      1.0  0.98371  0.33406  0.63996  1.0000
  S   S199      1.0  0.86548  0.44430  0.88379  1.0000
  C   C573      1.0  0.98775  0.18218  0.51517  1.0000
  H   H567      1.0  0.96970  0.07031  0.52211  1.0000
  H   H568      1.0  0.96963  0.36506  0.67561  1.0000
  S   S200      1.0  0.95400  0.27811  0.54923  1.0000
  Fe  Fe101     1.0  0.74487  0.99595  0.49108  1.0000
  H   H569      1.0  0.65852  0.02625  0.67950  1.0000
  Fe  Fe102     1.0  0.88027  0.14044  0.49507  1.0000
  H   H570      1.0  0.98424  0.28077  0.66569  1.0000
  S   S201      1.0  0.85917  0.10903  0.50778  1.0000
  Fe  Fe103     1.0  0.91381  0.16947  0.51241  1.0000
  Fe  Fe104     1.0  0.98184  0.28407  0.57197  1.0000
  S   S202      1.0  0.93241  0.17489  0.54417  1.0000
  C   C574      1.0  0.78875  0.12920  0.50192  1.0000
  H   H571      1.0  0.71979  0.46325  0.89866  1.0000
  Fe  Fe105     1.0  0.67362  0.40292  0.96696  1.0000
  Fe  Fe106     1.0  0.80049  0.47316  0.87912  1.0000
  S   S203      1.0  0.87458  0.17399  0.51129  1.0000
  S   S204      1.0  0.91897  0.13413  0.50008  1.0000
  C   C575      1.0  0.94815  0.24928  0.54819  1.0000
  C   C576      1.0  0.95572  0.22954  0.56582  1.0000
  C   C577      1.0  0.95032  0.20696  0.56470  1.0000
  C   C578      1.0  0.93780  0.20380  0.54567  1.0000
  C   C579      1.0  0.93047  0.22353  0.52789  1.0000
  C   C580      1.0  0.93550  0.24616  0.52925  1.0000
  H   H572      1.0  0.96537  0.23171  0.58057  1.0000
  H   H573      1.0  0.95597  0.19183  0.57861  1.0000
  H   H574      1.0  0.92067  0.22143  0.51324  1.0000
  H   H575      1.0  0.92946  0.26130  0.51558  1.0000
  C   C581      1.0  0.68050  0.02605  0.61899  1.0000
  H   H576      1.0  0.92030  0.31067  0.51862  1.0000
  C   C582      1.0  0.67811  0.01913  0.64491  1.0000
  C   C583      1.0  0.98558  0.42099  0.63205  1.0000
  H   H577      1.0  0.86964  0.39033  0.87075  1.0000
  H   H578      1.0  0.68947  0.00398  0.65381  1.0000
  H   H579      1.0  0.98319  0.08395  0.47734  1.0000
  H   H580      1.0  0.92752  0.06515  0.53481  1.0000
  C   C584      1.0  0.83038  0.07692  0.50296  1.0000
  S   S205      1.0  0.99005  0.32119  0.56987  1.0000
  S   S206      1.0  0.72832  0.98170  0.52998  1.0000
  H   H581      1.0  0.90626  0.32566  0.49153  1.0000
  C   C585      1.0  0.70119  0.99498  0.54328  1.0000
  H   H582      1.0  0.82556  0.16975  0.50081  1.0000
  H   H583      1.0  0.93182  0.30386  0.48838  1.0000
  C   C586      1.0  0.66658  0.02475  0.54099  1.0000
  H   H584      1.0  0.74061  0.43684  0.94441  1.0000
  H   H585      1.0  0.93906  0.45421  0.75397  1.0000
  C   C587      1.0  0.90669  0.45376  0.77898  1.0000
  H   H586      1.0  0.65698  0.04046  0.53086  1.0000
  C   C588      1.0  0.86696  0.45854  0.95286  1.0000
  C   C589      1.0  0.70741  0.45883  0.91567  1.0000
  C   C590      1.0  0.94564  0.45148  0.79210  1.0000
  C   C591      1.0  0.93529  0.45000  0.81690  1.0000
  C   C592      1.0  0.91079  0.45083  0.82271  1.0000
  C   C593      1.0  0.86871  0.39097  0.85052  1.0000
  C   C594      1.0  0.93129  0.45297  0.77314  1.0000
  H   H587      1.0  0.94629  0.44880  0.83167  1.0000
  H   H588      1.0  0.90313  0.45021  0.84181  1.0000
  C   C595      1.0  0.92362  0.31839  0.49846  1.0000
  H   H589      1.0  0.66166  0.98488  0.59531  1.0000
  H   H590      1.0  0.95200  0.32621  0.52985  1.0000
  H   H591      1.0  0.86626  0.44901  0.93806  1.0000
  C   C596      1.0  0.73233  0.45352  0.94955  1.0000
  H   H592      1.0  0.87484  0.40791  0.84043  1.0000
  C   C597      1.0  0.76353  0.36143  0.92592  1.0000
  C   C598      1.0  0.76371  0.38603  0.91942  1.0000
  C   C599      1.0  0.78499  0.39553  0.91715  1.0000
  C   C600      1.0  0.80592  0.38043  0.92205  1.0000
  C   C601      1.0  0.80560  0.35596  0.92881  1.0000
  C   C602      1.0  0.78453  0.34646  0.93038  1.0000
  H   H593      1.0  0.74753  0.39760  0.91554  1.0000
  H   H594      1.0  0.78518  0.41447  0.91166  1.0000
  H   H595      1.0  0.82173  0.34424  0.93258  1.0000
  H   H596      1.0  0.78445  0.32746  0.93526  1.0000
  H   H597      1.0  0.69378  0.01637  0.60753  1.0000
  C   C603      1.0  0.66917  0.99351  0.57733  1.0000
  H   H598      1.0  0.80636  0.05247  0.50061  1.0000
  C   C604      1.0  0.91784  0.07629  0.49723  1.0000
  H   H599      1.0  0.76462  0.10579  0.48105  1.0000
  C   C605      1.0  0.65979  0.45902  0.97215  1.0000
  C   C606      1.0  0.66522  0.04521  0.60784  1.0000
  H   H600      1.0  0.70687  0.43937  0.92003  1.0000
  S   S207      1.0  0.73756  0.34893  0.92745  1.0000
  C   C607      1.0  0.68872  0.01539  0.53047  1.0000
  S   S208      1.0  0.81478  0.45996  0.91593  1.0000
  H   H601      1.0  0.76951  0.38392  0.97167  1.0000
  H   H602      1.0  0.98529  0.21412  0.48768  1.0000
  H   H603      1.0  0.69603  0.02385  0.51236  1.0000
  H   H604      1.0  0.88088  0.37596  0.84436  1.0000
  N   N49       1.0  0.84461  0.38970  0.84586  1.0000
  C   C608      1.0  0.83101  0.37542  0.86282  1.0000
  C   C609      1.0  0.83602  0.40226  0.82438  1.0000
  C   C610      1.0  0.80771  0.37449  0.85920  1.0000
  C   C611      1.0  0.81279  0.40173  0.82012  1.0000
  C   C612      1.0  0.79853  0.38790  0.83779  1.0000
  C   C613      1.0  0.80436  0.14119  0.51039  1.0000
  H   H605      1.0  0.83799  0.36507  0.87961  1.0000
  H   H606      1.0  0.84689  0.41332  0.81071  1.0000
  H   H607      1.0  0.79675  0.36372  0.87313  1.0000
  H   H608      1.0  0.80583  0.41231  0.80343  1.0000
  H   H609      1.0  0.78035  0.38762  0.83499  1.0000
  H   H610      1.0  0.89562  0.45550  0.76417  1.0000
  S   S209      1.0  0.97603  0.45407  0.78594  1.0000
  N   N50       1.0  0.71474  0.46697  0.93666  1.0000
  N   N51       1.0  0.93906  0.33689  0.49417  1.0000
  H   H611      1.0  0.97960  0.35602  0.52168  1.0000
  C   C614      1.0  0.95281  0.33832  0.51208  1.0000
  S   S210      1.0  0.98426  0.27502  0.61329  1.0000
  Fe  Fe107     1.0  0.84752  0.45874  0.84920  1.0000
  H   H612      1.0  0.66687  0.05023  0.58765  1.0000
  N   N52       1.0  0.78212  0.13629  0.47829  1.0000
  Fe  Fe108     1.0  0.70900  0.36208  0.95519  1.0000
  H   H613      1.0  0.98234  0.38345  0.48073  1.0000
  H   H614      1.0  0.68930  0.46717  0.91174  1.0000
  C   C615      1.0  0.69144  0.98424  0.56687  1.0000
  C   C616      1.0  0.84138  0.09676  0.49087  1.0000
  H   H615      1.0  0.97837  0.17284  0.50531  1.0000
  C   C617      1.0  0.95730  0.07388  0.50822  1.0000
  C   C618      1.0  0.96488  0.08154  0.48313  1.0000
  C   C619      1.0  0.81503  0.06742  0.49084  1.0000
  C   C620      1.0  0.81314  0.16055  0.49458  1.0000
  C   C621      1.0  0.93367  0.07100  0.51534  1.0000
  C   C622      1.0  0.66077  0.03161  0.65932  1.0000
  S   S211      1.0  0.86527  0.45660  0.81013  1.0000
  N   N53       1.0  0.66510  0.98806  0.48988  1.0000
  Fe  Fe109     1.0  0.84634  0.47690  0.89718  1.0000
  H   H616      1.0  0.79968  0.41125  0.95843  1.0000
  H   H617      1.0  0.97022  0.44885  0.65236  1.0000
  C   C623      1.0  0.96981  0.37074  0.48474  1.0000
  H   H618      1.0  0.81033  0.13499  0.52876  1.0000
  H   H619      1.0  0.82045  0.43998  0.97174  1.0000
  H   H620      1.0  0.91121  0.89517  0.45784  1.0000
  S   S212      1.0  0.95630  0.50184  0.24387  1.0000
  C   C624      1.0  0.82040  0.92801  0.44300  1.0000
  H   H621      1.0  0.77864  0.97565  0.39853  1.0000
  H   H622      1.0  0.89077  0.56422  0.09626  1.0000
  S   S213      1.0  0.96195  0.56102  0.26731  1.0000
  Fe  Fe110     1.0  0.96062  0.50858  0.20149  1.0000
  S   S214      1.0  0.93674  0.51115  0.17036  1.0000
  S   S215      1.0  0.70903  0.55611  0.99547  1.0000
  H   H623      1.0  0.73644  0.49824  0.09469  1.0000
  S   S216      1.0  0.88749  0.79420  0.45021  1.0000
  C   C625      1.0  0.84848  0.89233  0.43980  1.0000
  H   H624      1.0  0.88582  0.49424  0.11328  1.0000
  H   H625      1.0  0.93337  0.71741  0.43484  1.0000
  H   H626      1.0  0.85112  0.92642  0.41610  1.0000
  S   S217      1.0  0.95356  0.68509  0.40208  1.0000
  S   S218      1.0  0.71249  0.60062  0.03710  1.0000
  H   H627      1.0  0.81925  0.50138  0.97911  1.0000
  S   S219      1.0  0.90642  0.84552  0.42746  1.0000
  C   C626      1.0  0.72342  0.51368  0.09040  1.0000
  C   C627      1.0  0.76740  0.94908  0.38227  1.0000
  H   H628      1.0  0.97193  0.61972  0.31726  1.0000
  H   H629      1.0  0.89248  0.87242  0.46744  1.0000
  Fe  Fe111     1.0  0.91521  0.80809  0.42070  1.0000
  S   S220      1.0  0.92548  0.79660  0.38358  1.0000
  H   H630      1.0  0.74257  0.53650  0.10435  1.0000
  Fe  Fe112     1.0  0.82095  0.51095  0.06225  1.0000
  H   H631      1.0  0.75288  0.92685  0.36306  1.0000
  S   S221      1.0  0.81674  0.55045  0.04971  1.0000
  N   N54       1.0  0.73942  0.96335  0.35221  1.0000
  C   C628      1.0  0.71059  0.55534  0.09001  1.0000
  Fe  Fe113     1.0  0.88147  0.83082  0.45978  1.0000
  S   S222      1.0  0.81308  0.95890  0.43329  1.0000
  H   H632      1.0  0.89104  0.55441  0.14219  1.0000
  S   S223      1.0  0.66402  0.95183  0.35376  1.0000
  C   C629      1.0  0.90054  0.48248  0.18204  1.0000
  S   S224      1.0  0.94423  0.79844  0.44534  1.0000
  C   C630      1.0  0.74136  0.58606  0.04014  1.0000
  C   C631      1.0  0.74727  0.56176  0.03963  1.0000
  C   C632      1.0  0.77023  0.55045  0.04328  1.0000
  C   C633      1.0  0.78750  0.56360  0.04666  1.0000
  C   C634      1.0  0.78167  0.58788  0.04676  1.0000
  C   C635      1.0  0.75859  0.59896  0.04398  1.0000
  H   H633      1.0  0.73399  0.55148  0.03734  1.0000
  H   H634      1.0  0.77464  0.53166  0.04315  1.0000
  H   H635      1.0  0.79495  0.59813  0.04932  1.0000
  H   H636      1.0  0.75415  0.61769  0.04450  1.0000
  C   C636      1.0  0.94626  0.71615  0.39649  1.0000
  C   C637      1.0  0.95038  0.72968  0.37260  1.0000
  C   C638      1.0  0.94360  0.75439  0.36847  1.0000
  C   C639      1.0  0.93337  0.76565  0.38837  1.0000
  C   C640      1.0  0.92989  0.75214  0.41229  1.0000
  C   C641      1.0  0.93610  0.72750  0.41627  1.0000
  H   H637      1.0  0.95814  0.72105  0.35718  1.0000
  H   H638      1.0  0.94618  0.76472  0.34986  1.0000
  S   S225      1.0  0.95974  0.85824  0.45494  1.0000
  H   H639      1.0  0.84870  0.54800  0.18382  1.0000
  H   H640      1.0  0.85839  0.55357  0.07668  1.0000
  H   H641      1.0  0.86441  0.88377  0.43090  1.0000
  H   H642      1.0  0.94128  0.48699  0.29956  1.0000
  C   C642      1.0  0.72504  0.95856  0.33423  1.0000
  C   C643      1.0  0.72692  0.53523  0.09606  1.0000
  H   H643      1.0  0.69438  0.94158  0.39314  1.0000
  H   H644      1.0  0.67892  0.56950  0.07255  1.0000
  H   H645      1.0  0.86869  0.49244  0.00653  1.0000
  C   C644      1.0  0.87671  0.55559  0.10780  1.0000
  H   H646      1.0  0.97662  0.59775  0.21962  1.0000
  C   C645      1.0  0.98096  0.60628  0.30698  1.0000
  H   H647      1.0  0.71349  0.57241  0.09339  1.0000
  C   C646      1.0  0.70110  0.48964  0.07271  1.0000
  C   C647      1.0  0.98340  0.49705  0.30653  1.0000
  H   H648      1.0  0.97968  0.78835  0.35190  1.0000
  C   C648      1.0  0.68963  0.96063  0.38910  1.0000
  H   H649      1.0  0.88907  0.93288  0.45408  1.0000
  H   H650      1.0  0.83410  0.53299  0.99495  1.0000
  H   H651      1.0  0.85204  0.51648  0.18368  1.0000
  C   C649      1.0  0.66521  0.49036  0.00299  1.0000
  C   C650      1.0  0.97927  0.57567  0.28240  1.0000
  S   S226      1.0  0.74487  0.97529  0.46040  1.0000
  H   H652      1.0  0.82814  0.52297  0.14916  1.0000
  N   N55       1.0  0.85941  0.53850  0.14834  1.0000
  H   H653      1.0  0.94889  0.59553  0.29949  1.0000
  H   H654      1.0  0.97072  0.80216  0.39386  1.0000
  H   H655      1.0  0.91996  0.50982  0.12406  1.0000
  C   C651      1.0  0.93300  0.65648  0.47125  1.0000
  S   S227      1.0  0.85600  0.49113  0.07200  1.0000
  C   C652      1.0  0.69115  0.55372  0.07824  1.0000
  Fe  Fe114     1.0  0.98707  0.67357  0.37917  1.0000
  H   H656      1.0  0.74888  0.58446  0.98494  1.0000
  Fe  Fe115     1.0  0.97455  0.53409  0.24149  1.0000
  H   H657      1.0  0.71191  0.96715  0.41502  1.0000
  H   H658      1.0  0.96121  0.62925  0.24411  1.0000
  C   C653      1.0  0.80331  0.55848  0.98719  1.0000
  C   C654      1.0  0.84085  0.91650  0.43139  1.0000
  Fe  Fe116     1.0  0.69292  0.58852  0.01034  1.0000
  C   C655      1.0  0.87671  0.55008  0.13378  1.0000
  N   N56       1.0  0.78151  0.56257  0.97888  1.0000
  Fe  Fe117     1.0  0.93303  0.83434  0.45499  1.0000
  C   C656      1.0  0.84094  0.53808  0.11184  1.0000
  C   C657      1.0  0.85865  0.54956  0.09681  1.0000
  C   C658      1.0  0.83559  0.87943  0.45983  1.0000
  H   H659      1.0  0.82695  0.53323  0.10341  1.0000
  H   H660      1.0  0.73452  0.48871  0.99158  1.0000
  H   H661      1.0  0.94045  0.64440  0.45862  1.0000
  H   H662      1.0  0.71014  0.48858  0.05375  1.0000
  Fe  Fe118     1.0  0.67244  0.54699  0.00077  1.0000
  C   C659      1.0  0.96793  0.59256  0.29677  1.0000
  S   S228      1.0  0.84575  0.84968  0.47255  1.0000
  H   H663      1.0  0.97182  0.51011  0.29425  1.0000
  H   H664      1.0  0.92214  0.76059  0.42779  1.0000
  C   C660      1.0  0.76748  0.58607  0.97741  1.0000
  C   C661      1.0  0.68819  0.53190  0.07287  1.0000
  H   H665      1.0  0.77818  0.93449  0.39290  1.0000
  C   C662      1.0  0.84160  0.53259  0.13771  1.0000
  C   C663      1.0  0.85937  0.53330  0.17556  1.0000
  H   H666      1.0  0.67327  0.53092  0.06325  1.0000
  C   C664      1.0  0.98002  0.62536  0.23914  1.0000
  C   C665      1.0  0.69958  0.97510  0.40158  1.0000
  S   S229      1.0  0.80053  0.49514  0.09742  1.0000
  C   C666      1.0  0.91453  0.49594  0.16349  1.0000
  H   H667      1.0  0.81005  0.57220  0.99390  1.0000
  C   C667      1.0  0.98798  0.71104  0.45010  1.0000
  C   C668      1.0  0.67388  0.97060  0.37113  1.0000
  N   N57       1.0  0.70404  0.51216  0.07929  1.0000
  H   H668      1.0  0.73613  0.95599  0.31663  1.0000
  S   S230      1.0  0.67040  0.50984  0.02151  1.0000
  H   H669      1.0  0.97817  0.70397  0.43842  1.0000
  S   S231      1.0  0.97547  0.54269  0.19971  1.0000
  C   C669      1.0  0.98908  0.80489  0.39136  1.0000
  C   C670      1.0  0.76769  0.97224  0.38547  1.0000
  H   H670      1.0  0.91413  0.68097  0.44346  1.0000
  C   C671      1.0  0.75310  0.94492  0.36541  1.0000
  H   H671      1.0  0.77406  0.59723  0.98849  1.0000
  C   C672      1.0  0.98050  0.73350  0.45601  1.0000
  C   C673      1.0  0.88981  0.49077  0.13243  1.0000
  C   C674      1.0  0.80866  0.51854  0.97909  1.0000
  H   H672      1.0  0.98427  0.63083  0.47223  1.0000
  C   C675      1.0  0.90923  0.49960  0.13863  1.0000
  C   C676      1.0  0.81707  0.53633  0.98775  1.0000
  H   H673      1.0  0.71053  0.97329  0.32988  1.0000
  H   H674      1.0  0.98434  0.82693  0.41953  1.0000
  C   C677      1.0  0.80712  0.91499  0.46259  1.0000
  H   H675      1.0  0.71635  0.94247  0.34204  1.0000
  C   C678      1.0  0.91823  0.67709  0.46270  1.0000
  H   H676      1.0  0.96455  0.74393  0.44934  1.0000
  H   H677      1.0  0.87759  0.53085  0.18098  1.0000
  H   H678      1.0  0.68220  0.48807  0.07266  1.0000
  C   C679      1.0  0.98399  0.84095  0.46835  1.0000
  H   H679      1.0  0.79129  0.92366  0.47161  1.0000
  S   S232      1.0  0.81364  0.48507  0.04020  1.0000
  H   H680      1.0  0.85450  0.96053  0.46673  1.0000
  C   C680      1.0  0.87680  0.92670  0.46987  1.0000
  C   C681      1.0  0.81468  0.89074  0.47090  1.0000
  H   H681      1.0  0.98771  0.50622  0.32089  1.0000
  C   C682      1.0  0.86831  0.48299  0.99154  1.0000
  H   H682      1.0  0.89868  0.70960  0.47201  1.0000
  H   H683      1.0  0.98910  0.64996  0.25983  1.0000
  C   C683      1.0  0.98888  0.60754  0.22527  1.0000
  C   C684      1.0  0.89942  0.88676  0.47369  1.0000
  C   C685      1.0  0.72930  0.48270  0.97593  1.0000
  H   H684      1.0  0.82536  0.94636  0.50172  1.0000
  S   S233      1.0  0.92454  0.74868  0.49545  1.0000
  H   H685      1.0  0.83094  0.90425  0.52350  1.0000
  N   N58       1.0  0.90311  0.50843  0.83274  1.0000
  H   H686      1.0  0.78883  0.51664  0.89671  1.0000
  S   S234      1.0  0.73114  0.57763  0.92844  1.0000
  H   H687      1.0  0.80456  0.88081  0.48632  1.0000
  H   H688      1.0  0.70097  0.96840  0.57688  1.0000
  C   C686      1.0  0.97620  0.71271  0.53605  1.0000
  C   C687      1.0  0.73936  0.55209  0.91507  1.0000
  C   C688      1.0  0.76332  0.54367  0.91042  1.0000
  C   C689      1.0  0.77032  0.52320  0.89994  1.0000
  C   C690      1.0  0.75340  0.51172  0.89302  1.0000
  C   C691      1.0  0.72950  0.52062  0.89687  1.0000
  C   C692      1.0  0.72242  0.54043  0.90848  1.0000
  H   H689      1.0  0.77652  0.55297  0.91494  1.0000
  H   H690      1.0  0.71644  0.51217  0.89086  1.0000
  H   H691      1.0  0.70394  0.54720  0.91150  1.0000
  S   S235      1.0  0.66510  0.56446  0.96177  1.0000
  H   H692      1.0  0.69086  0.49912  0.93227  1.0000
  H   H693      1.0  0.87597  0.51633  0.86155  1.0000
  C   C693      1.0  0.95883  0.71900  0.51961  1.0000
  C   C694      1.0  0.94736  0.74227  0.51487  1.0000
  C   C695      1.0  0.95405  0.75958  0.52589  1.0000
  H   H694      1.0  0.69467  0.96187  0.49829  1.0000
  H   H695      1.0  0.92777  0.50995  0.76359  1.0000
  H   H696      1.0  0.95461  0.70589  0.51017  1.0000
  H   H697      1.0  0.94536  0.77765  0.52217  1.0000
  S   S236      1.0  0.83073  0.49288  0.86138  1.0000
  H   H698      1.0  0.86923  0.51060  0.82042  1.0000
  H   H699      1.0  0.93462  0.64395  0.54611  1.0000
  H   H700      1.0  0.67650  0.94533  0.54012  1.0000
  S   S237      1.0  0.86266  0.49894  0.91740  1.0000
  C   C696      1.0  0.84095  0.93450  0.49666  1.0000
  C   C697      1.0  0.90947  0.69304  0.47871  1.0000
  C   C698      1.0  0.66678  0.95984  0.52831  1.0000
  C   C699      1.0  0.92691  0.50676  0.82608  1.0000
  C   C700      1.0  0.98235  0.72971  0.54783  1.0000
  S   S238      1.0  0.76177  0.48608  0.87987  1.0000
  C   C701      1.0  0.89657  0.51151  0.78989  1.0000
  H   H701      1.0  0.86534  0.87692  0.50984  1.0000
  C   C702      1.0  0.93647  0.66257  0.53706  1.0000
  Fe  Fe119     1.0  0.70043  0.57691  0.95833  1.0000
  C   C703      1.0  0.84407  0.91089  0.50886  1.0000
  H   H702      1.0  0.90899  0.70082  0.51527  1.0000
  C   C704      1.0  0.91538  0.68794  0.50324  1.0000
  H   H703      1.0  0.96363  0.81465  0.49057  1.0000
  H   H704      1.0  0.93898  0.50403  0.84018  1.0000
  C   C705      1.0  0.88800  0.51046  0.81507  1.0000
  H   H705      1.0  0.97635  0.76655  0.55140  1.0000
  C   C706      1.0  0.86747  0.49539  0.96690  1.0000
  C   C707      1.0  0.97150  0.75326  0.54249  1.0000
  S   S239      1.0  0.90801  0.82154  0.48794  1.0000
  H   H706      1.0  0.88456  0.51233  0.77609  1.0000
  H   H707      1.0  0.95500  0.50546  0.79590  1.0000
  C   C708      1.0  0.93609  0.50773  0.80106  1.0000
  H   H708      1.0  0.92561  0.67451  0.54894  1.0000
  Fe  Fe120     1.0  0.91641  0.78637  0.47533  1.0000
  C   C709      1.0  0.89390  0.50627  0.85915  1.0000
  C   C710      1.0  0.70468  0.48834  0.94260  1.0000
  C   C711      1.0  0.98101  0.81985  0.48515  1.0000
  H   H709      1.0  0.95522  0.66508  0.53647  1.0000
  H   H710      1.0  0.98741  0.75969  0.47569  1.0000
  C   C712      1.0  0.92078  0.51014  0.78289  1.0000
  H   H711      1.0  0.98472  0.69462  0.53968  1.0000
  H   H712      1.0  0.86713  0.51444  0.96284  1.0000
  C   C713      1.0  0.86627  0.48321  0.94766  1.0000
  H   H713      1.0  0.70363  0.51347  0.96690  1.0000
  C   C714      1.0  0.85740  0.94249  0.47704  1.0000
  C   C715      1.0  0.77303  0.54508  0.97077  1.0000
  C   C716      1.0  0.71192  0.49661  0.96216  1.0000
  C   C717      1.0  0.86360  0.89554  0.50111  1.0000
  H   H714      1.0  0.76771  0.59528  0.95761  1.0000
  H   H715      1.0  0.91029  0.87875  0.48924  1.0000
  C   C718      1.0  0.93846  0.65188  0.49595  1.0000
  H   H716      1.0  0.95003  0.63586  0.50250  1.0000
  N   N59       1.0  0.92959  0.66746  0.51161  1.0000
  C   C719      1.0  0.78653  0.52293  0.97046  1.0000
  H   H717      1.0  0.77995  0.50941  0.96327  1.0000
  N   N60       1.0  0.87967  0.90355  0.48190  1.0000
  S   S240      1.0  0.68651  0.61044  0.97277  1.0000
  H   H718      1.0  0.75582  0.54828  0.96421  1.0000
  H   H719      1.0  0.89299  0.48734  0.86760  1.0000
  C   C720      1.0  0.67696  0.96928  0.50457  1.0000
  H   H720      1.0  0.90515  0.51346  0.86989  1.0000
