data_image0
_chemical_formula_structural       NCSHNS2H2FeSCFeCSH2C8H5C6H3C2HCSH2SHC2HC3S2HSH3SCFeCH2SCHCHNC2HCSFeC2HCH2CHCHCH2SNC3HFeH3SCH6CH5C2HSHCH4S2FeS2FeS2FeSFe2SFeS3C6H4C6H3CHC3H2FeC2H2C2HCSHCFeCHC2N2HCSCNH5CHC2H2C2SFeHCHC2H2C2SCH3C2FeH3SHSHC3HC4HCNH2NH2S2CFeSHFeCSHCSFeNCH2S3H4CHFeH3C2FeCHC2H2C6H6CHC3HC2HC8H4C4NFe2C3HC2H4CHSC4HN2HCH2SC4HSCH2C2NH2SH3CH2CH4CHSCFeS2FeS2FeSFeS3H2SHFeSHFeS2FeS2FeSFeS3HC6HCH2C2HC3HC3SHNHFeHCHC3H3CHC6H4NHC4H4CH2NC4HCSCH5FeNC6H8C2H3CHCHC2HSH2C3SHNC4HC2H5FeCHC2H5CSHCHC2H2C2HCH2CHCH2SC3HC2NH2SFeSHFeS2FeSFeHS2C3HSFeS2FeS2FeSHS2FeHSFeHSFeSNS2CFeCHC6H3C2HCHC7H5NH2SCH3C7H2C8H5SCH5C2H2CNFeHC2H4C3HC2HCH2C2NH2CH2SCNH2CSHCNHCSC3H2CHSC2H2CHFeH2CH3CHCHCFeS2FeSHFeHFeS3FeS2FeSCFeSHCS2HC3SHC7HCFeC7H4FeHC3NHC8FeCH2C6H4CHC5H4FeH4FeCH2CHCH3SHNC6H8C3H5CH2SHCHCSNSHCNHC3SH3SNHSHSNHC2HCHCHCH2CHCHFeCHCH2C3NSH6C2FeH3C5H2C2HCSH2NHC3HC2SFeS2FeS2FeCFeS6CSCH3SHFeCSFeS2FeSCSHFeH2C7H4CH2C3HC5SH2SC7H4C5H2SHSHFeSC2H4CH2SC2HNCH4FeCFeHNH3CHC4H2NH2CH4CHC2SH5SHSC3HCH2SHCH2C2HFeHSHNCSCHSC2HC2SCHC6H2CHCSC2HCHCH4FeHCHCH4SH3SCHCHC3H3CSHFeCHNHCFeC2SC2HFeH2CNCSC3FeSFeS2FeSFeSFeS2FeS2FeSFeS3C6H4C2HC2HC6HCH4CSH4C2HC5H3CHFeCFeSC2HSH4SCHCH2SH6C2H2C2NSNH4CH2C2HCH4SHCHC3HCFeSHSFeSFe2HCHFeSHFeS2FeSFeSHSCHNCHSHC4HS2HC2HC6H5CNHC2HC2HC6HCNHC2H2CH3CH2SCHC2SHCNH3C2NC3HCH2CH4CHC5HC3HFeHSHNCH7C4
_chemical_formula_sum              "N48 C576 S192 H576 Fe96"
_cell_length_a       45.4546
_cell_length_b       43.2493
_cell_length_c       58.2357
_cell_angle_alpha    84.5643
_cell_angle_beta     90.4354
_cell_angle_gamma    89.8367

_space_group_name_H-M_alt    "P 1"
_space_group_IT_number       1

loop_
  _space_group_symop_operation_xyz
  'x, y, z'

loop_
  _atom_site_type_symbol
  _atom_site_label
  _atom_site_symmetry_multiplicity
  _atom_site_fract_x
  _atom_site_fract_y
  _atom_site_fract_z
  _atom_site_occupancy
  N   N1        1.0  0.06467  0.33467  0.14761  1.0000
  C   C1        1.0  0.02345  0.46398  0.31072  1.0000
  S   S1        1.0  0.47577  0.19088  0.29223  1.0000
  H   H1        1.0  0.38548  0.12266  0.24176  1.0000
  N   N2        1.0  0.04858  0.49968  0.24754  1.0000
  S   S2        1.0  0.07947  0.44122  0.31156  1.0000
  S   S3        1.0  0.02168  0.33257  0.21482  1.0000
  H   H2        1.0  0.07039  0.46779  0.22792  1.0000
  H   H3        1.0  0.43497  0.09157  0.19848  1.0000
  Fe  Fe1       1.0  0.04899  0.37526  0.20611  1.0000
  S   S4        1.0  0.09671  0.37217  0.19710  1.0000
  C   C2        1.0  0.00066  0.48250  0.31812  1.0000
  Fe  Fe2       1.0  0.17699  0.46366  0.28022  1.0000
  C   C3        1.0  0.03775  0.32662  0.13943  1.0000
  S   S5        1.0  0.18910  0.45603  0.24404  1.0000
  H   H4        1.0  0.43294  0.03126  0.26113  1.0000
  H   H5        1.0  0.04022  0.46343  0.18461  1.0000
  C   C4        1.0  0.06029  0.38517  0.12669  1.0000
  C   C5        1.0  0.43714  0.14691  0.23525  1.0000
  C   C6        1.0  0.12126  0.39653  0.21033  1.0000
  C   C7        1.0  0.14845  0.40321  0.19992  1.0000
  C   C8        1.0  0.16893  0.42185  0.21020  1.0000
  C   C9        1.0  0.16264  0.43339  0.23125  1.0000
  C   C10       1.0  0.13538  0.42691  0.24171  1.0000
  C   C11       1.0  0.11459  0.40864  0.23117  1.0000
  H   H6        1.0  0.15377  0.39385  0.18387  1.0000
  H   H7        1.0  0.18993  0.42680  0.20206  1.0000
  H   H8        1.0  0.13047  0.43554  0.25809  1.0000
  H   H9        1.0  0.09392  0.40306  0.23957  1.0000
  H   H10       1.0  0.47795  0.00562  0.29466  1.0000
  C   C12       1.0  0.40341  0.09298  0.28547  1.0000
  C   C13       1.0  0.42453  0.07461  0.27569  1.0000
  C   C14       1.0  0.41671  0.04532  0.26888  1.0000
  C   C15       1.0  0.38803  0.03409  0.27249  1.0000
  C   C16       1.0  0.36721  0.05229  0.28259  1.0000
  C   C17       1.0  0.37474  0.08181  0.28869  1.0000
  H   H11       1.0  0.44660  0.08316  0.27282  1.0000
  H   H12       1.0  0.17264  0.05595  0.11492  1.0000
  H   H13       1.0  0.34505  0.04371  0.28539  1.0000
  C   C18       1.0  0.26530  0.41383  0.30697  1.0000
  C   C19       1.0  0.02743  0.03518  0.10776  1.0000
  H   H14       1.0  0.31251  0.44869  0.31263  1.0000
  C   C20       1.0  0.11250  0.02840  0.14455  1.0000
  S   S6        1.0  0.02926  0.40238  0.23314  1.0000
  H   H15       1.0  0.01049  0.37620  0.31109  1.0000
  H   H16       1.0  0.11791  0.06067  0.11428  1.0000
  S   S7        1.0  0.20748  0.48488  0.30467  1.0000
  H   H17       1.0  0.46278  0.29844  0.28990  1.0000
  C   C21       1.0  0.02149  0.34761  0.12457  1.0000
  C   C22       1.0  0.15959  0.04305  0.12808  1.0000
  H   H18       1.0  0.24644  0.39882  0.31287  1.0000
  C   C23       1.0  0.07372  0.47941  0.24396  1.0000
  C   C24       1.0  0.03285  0.37708  0.11821  1.0000
  C   C25       1.0  0.00841  0.49659  0.19453  1.0000
  S   S8        1.0  0.39784  0.02713  0.20323  1.0000
  S   S9        1.0  0.00913  0.06886  0.09517  1.0000
  H   H19       1.0  0.39515  0.08725  0.23012  1.0000
  S   S10       1.0  0.48176  0.04390  0.20213  1.0000
  H   H20       1.0  0.49551  0.02057  0.15803  1.0000
  H   H21       1.0  0.07089  0.31308  0.18145  1.0000
  H   H22       1.0  0.02019  0.39376  0.10705  1.0000
  S   S11       1.0  0.01922  0.39494  0.17740  1.0000
  C   C26       1.0  0.44345  0.11028  0.20779  1.0000
  Fe  Fe3       1.0  0.45808  0.14255  0.30038  1.0000
  C   C27       1.0  0.03532  0.48774  0.18565  1.0000
  H   H23       1.0  0.01849  0.44595  0.29963  1.0000
  H   H24       1.0  0.35829  0.09598  0.29608  1.0000
  S   S12       1.0  0.16329  0.42465  0.30566  1.0000
  C   C28       1.0  0.48373  0.14382  0.21598  1.0000
  H   H25       1.0  0.08871  0.03062  0.14409  1.0000
  C   C29       1.0  0.05234  0.46763  0.31856  1.0000
  H   H26       1.0  0.10420  0.31893  0.16536  1.0000
  N   N3        1.0  0.42628  0.12349  0.22341  1.0000
  C   C30       1.0  0.46605  0.15731  0.23179  1.0000
  C   C31       1.0  0.08055  0.31270  0.16400  1.0000
  H   H27       1.0  0.05955  0.03653  0.08063  1.0000
  C   C32       1.0  0.02224  0.48655  0.25403  1.0000
  S   S13       1.0  0.49651  0.11898  0.28584  1.0000
  Fe  Fe4       1.0  0.12672  0.45683  0.31380  1.0000
  C   C33       1.0  0.01797  0.01903  0.12832  1.0000
  C   C34       1.0  0.17335  0.02332  0.14528  1.0000
  H   H28       1.0  0.38247  0.12012  0.21108  1.0000
  C   C35       1.0  0.47235  0.12034  0.20377  1.0000
  H   H29       1.0  0.42358  0.15758  0.24758  1.0000
  H   H30       1.0  0.02847  0.30397  0.14462  1.0000
  C   C36       1.0  0.12896  0.04567  0.12769  1.0000
  H   H31       1.0  0.07933  0.28874  0.15866  1.0000
  C   C37       1.0  0.39582  0.11298  0.22673  1.0000
  H   H32       1.0  0.02000  0.46151  0.25636  1.0000
  C   C38       1.0  0.05210  0.02420  0.09655  1.0000
  H   H33       1.0  0.25904  0.43782  0.31039  1.0000
  H   H34       1.0  0.19714  0.02063  0.14560  1.0000
  S   S14       1.0  0.41122  0.13070  0.29259  1.0000
  N   N4        1.0  0.12616  0.00867  0.16110  1.0000
  C   C39       1.0  0.47888  0.30473  0.30246  1.0000
  C   C40       1.0  0.15617  0.00615  0.16172  1.0000
  C   C41       1.0  0.49670  0.00737  0.30601  1.0000
  H   H35       1.0  0.00516  0.22312  0.18896  1.0000
  Fe  Fe5       1.0  0.44420  0.01072  0.19849  1.0000
  H   H36       1.0  0.47484  0.17555  0.24139  1.0000
  H   H37       1.0  0.09698  0.37033  0.14844  1.0000
  H   H38       1.0  0.15018  0.50012  0.21871  1.0000
  S   S15       1.0  0.13887  0.49427  0.28642  1.0000
  C   C42       1.0  0.07597  0.36358  0.14151  1.0000
  H   H39       1.0  0.45523  0.34540  0.31040  1.0000
  H   H40       1.0  0.49325  0.05702  0.30574  1.0000
  H   H41       1.0  0.07616  0.46130  0.25879  1.0000
  H   H42       1.0  0.00207  0.28032  0.18937  1.0000
  H   H43       1.0  0.26814  0.41287  0.28815  1.0000
  H   H44       1.0  0.48602  0.10957  0.19153  1.0000
  C   C43       1.0  0.47473  0.33122  0.31415  1.0000
  H   H45       1.0  0.06912  0.40823  0.12225  1.0000
  H   H46       1.0  0.09474  0.49244  0.24257  1.0000
  H   H47       1.0  0.40738  0.03531  0.31845  1.0000
  H   H48       1.0  0.99986  0.34123  0.11855  1.0000
  H   H49       1.0  0.26121  0.42340  0.59065  1.0000
  C   C44       1.0  0.05854  0.49039  0.33337  1.0000
  C   C45       1.0  0.43813  0.30213  0.64330  1.0000
  H   H50       1.0  0.45421  0.46635  0.45592  1.0000
  S   S16       1.0  0.43116  0.43371  0.64422  1.0000
  H   H51       1.0  0.25080  0.47900  0.34665  1.0000
  C   C46       1.0  0.00191  0.43843  0.36831  1.0000
  H   H52       1.0  0.48212  0.30751  0.59631  1.0000
  H   H53       1.0  0.32097  0.46673  0.62359  1.0000
  H   H54       1.0  0.27069  0.48918  0.61830  1.0000
  H   H55       1.0  0.41555  0.25876  0.64060  1.0000
  S   S17       1.0  0.39100  0.38211  0.61975  1.0000
  S   S18       1.0  0.38698  0.45632  0.60144  1.0000
  Fe  Fe6       1.0  0.39825  0.41193  0.58644  1.0000
  S   S19       1.0  0.37382  0.40546  0.55325  1.0000
  S   S20       1.0  0.44702  0.41639  0.59167  1.0000
  Fe  Fe7       1.0  0.42132  0.37428  0.38013  1.0000
  S   S21       1.0  0.38999  0.38603  0.40791  1.0000
  S   S22       1.0  0.41294  0.33490  0.35771  1.0000
  Fe  Fe8       1.0  0.45680  0.43464  0.38221  1.0000
  S   S23       1.0  0.42780  0.45137  0.40945  1.0000
  Fe  Fe9       1.0  0.38343  0.42722  0.63517  1.0000
  Fe  Fe10      1.0  0.43065  0.40221  0.42581  1.0000
  S   S24       1.0  0.44777  0.39314  0.46251  1.0000
  Fe  Fe11      1.0  0.38966  0.43401  0.38921  1.0000
  S   S25       1.0  0.35046  0.46515  0.37890  1.0000
  S   S26       1.0  0.46198  0.38630  0.39942  1.0000
  S   S27       1.0  0.41865  0.42145  0.36051  1.0000
  C   C47       1.0  0.39418  0.40066  0.52813  1.0000
  C   C48       1.0  0.37989  0.40312  0.50655  1.0000
  C   C49       1.0  0.39590  0.40051  0.48620  1.0000
  C   C50       1.0  0.42625  0.39510  0.48741  1.0000
  C   C51       1.0  0.44039  0.39219  0.50903  1.0000
  C   C52       1.0  0.42448  0.39513  0.52930  1.0000
  H   H56       1.0  0.35641  0.40724  0.50552  1.0000
  H   H57       1.0  0.38481  0.40264  0.46961  1.0000
  H   H58       1.0  0.46383  0.38781  0.51007  1.0000
  H   H59       1.0  0.43564  0.39278  0.54581  1.0000
  C   C53       1.0  0.25679  0.43263  0.36298  1.0000
  C   C54       1.0  0.27650  0.41225  0.37554  1.0000
  C   C55       1.0  0.30519  0.42189  0.38079  1.0000
  C   C56       1.0  0.31428  0.45216  0.37370  1.0000
  C   C57       1.0  0.29436  0.47269  0.36156  1.0000
  C   C58       1.0  0.26583  0.46296  0.35609  1.0000
  H   H60       1.0  0.26964  0.38880  0.38105  1.0000
  H   H61       1.0  0.32023  0.40593  0.39030  1.0000
  H   H62       1.0  0.27747  0.35821  0.32920  1.0000
  C   C59       1.0  0.27684  0.47662  0.63459  1.0000
  H   H63       1.0  0.42220  0.45815  0.55251  1.0000
  C   C60       1.0  0.30207  0.38255  0.63126  1.0000
  C   C61       1.0  0.40543  0.47760  0.49833  1.0000
  C   C62       1.0  0.45347  0.46911  0.51406  1.0000
  H   H64       1.0  0.38861  0.47433  0.54104  1.0000
  H   H65       1.0  0.02087  0.35483  0.33815  1.0000
  Fe  Fe12      1.0  0.43549  0.45902  0.60890  1.0000
  C   C63       1.0  0.43907  0.05181  0.34176  1.0000
  C   C64       1.0  0.47368  0.25027  0.35598  1.0000
  H   H66       1.0  0.30113  0.49622  0.35619  1.0000
  H   H67       1.0  0.46815  0.46622  0.52889  1.0000
  C   C65       1.0  0.43540  0.30136  0.35868  1.0000
  C   C66       1.0  0.46007  0.29770  0.37317  1.0000
  H   H68       1.0  0.48782  0.46101  0.48980  1.0000
  C   C67       1.0  0.49270  0.28806  0.60632  1.0000
  S   S28       1.0  0.47189  0.35537  0.64339  1.0000
  H   H69       1.0  0.46472  0.31469  0.38518  1.0000
  C   C68       1.0  0.24618  0.40785  0.62461  1.0000
  Fe  Fe13      1.0  0.19076  0.44832  0.33120  1.0000
  C   C69       1.0  0.46221  0.04361  0.35703  1.0000
  H   H70       1.0  0.32391  0.34158  0.34947  1.0000
  C   C70       1.0  0.42941  0.27885  0.34340  1.0000
  C   C71       1.0  0.01764  0.41716  0.35641  1.0000
  N   N5        1.0  0.29435  0.39749  0.61031  1.0000
  N   N6        1.0  0.42409  0.47433  0.51698  1.0000
  H   H71       1.0  0.47414  0.06141  0.36519  1.0000
  C   C72       1.0  0.47074  0.01251  0.36101  1.0000
  S   S29       1.0  0.22172  0.41889  0.35522  1.0000
  C   C73       1.0  0.30533  0.46392  0.63753  1.0000
  N   N7        1.0  0.00355  0.39986  0.34121  1.0000
  H   H72       1.0  0.49447  0.47364  0.41345  1.0000
  H   H73       1.0  0.48362  0.21111  0.62172  1.0000
  H   H74       1.0  0.42382  0.31527  0.63104  1.0000
  H   H75       1.0  0.49803  0.36261  0.36105  1.0000
  H   H76       1.0  0.30593  0.40424  0.57456  1.0000
  C   C74       1.0  0.43354  0.27008  0.64870  1.0000
  H   H77       1.0  0.38206  0.48122  0.50064  1.0000
  C   C75       1.0  0.42504  0.02873  0.33047  1.0000
  C   C76       1.0  0.49383  0.23386  0.62067  1.0000
  H   H78       1.0  0.32970  0.42260  0.59414  1.0000
  H   H79       1.0  0.46123  0.25435  0.59664  1.0000
  C   C77       1.0  0.28181  0.37942  0.64929  1.0000
  C   C78       1.0  0.44847  0.25337  0.34203  1.0000
  S   S30       1.0  0.15246  0.47681  0.34207  1.0000
  Fe  Fe14      1.0  0.43895  0.39029  0.62652  1.0000
  H   H80       1.0  0.04136  0.41557  0.35865  1.0000
  C   C79       1.0  0.26695  0.41041  0.60692  1.0000
  H   H81       1.0  0.33131  0.38122  0.59236  1.0000
  C   C80       1.0  0.46477  0.46641  0.49204  1.0000
  C   C81       1.0  0.41603  0.47521  0.47606  1.0000
  H   H82       1.0  0.08075  0.49290  0.33976  1.0000
  H   H83       1.0  0.43250  0.07597  0.33818  1.0000
  C   C82       1.0  0.41292  0.47697  0.54027  1.0000
  C   C83       1.0  0.48096  0.25826  0.60654  1.0000
  S   S31       1.0  0.47456  0.13719  0.33700  1.0000
  C   C84       1.0  0.47910  0.27221  0.37182  1.0000
  H   H84       1.0  0.44401  0.23653  0.32986  1.0000
  H   H85       1.0  0.22478  0.41898  0.62216  1.0000
  H   H86       1.0  0.40109  0.47670  0.46136  1.0000
  C   C85       1.0  0.44589  0.46950  0.47297  1.0000
  C   C86       1.0  0.31631  0.40163  0.59199  1.0000
  Fe  Fe15      1.0  0.49531  0.18395  0.32796  1.0000
  H   H87       1.0  0.01330  0.45320  0.37951  1.0000
  H   H88       1.0  0.36476  0.37909  0.35140  1.0000
  H   H89       1.0  0.41025  0.28144  0.33224  1.0000
  S   S32       1.0  0.49578  0.46047  0.36543  1.0000
  H   H90       1.0  0.49844  0.26978  0.38279  1.0000
  S   S33       1.0  0.22023  0.48783  0.64743  1.0000
  H   H91       1.0  0.35890  0.43304  0.33299  1.0000
  C   C87       1.0  0.34471  0.38598  0.34204  1.0000
  C   C88       1.0  0.32165  0.36494  0.34103  1.0000
  C   C89       1.0  0.02037  0.37818  0.32844  1.0000
  H   H92       1.0  0.04334  0.38637  0.32545  1.0000
  C   C90       1.0  0.48937  0.36603  0.34309  1.0000
  C   C91       1.0  0.31513  0.42492  0.32016  1.0000
  C   C92       1.0  0.25368  0.39214  0.64589  1.0000
  C   C93       1.0  0.34152  0.41615  0.33152  1.0000
  H   H93       1.0  0.46550  0.37118  0.34448  1.0000
  C   C94       1.0  0.29553  0.37449  0.32953  1.0000
  N   N8        1.0  0.49413  0.33824  0.33096  1.0000
  H   H94       1.0  0.41914  0.49973  0.54625  1.0000
  H   H95       1.0  0.32429  0.37379  0.63439  1.0000
  N   N9        1.0  0.29250  0.40423  0.31940  1.0000
  H   H96       1.0  0.48943  0.00607  0.37217  1.0000
  H   H97       1.0  0.48526  0.11184  0.85710  1.0000
  S   S34       1.0  0.18245  0.46024  0.70920  1.0000
  S   S35       1.0  0.44862  0.21151  0.66743  1.0000
  C   C95       1.0  0.49872  0.03608  0.70514  1.0000
  Fe  Fe16      1.0  0.13562  0.44888  0.70048  1.0000
  S   S36       1.0  0.11179  0.40384  0.70838  1.0000
  H   H98       1.0  0.36427  0.01979  0.75455  1.0000
  Fe  Fe17      1.0  0.02571  0.38233  0.81799  1.0000
  C   C96       1.0  0.04822  0.49986  0.84711  1.0000
  S   S37       1.0  0.07450  0.38744  0.81304  1.0000
  H   H99       1.0  0.13281  0.49813  0.82621  1.0000
  C   C97       1.0  0.05992  0.47241  0.79461  1.0000
  S   S38       1.0  0.46939  0.06185  0.70845  1.0000
  Fe  Fe18      1.0  0.47509  0.18002  0.69333  1.0000
  N   N10       1.0  0.38926  0.05375  0.73423  1.0000
  C   C98       1.0  0.13558  0.01828  0.89373  1.0000
  H   H100      1.0  0.09859  0.34545  0.85312  1.0000
  H   H101      1.0  0.40757  0.04283  0.70219  1.0000
  S   S39       1.0  0.47625  0.16819  0.78022  1.0000
  S   S40       1.0  0.45190  0.14734  0.71948  1.0000
  S   S41       1.0  0.38407  0.07131  0.82450  1.0000
  H   H102      1.0  0.39578  0.12942  0.74397  1.0000
  H   H103      1.0  0.02601  0.45573  0.84831  1.0000
  H   H104      1.0  0.28836  0.36836  0.66606  1.0000
  H   H105      1.0  0.36203  0.11196  0.77593  1.0000
  C   C99       1.0  0.45975  0.03972  0.86811  1.0000
  H   H106      1.0  0.43683  0.04383  0.86326  1.0000
  Fe  Fe19      1.0  0.38865  0.02055  0.81992  1.0000
  H   H107      1.0  0.10114  0.45929  0.81081  1.0000
  H   H108      1.0  0.09053  0.05241  0.93040  1.0000
  H   H109      1.0  0.04220  0.30167  0.88842  1.0000
  C   C100      1.0  0.39832  0.08401  0.73135  1.0000
  C   C101      1.0  0.02353  0.48065  0.84562  1.0000
  Fe  Fe20      1.0  0.18302  0.48531  0.67351  1.0000
  C   C102      1.0  0.47117  0.09267  0.85198  1.0000
  H   H110      1.0  0.34646  0.05691  0.78133  1.0000
  C   C103      1.0  0.00293  0.44522  0.68706  1.0000
  C   C104      1.0  0.45263  0.25241  0.66389  1.0000
  H   H111      1.0  0.05144  0.44894  0.79653  1.0000
  H   H112      1.0  0.15763  0.00864  0.89314  1.0000
  C   C105      1.0  0.45126  0.14058  0.79236  1.0000
  C   C106      1.0  0.44955  0.11093  0.78461  1.0000
  C   C107      1.0  0.42949  0.08910  0.79472  1.0000
  C   C108      1.0  0.41059  0.09717  0.81211  1.0000
  C   C109      1.0  0.41221  0.12692  0.81959  1.0000
  C   C110      1.0  0.43283  0.14836  0.81004  1.0000
  H   H113      1.0  0.46369  0.10480  0.77087  1.0000
  H   H114      1.0  0.42802  0.06653  0.78843  1.0000
  H   H115      1.0  0.39752  0.13342  0.83288  1.0000
  H   H116      1.0  0.43396  0.17131  0.81597  1.0000
  H   H117      1.0  0.06713  0.42758  0.67433  1.0000
  H   H118      1.0  0.06433  0.44469  0.71941  1.0000
  C   C111      1.0  0.12610  0.00385  0.85449  1.0000
  H   H119      1.0  0.47535  0.02048  0.81889  1.0000
  C   C112      1.0  0.26433  0.45666  0.67348  1.0000
  C   C113      1.0  0.29291  0.44421  0.67648  1.0000
  C   C114      1.0  0.08812  0.47844  0.80274  1.0000
  H   H120      1.0  0.38361  0.01382  0.71575  1.0000
  C   C115      1.0  0.25614  0.47274  0.65244  1.0000
  C   C116      1.0  0.48061  0.29923  0.66865  1.0000
  H   H121      1.0  0.29902  0.43144  0.69271  1.0000
  C   C117      1.0  0.47578  0.26727  0.67429  1.0000
  C   C118      1.0  0.04251  0.49692  0.78491  1.0000
  C   C119      1.0  0.10200  0.39836  0.73756  1.0000
  C   C120      1.0  0.11879  0.41167  0.75424  1.0000
  C   C121      1.0  0.11057  0.40759  0.77748  1.0000
  C   C122      1.0  0.08480  0.39149  0.78395  1.0000
  C   C123      1.0  0.06752  0.37889  0.76721  1.0000
  C   C124      1.0  0.07648  0.38177  0.74408  1.0000
  H   H122      1.0  0.13847  0.42457  0.74927  1.0000
  H   H123      1.0  0.12413  0.41713  0.79040  1.0000
  H   H124      1.0  0.04757  0.36644  0.77211  1.0000
  H   H125      1.0  0.06333  0.37164  0.73117  1.0000
  C   C125      1.0  0.04957  0.28169  0.82558  1.0000
  C   C126      1.0  0.31340  0.44745  0.65845  1.0000
  C   C127      1.0  0.36056  0.06479  0.76701  1.0000
  C   C128      1.0  0.04116  0.44372  0.71512  1.0000
  N   N11       1.0  0.06303  0.31303  0.85596  1.0000
  Fe  Fe21      1.0  0.48406  0.11116  0.71032  1.0000
  Fe  Fe22      1.0  0.48708  0.15976  0.74392  1.0000
  C   C129      1.0  0.49135  0.50088  0.66491  1.0000
  C   C130      1.0  0.03196  0.26333  0.84091  1.0000
  C   C131      1.0  0.40060  0.03129  0.71914  1.0000
  H   H126      1.0  0.04437  0.45510  0.65700  1.0000
  C   C132      1.0  0.36926  0.09578  0.76395  1.0000
  C   C133      1.0  0.37089  0.04393  0.75193  1.0000
  H   H127      1.0  0.41353  0.09158  0.71771  1.0000
  H   H128      1.0  0.06437  0.36022  0.86279  1.0000
  H   H129      1.0  0.24857  0.45345  0.68733  1.0000
  H   H130      1.0  0.06984  0.46865  0.67735  1.0000
  C   C134      1.0  0.09814  0.04311  0.91482  1.0000
  H   H131      1.0  0.07387  0.02857  0.86174  1.0000
  S   S42       1.0  0.34817  0.42919  0.66251  1.0000
  C   C135      1.0  0.46823  0.01037  0.87824  1.0000
  C   C136      1.0  0.06506  0.30661  0.83345  1.0000
  C   C137      1.0  0.08901  0.02974  0.87613  1.0000
  C   C138      1.0  0.07895  0.33951  0.86392  1.0000
  H   H132      1.0  0.01930  0.24429  0.83504  1.0000
  N   N12       1.0  0.11670  0.01740  0.87538  1.0000
  N   N13       1.0  0.03220  0.44641  0.69255  1.0000
  H   H133      1.0  0.07836  0.32106  0.82134  1.0000
  C   C139      1.0  0.02068  0.43916  0.73291  1.0000
  H   H134      1.0  0.05076  0.27708  0.80762  1.0000
  H   H135      1.0  0.02017  0.49265  0.77940  1.0000
  S   S43       1.0  0.13733  0.47053  0.66391  1.0000
  C   C140      1.0  0.00444  0.01778  0.91365  1.0000
  C   C141      1.0  0.07940  0.04298  0.89576  1.0000
  C   C142      1.0  0.02999  0.27013  0.86377  1.0000
  C   C143      1.0  0.38830  0.10551  0.74606  1.0000
  H   H136      1.0  0.05714  0.05207  0.89648  1.0000
  S   S44       1.0  0.00814  0.38968  0.85285  1.0000
  C   C144      1.0  0.04520  0.29563  0.87092  1.0000
  H   H137      1.0  0.08662  0.33442  0.88203  1.0000
  H   H138      1.0  0.06964  0.48964  0.85098  1.0000
  C   C145      1.0  0.12648  0.03080  0.91382  1.0000
  C   C146      1.0  0.05440  0.44956  0.67436  1.0000
  N   N14       1.0  0.48017  0.06269  0.86382  1.0000
  H   H139      1.0  0.02801  0.43597  0.75075  1.0000
  H   H140      1.0  0.48011  0.47868  0.66712  1.0000
  S   S45       1.0  0.11599  0.49059  0.71456  1.0000
  H   H141      1.0  0.01591  0.25640  0.87573  1.0000
  H   H142      1.0  0.44810  0.09844  0.85625  1.0000
  H   H143      1.0  0.14121  0.03057  0.92859  1.0000
  C   C147      1.0  0.49779  0.00449  0.88362  1.0000
  H   H144      1.0  0.47266  0.09177  0.83302  1.0000
  H   H145      1.0  0.41999  0.01898  0.72744  1.0000
  C   C148      1.0  0.49818  0.01455  0.82187  1.0000
  H   H146      1.0  0.47867  0.01479  0.75478  1.0000
  H   H147      1.0  0.22889  0.50133  0.73110  1.0000
  H   H148      1.0  0.12904  0.02244  0.84021  1.0000
  H   H149      1.0  0.49049  0.25404  0.68615  1.0000
  C   C149      1.0  0.49304  0.00431  0.70470  1.0000
  H   H150      1.0  0.23808  0.39086  0.65996  1.0000
  S   S46       1.0  0.42355  0.00248  0.79803  1.0000
  C   C150      1.0  0.46211  0.31669  0.65287  1.0000
  Fe  Fe23      1.0  0.11992  0.93408  0.12335  1.0000
  S   S47       1.0  0.12542  0.90034  0.09647  1.0000
  S   S48       1.0  0.07635  0.94743  0.13838  1.0000
  Fe  Fe24      1.0  0.18648  0.93804  0.13320  1.0000
  S   S49       1.0  0.19722  0.90492  0.10711  1.0000
  S   S50       1.0  0.21695  0.95532  0.16041  1.0000
  Fe  Fe25      1.0  0.16325  0.93115  0.08459  1.0000
  S   S51       1.0  0.17511  0.94669  0.04767  1.0000
  Fe  Fe26      1.0  0.15865  0.87678  0.12097  1.0000
  S   S52       1.0  0.16595  0.82527  0.12974  1.0000
  S   S53       1.0  0.15526  0.96684  0.10975  1.0000
  S   S54       1.0  0.15031  0.90785  0.14881  1.0000
  H   H151      1.0  0.04229  0.88436  0.14179  1.0000
  H   H152      1.0  0.10971  0.66790  0.27983  1.0000
  S   S55       1.0  0.37862  0.95333  0.20814  1.0000
  H   H153      1.0  0.18170  0.84659  0.08184  1.0000
  Fe  Fe27      1.0  0.42609  0.94300  0.20179  1.0000
  S   S56       1.0  0.44055  0.89487  0.19550  1.0000
  H   H154      1.0  0.12354  0.53262  0.18762  1.0000
  Fe  Fe28      1.0  0.07148  0.61680  0.18186  1.0000
  S   S57       1.0  0.07910  0.61469  0.21980  1.0000
  S   S58       1.0  0.07532  0.57002  0.16819  1.0000
  Fe  Fe29      1.0  0.06864  0.68744  0.17646  1.0000
  S   S59       1.0  0.07630  0.69083  0.21424  1.0000
  S   S60       1.0  0.06068  0.73156  0.15278  1.0000
  Fe  Fe30      1.0  0.11020  0.65380  0.21160  1.0000
  S   S61       1.0  0.15313  0.65641  0.23058  1.0000
  Fe  Fe31      1.0  0.04453  0.65137  0.21957  1.0000
  S   S62       1.0  0.10571  0.65355  0.17329  1.0000
  S   S63       1.0  0.03355  0.65036  0.18199  1.0000
  S   S64       1.0  0.44342  0.97332  0.22782  1.0000
  H   H155      1.0  0.26264  0.96265  0.19352  1.0000
  C   C151      1.0  0.15715  0.63027  0.25533  1.0000
  C   C152      1.0  0.17624  0.63769  0.27291  1.0000
  C   C153      1.0  0.18065  0.61671  0.29248  1.0000
  C   C154      1.0  0.16652  0.58791  0.29431  1.0000
  C   C155      1.0  0.14736  0.58049  0.27677  1.0000
  C   C156      1.0  0.14263  0.60167  0.25734  1.0000
  H   H156      1.0  0.18770  0.65970  0.27139  1.0000
  C   C157      1.0  0.06899  0.57664  0.30846  1.0000
  H   H157      1.0  0.13581  0.55869  0.27831  1.0000
  H   H158      1.0  0.12864  0.59525  0.24361  1.0000
  C   C158      1.0  0.20417  0.86801  0.02711  1.0000
  C   C159      1.0  0.10880  0.62403  0.31357  1.0000
  H   H159      1.0  0.21566  0.88359  0.06005  1.0000
  C   C160      1.0  0.04956  0.54207  0.17878  1.0000
  C   C161      1.0  0.17793  0.53779  0.22749  1.0000
  C   C162      1.0  0.00226  0.52817  0.19580  1.0000
  H   H160      1.0  0.18953  0.52341  0.24096  1.0000
  C   C163      1.0  0.13859  0.89717  0.98749  1.0000
  C   C164      1.0  0.02703  0.55061  0.24704  1.0000
  C   C165      1.0  0.14714  0.80911  0.01525  1.0000
  S   S65       1.0  0.01800  0.64760  0.25198  1.0000
  H   H161      1.0  0.17658  0.61064  0.20155  1.0000
  N   N15       1.0  0.08929  0.62649  0.29547  1.0000
  H   H162      1.0  0.18685  0.84951  0.99689  1.0000
  Fe  Fe32      1.0  0.39654  0.98784  0.23113  1.0000
  H   H163      1.0  0.20886  0.60729  0.23362  1.0000
  C   C166      1.0  0.29580  0.98468  0.13320  1.0000
  H   H164      1.0  0.02532  0.97945  0.15321  1.0000
  C   C167      1.0  0.26624  0.97499  0.13511  1.0000
  C   C168      1.0  0.25412  0.96699  0.15687  1.0000
  C   C169      1.0  0.27185  0.96862  0.17660  1.0000
  H   H165      1.0  0.18623  0.95437  0.99915  1.0000
  H   H166      1.0  0.09193  0.87973  0.15904  1.0000
  H   H167      1.0  0.06995  0.66934  0.28235  1.0000
  C   C170      1.0  0.02958  0.83785  0.15478  1.0000
  H   H168      1.0  0.12495  0.80761  0.02317  1.0000
  C   C171      1.0  0.13669  0.79886  0.13490  1.0000
  C   C172      1.0  0.10853  0.80522  0.12580  1.0000
  C   C173      1.0  0.08570  0.78366  0.13049  1.0000
  C   C174      1.0  0.09063  0.75616  0.14492  1.0000
  C   C175      1.0  0.11883  0.74980  0.15391  1.0000
  C   C176      1.0  0.14185  0.77089  0.14864  1.0000
  H   H169      1.0  0.10437  0.82659  0.11503  1.0000
  H   H170      1.0  0.06396  0.78862  0.12337  1.0000
  H   H171      1.0  0.12289  0.72867  0.16499  1.0000
  H   H172      1.0  0.16364  0.76574  0.15561  1.0000
  N   N16       1.0  0.18519  0.56840  0.22269  1.0000
  H   H173      1.0  0.02878  0.57565  0.24360  1.0000
  C   C177      1.0  0.16960  0.93662  0.00213  1.0000
  C   C178      1.0  0.15919  0.92885  0.02457  1.0000
  C   C179      1.0  0.13766  0.90593  0.02827  1.0000
  C   C180      1.0  0.12737  0.89018  0.00977  1.0000
  H   H174      1.0  0.14998  0.81249  0.06074  1.0000
  H   H175      1.0  0.08714  0.64782  0.26110  1.0000
  H   H176      1.0  0.12936  0.89990  0.04543  1.0000
  H   H177      1.0  0.11115  0.87204  0.01282  1.0000
  C   C181      1.0  0.05751  0.98092  0.12610  1.0000
  H   H178      1.0  0.01800  0.57523  0.18908  1.0000
  H   H179      1.0  0.13684  0.58810  0.17915  1.0000
  N   N17       1.0  0.16645  0.82915  0.02758  1.0000
  C   C182      1.0  0.16520  0.82799  0.05113  1.0000
  C   C183      1.0  0.18608  0.84831  0.01559  1.0000
  C   C184      1.0  0.18313  0.84723  0.06320  1.0000
  C   C185      1.0  0.05110  0.53130  0.24366  1.0000
  H   H180      1.0  0.08482  0.99231  0.17493  1.0000
  C   C186      1.0  0.47958  0.89124  0.23212  1.0000
  S   S66       1.0  0.35110  0.99669  0.14969  1.0000
  C   C187      1.0  0.15561  0.52449  0.21503  1.0000
  H   H181      1.0  0.07160  0.54174  0.23755  1.0000
  H   H182      1.0  0.20720  0.57418  0.25439  1.0000
  H   H183      1.0  0.31496  0.97862  0.19001  1.0000
  H   H184      1.0  0.11453  0.96514  0.17837  1.0000
  H   H185      1.0  0.07623  0.50356  0.17023  1.0000
  Fe  Fe33      1.0  0.16762  0.51182  0.31366  1.0000
  N   N18       1.0  0.35915  0.90925  0.15530  1.0000
  C   C188      1.0  0.33315  0.91520  0.14373  1.0000
  C   C189      1.0  0.35940  0.89347  0.17682  1.0000
  C   C190      1.0  0.30641  0.90589  0.15390  1.0000
  C   C191      1.0  0.33303  0.88435  0.18767  1.0000
  C   C192      1.0  0.30637  0.89077  0.17613  1.0000
  C   C193      1.0  0.38678  0.91916  0.14411  1.0000
  H   H186      1.0  0.33295  0.92804  0.12679  1.0000
  H   H187      1.0  0.38000  0.88837  0.18593  1.0000
  H   H188      1.0  0.28577  0.91124  0.14487  1.0000
  H   H189      1.0  0.33335  0.87269  0.20501  1.0000
  H   H190      1.0  0.28568  0.88435  0.18443  1.0000
  H   H191      1.0  0.38515  0.94384  0.13681  1.0000
  H   H192      1.0  0.40555  0.91767  0.15650  1.0000
  H   H193      1.0  0.39185  0.90431  0.13012  1.0000
  C   C194      1.0  0.05573  0.51047  0.17759  1.0000
  C   C195      1.0  0.20246  0.86762  0.05104  1.0000
  H   H194      1.0  0.25279  0.97406  0.11978  1.0000
  H   H195      1.0  0.00785  0.83943  0.14690  1.0000
  H   H196      1.0  0.43216  0.97611  0.30323  1.0000
  C   C196      1.0  0.20924  0.58144  0.23562  1.0000
  H   H197      1.0  0.13184  0.84213  0.17162  1.0000
  C   C197      1.0  0.30154  0.97770  0.17467  1.0000
  H   H198      1.0  0.05344  0.60569  0.27893  1.0000
  C   C198      1.0  0.14835  0.57382  0.19272  1.0000
  C   C199      1.0  0.17088  0.58635  0.20543  1.0000
  H   H199      1.0  0.11639  0.84182  0.20024  1.0000
  S   S67       1.0  0.43081  0.97916  0.17184  1.0000
  H   H200      1.0  0.46582  0.90803  0.23960  1.0000
  H   H201      1.0  0.19539  0.62260  0.30608  1.0000
  C   C200      1.0  0.02295  0.55088  0.18820  1.0000
  C   C201      1.0  0.47183  0.88064  0.21093  1.0000
  C   C202      1.0  0.14076  0.54267  0.19755  1.0000
  S   S68       1.0  0.37798  0.99705  0.26535  1.0000
  H   H202      1.0  0.23073  0.57331  0.22950  1.0000
  N   N19       1.0  0.08584  0.83314  0.17391  1.0000
  C   C203      1.0  0.07707  0.86017  0.16160  1.0000
  C   C204      1.0  0.06674  0.80878  0.17751  1.0000
  C   C205      1.0  0.04889  0.86293  0.15179  1.0000
  C   C206      1.0  0.03848  0.81061  0.16778  1.0000
  H   H203      1.0  0.30496  0.99108  0.11633  1.0000
  C   C207      1.0  0.31364  0.98591  0.15296  1.0000
  C   C208      1.0  0.11559  0.83073  0.18384  1.0000
  H   H204      1.0  0.08606  0.98904  0.09684  1.0000
  H   H205      1.0  0.21853  0.88441  0.01746  1.0000
  H   H206      1.0  0.12275  0.80607  0.18713  1.0000
  H   H207      1.0  0.14375  0.81862  0.99697  1.0000
  H   H208      1.0  0.15683  0.78548  0.01557  1.0000
  Fe  Fe34      1.0  0.38383  0.99137  0.17963  1.0000
  C   C209      1.0  0.06927  0.60345  0.29298  1.0000
  H   H209      1.0  0.07367  0.78715  0.18705  1.0000
  C   C210      1.0  0.08905  0.65433  0.27902  1.0000
  C   C211      1.0  0.00025  0.53735  0.25410  1.0000
  H   H210      1.0  0.12488  0.64209  0.31552  1.0000
  H   H211      1.0  0.02403  0.79057  0.16974  1.0000
  H   H212      1.0  0.48344  0.85009  0.18528  1.0000
  H   H213      1.0  0.11339  0.99768  0.19588  1.0000
  H   H214      1.0  0.05319  0.55832  0.30637  1.0000
  C   C212      1.0  0.06715  0.99726  0.10569  1.0000
  S   S69       1.0  0.49729  0.94375  0.31060  1.0000
  H   H215      1.0  0.39709  0.97993  0.31685  1.0000
  C   C213      1.0  0.48940  0.85840  0.20163  1.0000
  H   H216      1.0  0.16703  0.99040  0.17476  1.0000
  C   C214      1.0  0.03292  0.99193  0.13740  1.0000
  C   C215      1.0  0.10886  0.99016  0.17850  1.0000
  H   H217      1.0  0.04023  0.52529  0.35334  1.0000
  H   H218      1.0  0.05483  0.52191  0.62808  1.0000
  C   C216      1.0  0.03563  0.50860  0.34107  1.0000
  C   C217      1.0  0.01098  0.51257  0.64074  1.0000
  H   H219      1.0  0.42326  0.95136  0.32877  1.0000
  C   C218      1.0  0.49349  0.51408  0.60243  1.0000
  H   H220      1.0  0.46418  0.96624  0.35147  1.0000
  H   H221      1.0  0.08981  0.55279  0.33856  1.0000
  C   C219      1.0  0.42090  0.97530  0.32018  1.0000
  H   H222      1.0  0.47943  0.57601  0.64475  1.0000
  C   C220      1.0  0.10906  0.59760  0.32941  1.0000
  H   H223      1.0  0.12532  0.59518  0.34323  1.0000
  H   H224      1.0  0.47626  0.88091  0.64161  1.0000
  S   S70       1.0  0.45565  0.50633  0.59902  1.0000
  C   C221      1.0  0.00659  0.50449  0.33365  1.0000
  C   C222      1.0  0.45630  0.99007  0.34929  1.0000
  C   C223      1.0  0.04031  0.52197  0.64272  1.0000
  H   H225      1.0  0.48846  0.56241  0.59015  1.0000
  C   C224      1.0  0.08925  0.57366  0.32666  1.0000
  C   C225      1.0  0.48024  0.85832  0.65090  1.0000
  N   N20       1.0  0.43387  0.99839  0.33411  1.0000
  H   H226      1.0  0.00309  0.50478  0.62468  1.0000
  H   H227      1.0  0.45324  0.52586  0.65084  1.0000
  S   S71       1.0  0.17220  0.56226  0.31907  1.0000
  Fe  Fe35      1.0  0.10004  0.92722  0.88955  1.0000
  S   S72       1.0  0.09964  0.87715  0.90371  1.0000
  H   H228      1.0  0.03876  0.84490  0.88897  1.0000
  Fe  Fe36      1.0  0.16763  0.93061  0.89098  1.0000
  S   S73       1.0  0.17269  0.88092  0.90571  1.0000
  S   S74       1.0  0.20199  0.96545  0.87736  1.0000
  Fe  Fe37      1.0  0.13750  0.87033  0.88024  1.0000
  S   S75       1.0  0.14211  0.83593  0.85347  1.0000
  Fe  Fe38      1.0  0.13448  0.89187  0.92827  1.0000
  H   H229      1.0  0.27026  0.91943  0.82186  1.0000
  S   S76       1.0  0.13516  0.91929  0.86405  1.0000
  S   S77       1.0  0.13214  0.94263  0.91556  1.0000
  C   C226      1.0  0.49536  0.91558  0.78923  1.0000
  C   C227      1.0  0.03885  0.82898  0.87564  1.0000
  C   C228      1.0  0.06225  0.86923  0.84933  1.0000
  H   H230      1.0  0.01495  0.57028  0.83605  1.0000
  S   S78       1.0  0.16681  0.53044  0.68492  1.0000
  Fe  Fe39      1.0  0.06692  0.67490  0.83590  1.0000
  S   S79       1.0  0.04841  0.68728  0.80022  1.0000
  S   S80       1.0  0.07237  0.70854  0.86335  1.0000
  Fe  Fe40      1.0  0.06590  0.60520  0.83044  1.0000
  S   S81       1.0  0.04707  0.61197  0.79475  1.0000
  S   S82       1.0  0.07648  0.55596  0.84397  1.0000
  Fe  Fe41      1.0  0.07952  0.65071  0.78967  1.0000
  S   S83       1.0  0.10232  0.65194  0.75555  1.0000
  H   H231      1.0  0.02184  0.65069  0.75261  1.0000
  S   S84       1.0  0.10089  0.64155  0.82455  1.0000
  S   S85       1.0  0.35275  0.99080  0.80696  1.0000
  Fe  Fe42      1.0  0.43222  0.96787  0.82817  1.0000
  H   H232      1.0  0.47795  0.91608  0.71808  1.0000
  S   S86       1.0  0.47945  0.95560  0.83736  1.0000
  Fe  Fe43      1.0  0.36609  0.95652  0.83669  1.0000
  H   H233      1.0  0.04199  0.77070  0.82950  1.0000
  S   S87       1.0  0.33426  0.92643  0.85883  1.0000
  Fe  Fe44      1.0  0.38935  0.96925  0.78815  1.0000
  S   S88       1.0  0.39042  0.96065  0.75089  1.0000
  N   N21       1.0  0.09865  0.50815  0.80135  1.0000
  S   S89       1.0  0.40042  0.93275  0.81667  1.0000
  S   S90       1.0  0.48042  0.85228  0.73837  1.0000
  C   C229      1.0  0.05139  0.81741  0.83787  1.0000
  Fe  Fe45      1.0  0.16264  0.50444  0.71978  1.0000
  C   C230      1.0  0.22042  0.85395  0.84891  1.0000
  H   H234      1.0  0.30392  0.84491  0.82628  1.0000
  C   C231      1.0  0.45652  0.88312  0.74244  1.0000
  C   C232      1.0  0.43316  0.87820  0.75786  1.0000
  C   C233      1.0  0.41305  0.90214  0.76070  1.0000
  C   C234      1.0  0.41557  0.93065  0.74744  1.0000
  C   C235      1.0  0.43875  0.93550  0.73184  1.0000
  C   C236      1.0  0.45974  0.91205  0.72981  1.0000
  H   H235      1.0  0.43067  0.85586  0.76770  1.0000
  H   H236      1.0  0.39513  0.89824  0.77274  1.0000
  H   H237      1.0  0.44067  0.95755  0.72163  1.0000
  C   C237      1.0  0.12797  0.51408  0.81054  1.0000
  C   C238      1.0  0.22620  0.90638  0.83144  1.0000
  H   H238      1.0  0.31011  0.86482  0.85193  1.0000
  C   C239      1.0  0.04444  0.62725  0.71389  1.0000
  H   H239      1.0  0.05644  0.87893  0.83153  1.0000
  C   C240      1.0  0.15934  0.92084  0.98362  1.0000
  C   C241      1.0  0.15436  0.56178  0.75282  1.0000
  C   C242      1.0  0.13931  0.57511  0.73327  1.0000
  C   C243      1.0  0.12431  0.60339  0.73391  1.0000
  C   C244      1.0  0.12305  0.61773  0.75445  1.0000
  C   C245      1.0  0.13781  0.60424  0.77409  1.0000
  C   C246      1.0  0.15399  0.57669  0.77312  1.0000
  H   H240      1.0  0.13919  0.56379  0.71757  1.0000
  H   H241      1.0  0.11329  0.61380  0.71856  1.0000
  H   H242      1.0  0.13738  0.61544  0.78990  1.0000
  H   H243      1.0  0.16605  0.56691  0.78818  1.0000
  H   H244      1.0  0.46343  0.81659  0.70073  1.0000
  N   N22       1.0  0.23700  0.54438  0.71184  1.0000
  H   H245      1.0  0.08658  0.86830  0.85109  1.0000
  H   H246      1.0  0.06174  0.82396  0.82141  1.0000
  S   S91       1.0  0.17399  0.52680  0.75195  1.0000
  C   C247      1.0  0.02695  0.99976  0.92497  1.0000
  H   H247      1.0  0.31093  0.88595  0.82400  1.0000
  H   H248      1.0  0.06237  0.62511  0.72629  1.0000
  H   H249      1.0  0.26732  0.51208  0.72891  1.0000
  C   C248      1.0  0.05074  0.53185  0.66344  1.0000
  C   C249      1.0  0.23906  0.95471  0.87320  1.0000
  C   C250      1.0  0.25053  0.92634  0.88289  1.0000
  C   C251      1.0  0.28003  0.91844  0.87893  1.0000
  C   C252      1.0  0.29817  0.93857  0.86498  1.0000
  C   C253      1.0  0.28671  0.96697  0.85536  1.0000
  C   C254      1.0  0.25733  0.97505  0.85958  1.0000
  H   H250      1.0  0.23676  0.91057  0.89354  1.0000
  H   H251      1.0  0.28877  0.89651  0.88656  1.0000
  C   C255      1.0  0.47621  0.52743  0.65586  1.0000
  C   C256      1.0  0.01746  0.54533  0.83871  1.0000
  C   C257      1.0  0.12407  0.79973  0.85680  1.0000
  C   C258      1.0  0.11033  0.78930  0.87746  1.0000
  C   C259      1.0  0.09567  0.76060  0.87945  1.0000
  C   C260      1.0  0.09416  0.74240  0.86073  1.0000
  C   C261      1.0  0.10810  0.75273  0.84011  1.0000
  C   C262      1.0  0.12314  0.78127  0.83821  1.0000
  H   H252      1.0  0.11107  0.80323  0.89193  1.0000
  H   H253      1.0  0.08495  0.75268  0.89546  1.0000
  H   H254      1.0  0.10703  0.73888  0.82559  1.0000
  H   H255      1.0  0.13383  0.78917  0.82220  1.0000
  H   H256      1.0  0.18489  0.88685  0.84347  1.0000
  S   S92       1.0  0.06029  0.95283  0.87356  1.0000
  C   C263      1.0  0.25061  0.84910  0.84636  1.0000
  H   H257      1.0  0.47122  0.91500  0.79222  1.0000
  H   H258      1.0  0.01934  0.79165  0.89774  1.0000
  H   H259      1.0  0.02120  0.59690  0.66514  1.0000
  H   H260      1.0  0.21286  0.60299  0.66087  1.0000
  H   H261      1.0  0.30046  0.98271  0.84467  1.0000
  C   C264      1.0  0.47306  0.82249  0.68388  1.0000
  C   C265      1.0  0.48527  0.96819  0.77102  1.0000
  H   H262      1.0  0.04046  0.54636  0.77554  1.0000
  H   H263      1.0  0.06306  0.59346  0.69302  1.0000
  C   C266      1.0  0.24417  0.53910  0.68977  1.0000
  N   N23       1.0  0.02181  0.64748  0.71651  1.0000
  Fe  Fe46      1.0  0.12128  0.51334  0.67886  1.0000
  H   H264      1.0  0.49650  0.77884  0.68448  1.0000
  C   C267      1.0  0.01558  0.99434  0.87840  1.0000
  C   C268      1.0  0.25628  0.90067  0.82899  1.0000
  H   H265      1.0  0.06127  0.96567  0.92188  1.0000
  H   H266      1.0  0.21705  0.92922  0.82631  1.0000
  H   H267      1.0  0.20650  0.83558  0.85682  1.0000
  H   H268      1.0  0.10936  0.98705  0.84935  1.0000
  C   C269      1.0  0.22009  0.58685  0.67522  1.0000
  C   C270      1.0  0.04383  0.97921  0.91304  1.0000
  C   C271      1.0  0.04019  0.78734  0.84227  1.0000
  H   H269      1.0  0.43877  0.86415  0.69831  1.0000
  C   C272      1.0  0.20821  0.88278  0.84138  1.0000
  C   C273      1.0  0.24461  0.52099  0.73085  1.0000
  H   H270      1.0  0.14724  0.99096  0.85720  1.0000
  C   C274      1.0  0.02830  0.77811  0.86383  1.0000
  H   H271      1.0  0.42799  0.87740  0.66928  1.0000
  H   H272      1.0  0.24329  0.53063  0.74786  1.0000
  C   C275      1.0  0.02138  0.61120  0.67952  1.0000
  C   C276      1.0  0.02772  0.79897  0.88070  1.0000
  N   N24       1.0  0.05008  0.83797  0.85432  1.0000
  H   H273      1.0  0.47064  0.99615  0.70566  1.0000
  H   H274      1.0  0.09075  0.55572  0.78976  1.0000
  C   C277      1.0  0.08227  0.53219  0.79094  1.0000
  H   H275      1.0  0.16823  0.92627  0.96653  1.0000
  H   H276      1.0  0.26002  0.82676  0.85256  1.0000
  S   S93       1.0  0.03365  0.63723  0.84495  1.0000
  C   C278      1.0  0.04525  0.53221  0.84342  1.0000
  N   N25       1.0  0.26807  0.87225  0.83637  1.0000
  H   H277      1.0  0.05357  0.88570  0.86124  1.0000
  H   H278      1.0  0.02082  0.75435  0.86773  1.0000
  C   C279      1.0  0.29975  0.86664  0.83448  1.0000
  S   S94       1.0  0.12903  0.87335  0.96566  1.0000
  H   H279      1.0  0.45883  0.89502  0.68291  1.0000
  C   C280      1.0  0.23592  0.56023  0.67115  1.0000
  N   N26       1.0  0.46730  0.85060  0.67180  1.0000
  H   H280      1.0  0.19966  0.61211  0.70115  1.0000
  C   C281      1.0  0.03828  0.97657  0.88965  1.0000
  S   S95       1.0  0.08642  0.54709  0.66476  1.0000
  C   C282      1.0  0.22135  0.57035  0.71599  1.0000
  C   C283      1.0  0.21271  0.59199  0.69778  1.0000
  C   C284      1.0  0.02229  0.66614  0.73626  1.0000
  H   H281      1.0  0.03151  0.00187  0.94302  1.0000
  H   H282      1.0  0.04273  0.68025  0.73613  1.0000
  C   C285      1.0  0.03169  0.53228  0.68224  1.0000
  H   H283      1.0  0.21484  0.57413  0.73340  1.0000
  S   S96       1.0  0.39933  0.98801  0.85121  1.0000
  C   C286      1.0  0.44720  0.87284  0.68101  1.0000
  C   C287      1.0  0.04480  0.60913  0.69523  1.0000
  H   H284      1.0  0.25578  0.51810  0.68638  1.0000
  H   H285      1.0  0.03967  0.53974  0.69835  1.0000
  C   C288      1.0  0.49453  0.99768  0.76203  1.0000
  H   H286      1.0  0.24869  0.99712  0.85213  1.0000
  Fe  Fe47      1.0  0.01781  0.64722  0.80851  1.0000
  H   H287      1.0  0.46203  0.96276  0.77078  1.0000
  H   H288      1.0  0.12936  0.53804  0.81597  1.0000
  C   C289      1.0  0.49174  0.80100  0.67481  1.0000
  H   H289      1.0  0.45223  0.99188  0.88116  1.0000
  H   H290      1.0  0.24089  0.55530  0.65364  1.0000
  H   H291      1.0  0.01115  0.99241  0.86031  1.0000
  C   C290      1.0  0.05383  0.52702  0.78282  1.0000
  H   H292      1.0  0.14482  0.51108  0.79722  1.0000
  C   C291      1.0  0.00200  0.52389  0.67999  1.0000
  H   H293      1.0  0.00304  0.68205  0.73628  1.0000
  C   C292      1.0  0.49124  0.55566  0.65227  1.0000
  Fe  Fe48      1.0  0.92672  0.14211  0.09040  1.0000
  S   S97       1.0  0.92538  0.09031  0.09636  1.0000
  S   S98       1.0  0.91451  0.16889  0.05650  1.0000
  Fe  Fe49      1.0  0.95414  0.14982  0.13747  1.0000
  S   S99       1.0  0.95531  0.09794  0.14689  1.0000
  H   H294      1.0  0.86045  0.46043  0.25941  1.0000
  Fe  Fe50      1.0  0.97113  0.09404  0.11076  1.0000
  H   H295      1.0  0.78526  0.13019  0.08551  1.0000
  Fe  Fe51      1.0  0.90936  0.09871  0.13177  1.0000
  S   S100      1.0  0.87348  0.06767  0.14827  1.0000
  S   S101      1.0  0.97333  0.14580  0.10254  1.0000
  S   S102      1.0  0.90717  0.15069  0.12473  1.0000
  Fe  Fe52      1.0  0.70376  0.06886  0.17586  1.0000
  S   S103      1.0  0.70766  0.04867  0.21276  1.0000
  S   S104      1.0  0.73807  0.10140  0.15836  1.0000
  Fe  Fe53      1.0  0.64117  0.04393  0.17090  1.0000
  S   S105      1.0  0.64019  0.02200  0.20716  1.0000
  C   C293      1.0  0.97696  0.11541  0.04240  1.0000
  Fe  Fe54      1.0  0.66137  0.06560  0.21639  1.0000
  S   S106      1.0  0.64875  0.08437  0.24960  1.0000
  H   H296      1.0  0.95547  0.30955  0.21534  1.0000
  C   C294      1.0  0.95166  0.23376  0.22720  1.0000
  S   S107      1.0  0.65866  0.08949  0.18056  1.0000
  S   S108      1.0  0.68577  0.02504  0.16306  1.0000
  H   H297      1.0  0.95147  0.18449  0.22314  1.0000
  C   C295      1.0  0.77795  0.08352  0.10030  1.0000
  C   C296      1.0  0.84302  0.12966  0.07788  1.0000
  C   C297      1.0  0.96081  0.07828  0.98813  1.0000
  S   S109      1.0  0.96504  0.38059  0.21297  1.0000
  H   H298      1.0  0.87927  0.08104  0.01618  1.0000
  C   C298      1.0  0.82102  0.05071  0.10409  1.0000
  C   C299      1.0  0.95324  0.36846  0.28177  1.0000
  C   C300      1.0  0.95514  0.40073  0.27653  1.0000
  C   C301      1.0  0.93306  0.42031  0.28395  1.0000
  C   C302      1.0  0.51537  0.02961  0.16523  1.0000
  C   C303      1.0  0.56685  0.05424  0.27842  1.0000
  C   C304      1.0  0.95160  0.29035  0.22906  1.0000
  H   H299      1.0  0.97368  0.41058  0.26688  1.0000
  C   C305      1.0  0.92125  0.26546  0.20122  1.0000
  Fe  Fe55      1.0  0.88778  0.47961  0.31055  1.0000
  C   C306      1.0  0.98940  0.26896  0.17688  1.0000
  C   C307      1.0  0.57098  0.15154  0.24779  1.0000
  C   C308      1.0  0.58642  0.14308  0.26827  1.0000
  C   C309      1.0  0.61029  0.12256  0.26851  1.0000
  C   C310      1.0  0.61860  0.10986  0.24834  1.0000
  C   C311      1.0  0.60335  0.11830  0.22771  1.0000
  C   C312      1.0  0.57968  0.13939  0.22740  1.0000
  H   H300      1.0  0.62215  0.11631  0.28448  1.0000
  H   H301      1.0  0.60969  0.10855  0.21205  1.0000
  H   H302      1.0  0.56781  0.14578  0.21148  1.0000
  H   H303      1.0  0.88798  0.36526  0.31011  1.0000
  Fe  Fe56      1.0  0.51626  0.16636  0.28124  1.0000
  H   H304      1.0  0.94007  0.28436  0.13313  1.0000
  C   C313      1.0  0.56795  0.04042  0.16255  1.0000
  C   C314      1.0  0.56694  0.05309  0.18373  1.0000
  C   C315      1.0  0.54019  0.05453  0.19540  1.0000
  N   N27       1.0  0.94141  0.26249  0.21888  1.0000
  H   H305      1.0  0.58675  0.06211  0.19100  1.0000
  C   C316      1.0  0.98756  0.06358  0.03073  1.0000
  C   C317      1.0  0.92929  0.35588  0.29426  1.0000
  C   C318      1.0  0.97438  0.22112  0.16084  1.0000
  C   C319      1.0  0.79092  0.05485  0.10722  1.0000
  C   C320      1.0  0.79544  0.10784  0.09052  1.0000
  C   C321      1.0  0.97065  0.28633  0.16145  1.0000
  C   C322      1.0  0.95451  0.27109  0.14523  1.0000
  C   C323      1.0  0.95638  0.23860  0.14487  1.0000
  Fe  Fe57      1.0  0.68601  0.00666  0.20046  1.0000
  C   C324      1.0  0.90868  0.40749  0.29596  1.0000
  H   H306      1.0  0.86636  0.12727  0.08362  1.0000
  H   H307      1.0  0.94334  0.22699  0.13267  1.0000
  C   C325      1.0  0.83660  0.07864  0.15313  1.0000
  C   C326      1.0  0.82592  0.10843  0.14606  1.0000
  C   C327      1.0  0.79581  0.11532  0.14842  1.0000
  C   C328      1.0  0.77614  0.09254  0.15783  1.0000
  C   C329      1.0  0.78697  0.06304  0.16547  1.0000
  C   C330      1.0  0.81705  0.05616  0.16310  1.0000
  H   H308      1.0  0.84073  0.12594  0.13840  1.0000
  H   H309      1.0  0.78762  0.13823  0.14252  1.0000
  H   H310      1.0  0.77209  0.04529  0.17275  1.0000
  H   H311      1.0  0.82512  0.03306  0.16864  1.0000
  C   C331      1.0  0.87516  0.46912  0.24570  1.0000
  H   H312      1.0  0.87449  0.40931  0.25447  1.0000
  C   C332      1.0  0.90652  0.16612  0.01010  1.0000
  C   C333      1.0  0.90563  0.14960  0.03202  1.0000
  C   C334      1.0  0.89671  0.11855  0.03406  1.0000
  C   C335      1.0  0.88733  0.10465  0.01442  1.0000
  C   C336      1.0  0.91135  0.23930  0.19106  1.0000
  H   H313      1.0  0.91331  0.19020  0.00842  1.0000
  H   H314      1.0  0.89600  0.10554  0.05080  1.0000
  H   H315      1.0  0.92776  0.33100  0.29837  1.0000
  H   H316      1.0  0.53031  0.07216  0.25724  1.0000
  Fe  Fe58      1.0  0.99025  0.35409  0.18816  1.0000
  H   H317      1.0  0.91363  0.28828  0.19427  1.0000
  H   H318      1.0  0.50581  0.26398  0.30000  1.0000
  H   H319      1.0  0.84227  0.13058  0.05874  1.0000
  H   H320      1.0  0.53955  0.06501  0.21152  1.0000
  Fe  Fe59      1.0  0.99745  0.41904  0.20518  1.0000
  C   C337      1.0  0.89805  0.15190  0.99034  1.0000
  H   H321      1.0  0.54265  0.01972  0.13657  1.0000
  H   H322      1.0  0.97534  0.13966  0.03421  1.0000
  C   C338      1.0  0.99118  0.23652  0.17658  1.0000
  H   H323      1.0  0.96772  0.23135  0.24113  1.0000
  C   C339      1.0  0.92211  0.21000  0.19912  1.0000
  H   H324      1.0  0.83157  0.02888  0.11016  1.0000
  H   H325      1.0  0.57133  0.07648  0.28484  1.0000
  H   H326      1.0  0.62729  0.04206  0.29179  1.0000
  S   S110      1.0  0.54057  0.17676  0.24793  1.0000
  H   H327      1.0  0.95309  0.12292  0.00014  1.0000
  N   N28       1.0  0.70790  0.13308  0.23186  1.0000
  C   C340      1.0  0.68353  0.14851  0.23848  1.0000
  C   C341      1.0  0.71574  0.13489  0.20913  1.0000
  C   C342      1.0  0.66604  0.16600  0.22215  1.0000
  C   C343      1.0  0.69905  0.15262  0.19238  1.0000
  C   C344      1.0  0.67389  0.16800  0.19895  1.0000
  C   C345      1.0  0.72446  0.11296  0.24910  1.0000
  H   H328      1.0  0.67661  0.14600  0.25636  1.0000
  H   H329      1.0  0.73462  0.12206  0.20371  1.0000
  H   H330      1.0  0.64598  0.17695  0.22742  1.0000
  H   H331      1.0  0.70505  0.15338  0.17432  1.0000
  H   H332      1.0  0.66015  0.18084  0.18602  1.0000
  H   H333      1.0  0.71216  0.09097  0.25332  1.0000
  H   H334      1.0  0.74656  0.10697  0.24273  1.0000
  H   H335      1.0  0.72755  0.12450  0.26518  1.0000
  C   C346      1.0  0.53677  0.02307  0.25535  1.0000
  C   C347      1.0  0.54344  0.05187  0.26297  1.0000
  C   C348      1.0  0.96265  0.10009  0.00435  1.0000
  H   H336      1.0  0.60206  0.04742  0.31512  1.0000
  H   H337      1.0  0.97277  0.28623  0.23860  1.0000
  H   H338      1.0  0.93440  0.44509  0.27965  1.0000
  H   H339      1.0  0.99774  0.11339  0.05267  1.0000
  H   H340      1.0  0.90857  0.40361  0.24025  1.0000
  C   C349      1.0  0.90686  0.37528  0.30097  1.0000
  H   H341      1.0  0.99762  0.05747  0.04754  1.0000
  H   H342      1.0  0.51826  0.02083  0.24373  1.0000
  S   S111      1.0  0.96585  0.32679  0.16258  1.0000
  H   H343      1.0  0.86137  0.07227  0.09262  1.0000
  C   C350      1.0  0.83786  0.07554  0.09432  1.0000
  H   H344      1.0  0.93499  0.29796  0.24126  1.0000
  C   C351      1.0  0.88680  0.41537  0.23822  1.0000
  S   S112      1.0  0.60165  0.03690  0.14837  1.0000
  N   N29       1.0  0.97615  0.09269  0.02525  1.0000
  S   S113      1.0  0.98054  0.34346  0.27299  1.0000
  H   H345      1.0  0.95823  0.11140  0.05437  1.0000
  C   C352      1.0  0.60818  0.03200  0.30166  1.0000
  N   N30       1.0  0.58336  0.02869  0.28588  1.0000
  H   H346      1.0  0.58036  0.15280  0.28394  1.0000
  C   C353      1.0  0.54198  0.02931  0.15306  1.0000
  C   C354      1.0  0.88790  0.12129  0.99252  1.0000
  C   C355      1.0  0.51451  0.04223  0.18645  1.0000
  S   S114      1.0  0.98226  0.46859  0.20430  1.0000
  H   H347      1.0  0.87453  0.40616  0.22381  1.0000
  H   H348      1.0  0.83514  0.15221  0.08325  1.0000
  H   H349      1.0  0.75470  0.08718  0.10332  1.0000
  S   S115      1.0  0.97442  0.18003  0.16343  1.0000
  N   N31       1.0  0.82509  0.10380  0.08803  1.0000
  H   H350      1.0  0.92151  0.44429  0.20660  1.0000
  S   S116      1.0  0.53739  0.16315  0.31619  1.0000
  H   H351      1.0  0.89639  0.24182  0.17639  1.0000
  S   S117      1.0  0.87886  0.43045  0.30325  1.0000
  N   N32       1.0  0.89065  0.44902  0.23352  1.0000
  H   H352      1.0  0.77783  0.03620  0.11566  1.0000
  C   C356      1.0  0.91248  0.49213  0.21078  1.0000
  C   C357      1.0  0.98646  0.04132  0.01477  1.0000
  H   H353      1.0  0.61483  0.00921  0.31075  1.0000
  C   C358      1.0  0.97307  0.04884  0.99329  1.0000
  H   H354      1.0  0.97835  0.47850  0.31280  1.0000
  C   C359      1.0  0.50308  0.28546  0.30803  1.0000
  H   H355      1.0  0.97686  0.49452  0.26237  1.0000
  C   C360      1.0  0.90908  0.46014  0.21623  1.0000
  H   H356      1.0  0.99580  0.01837  0.01907  1.0000
  H   H357      1.0  0.50626  0.15145  0.21325  1.0000
  C   C361      1.0  0.94235  0.20713  0.21732  1.0000
  H   H358      1.0  0.91573  0.18965  0.19068  1.0000
  C   C362      1.0  0.50549  0.03659  0.31215  1.0000
  H   H359      1.0  0.99896  0.02724  0.13707  1.0000
  Fe  Fe60      1.0  0.99863  0.36203  0.23890  1.0000
  C   C363      1.0  0.87816  0.50124  0.24074  1.0000
  H   H360      1.0  0.92734  0.50087  0.19717  1.0000
  C   C364      1.0  0.52990  0.21345  0.64974  1.0000
  H   H361      1.0  0.56317  0.01384  0.34732  1.0000
  H   H362      1.0  0.55779  0.48106  0.62294  1.0000
  C   C365      1.0  0.52954  0.26812  0.63394  1.0000
  C   C366      1.0  0.51364  0.48867  0.38064  1.0000
  C   C367      1.0  0.97370  0.40204  0.33828  1.0000
  N   N33       1.0  0.51799  0.23893  0.63395  1.0000
  S   S118      1.0  0.53967  0.07485  0.33665  1.0000
  H   H363      1.0  0.95939  0.45901  0.37312  1.0000
  H   H364      1.0  0.50571  0.46750  0.61535  1.0000
  H   H365      1.0  0.61883  0.49386  0.42271  1.0000
  H   H366      1.0  0.62617  0.49715  0.32826  1.0000
  H   H367      1.0  0.59050  0.46382  0.34586  1.0000
  H   H368      1.0  0.57719  0.45742  0.41890  1.0000
  C   C368      1.0  0.61305  0.48645  0.40598  1.0000
  C   C369      1.0  0.58207  0.45724  0.38215  1.0000
  Fe  Fe61      1.0  0.51470  0.11715  0.32167  1.0000
  H   H369      1.0  0.56337  0.44207  0.38026  1.0000
  H   H370      1.0  0.96245  0.38767  0.32679  1.0000
  H   H371      1.0  0.65933  0.49603  0.34560  1.0000
  C   C370      1.0  0.95731  0.42323  0.34972  1.0000
  C   C371      1.0  0.50972  0.48948  0.40436  1.0000
  C   C372      1.0  0.52926  0.03897  0.32729  1.0000
  C   C373      1.0  0.51826  0.31983  0.33618  1.0000
  C   C374      1.0  0.59738  0.46987  0.36272  1.0000
  H   H372      1.0  0.53339  0.32505  0.34975  1.0000
  H   H373      1.0  0.93375  0.42558  0.34672  1.0000
  C   C375      1.0  0.58978  0.46591  0.40386  1.0000
  C   C376      1.0  0.54471  0.01214  0.33566  1.0000
  H   H374      1.0  0.52542  0.31650  0.62086  1.0000
  C   C377      1.0  0.51714  0.29309  0.62008  1.0000
  S   S119      1.0  0.89640  0.49082  0.34687  1.0000
  H   H375      1.0  0.50027  0.38646  0.33383  1.0000
  H   H376      1.0  0.54110  0.27744  0.33004  1.0000
  N   N34       1.0  0.62005  0.49018  0.36496  1.0000
  H   H377      1.0  0.54779  0.27247  0.64527  1.0000
  C   C378      1.0  0.62823  0.49816  0.38624  1.0000
  C   C379      1.0  0.97161  0.44170  0.36470  1.0000
  C   C380      1.0  0.54275  0.49883  0.61560  1.0000
  H   H378      1.0  0.52842  0.19095  0.64204  1.0000
  C   C381      1.0  0.51327  0.49109  0.61132  1.0000
  C   C382      1.0  0.52299  0.29308  0.32492  1.0000
  S   S120      1.0  0.50036  0.22121  0.35271  1.0000
  Fe  Fe62      1.0  0.92465  0.13611  0.89075  1.0000
  S   S121      1.0  0.93261  0.08953  0.87760  1.0000
  S   S122      1.0  0.93695  0.17506  0.86359  1.0000
  Fe  Fe63      1.0  0.89536  0.10633  0.93434  1.0000
  S   S123      1.0  0.90031  0.05821  0.92339  1.0000
  S   S124      1.0  0.87263  0.10441  0.96883  1.0000
  Fe  Fe64      1.0  0.94620  0.07313  0.91384  1.0000
  C   C383      1.0  0.63810  0.00794  0.71730  1.0000
  Fe  Fe65      1.0  0.88587  0.07926  0.88838  1.0000
  S   S125      1.0  0.85533  0.05863  0.86266  1.0000
  S   S126      1.0  0.94196  0.12064  0.92638  1.0000
  S   S127      1.0  0.87727  0.12634  0.89987  1.0000
  S   S128      1.0  0.99747  0.34093  0.81310  1.0000
  S   S129      1.0  0.94220  0.38294  0.83103  1.0000
  S   S130      1.0  0.94163  0.37592  0.76341  1.0000
  C   C384      1.0  0.83289  0.13560  0.83684  1.0000
  S   S131      1.0  0.98516  0.04470  0.92898  1.0000
  C   C385      1.0  0.80679  0.14494  0.84679  1.0000
  H   H379      1.0  0.88156  0.46083  0.78797  1.0000
  H   H380      1.0  0.59888  0.11905  0.80065  1.0000
  H   H381      1.0  0.90064  0.16093  0.82401  1.0000
  S   S132      1.0  0.58273  0.16322  0.70039  1.0000
  H   H382      1.0  0.78698  0.17797  0.86748  1.0000
  Fe  Fe66      1.0  0.62245  0.04712  0.81914  1.0000
  C   C386      1.0  0.80693  0.17092  0.85927  1.0000
  S   S133      1.0  0.57494  0.06134  0.82223  1.0000
  Fe  Fe67      1.0  0.68693  0.05622  0.83374  1.0000
  S   S134      1.0  0.70374  0.02850  0.80603  1.0000
  S   S135      1.0  0.71620  0.07634  0.86042  1.0000
  Fe  Fe68      1.0  0.66966  0.05372  0.78328  1.0000
  S   S136      1.0  0.67998  0.07269  0.74717  1.0000
  C   C387      1.0  0.82674  0.44203  0.69254  1.0000
  S   S137      1.0  0.65571  0.08455  0.80998  1.0000
  H   H383      1.0  0.98144  0.02867  0.88146  1.0000
  Fe  Fe69      1.0  0.53520  0.15532  0.70910  1.0000
  H   H384      1.0  0.69867  0.01625  0.88793  1.0000
  H   H385      1.0  0.53189  0.02749  0.75495  1.0000
  C   C388      1.0  0.99566  0.49382  0.84123  1.0000
  C   C389      1.0  0.60846  0.13561  0.71239  1.0000
  C   C390      1.0  0.60075  0.11218  0.72957  1.0000
  C   C391      1.0  0.62257  0.09264  0.74044  1.0000
  C   C392      1.0  0.65199  0.09607  0.73368  1.0000
  C   C393      1.0  0.65944  0.11870  0.71596  1.0000
  C   C394      1.0  0.63783  0.13863  0.70556  1.0000
  H   H386      1.0  0.57822  0.10962  0.73498  1.0000
  H   H387      1.0  0.61663  0.07505  0.75404  1.0000
  H   H388      1.0  0.68211  0.12133  0.71061  1.0000
  H   H389      1.0  0.64396  0.15662  0.69229  1.0000
  C   C395      1.0  0.54930  0.03087  0.82334  1.0000
  H   H390      1.0  0.55213  0.12374  0.81788  1.0000
  H   H391      1.0  0.49915  0.31037  0.67617  1.0000
  C   C396      1.0  0.60854  0.17590  0.75720  1.0000
  C   C397      1.0  0.59354  0.13871  0.78836  1.0000
  C   C398      1.0  0.61551  0.15137  0.77365  1.0000
  H   H392      1.0  0.54169  0.02327  0.88225  1.0000
  C   C399      1.0  0.89069  0.45031  0.77345  1.0000
  C   C400      1.0  0.90737  0.42301  0.77725  1.0000
  C   C401      1.0  0.91893  0.40887  0.75866  1.0000
  C   C402      1.0  0.91347  0.42208  0.73614  1.0000
  C   C403      1.0  0.89800  0.45027  0.73235  1.0000
  S   S138      1.0  0.51755  0.12122  0.73694  1.0000
  H   H393      1.0  0.91088  0.41273  0.79462  1.0000
  H   H394      1.0  0.92191  0.41088  0.72171  1.0000
  S   S139      1.0  0.96430  0.47040  0.83950  1.0000
  C   C404      1.0  0.85855  0.17777  0.85091  1.0000
  C   C405      1.0  0.81679  0.06438  0.86229  1.0000
  C   C406      1.0  0.80220  0.07714  0.88026  1.0000
  C   C407      1.0  0.77138  0.08096  0.87935  1.0000
  C   C408      1.0  0.75494  0.07204  0.86053  1.0000
  C   C409      1.0  0.76961  0.05957  0.84249  1.0000
  C   C410      1.0  0.80037  0.05582  0.84338  1.0000
  H   H395      1.0  0.81463  0.08394  0.89488  1.0000
  H   H396      1.0  0.76024  0.09075  0.89336  1.0000
  H   H397      1.0  0.75730  0.05280  0.82785  1.0000
  H   H398      1.0  0.81151  0.04603  0.82936  1.0000
  C   C411      1.0  0.95827  0.27668  0.87329  1.0000
  C   C412      1.0  0.95550  0.26673  0.85124  1.0000
  C   C413      1.0  0.94870  0.23554  0.84863  1.0000
  C   C414      1.0  0.94435  0.21414  0.86800  1.0000
  C   C415      1.0  0.94661  0.22418  0.89006  1.0000
  H   H399      1.0  0.51318  0.06117  0.81222  1.0000
  H   H400      1.0  0.95905  0.28294  0.83621  1.0000
  S   S140      1.0  0.50794  0.19548  0.71872  1.0000
  H   H401      1.0  0.94335  0.20788  0.90509  1.0000
  S   S141      1.0  0.50400  0.14225  0.68163  1.0000
  H   H402      1.0  0.53333  0.48219  0.67688  1.0000
  Fe  Fe70      1.0  0.97722  0.35060  0.84687  1.0000
  S   S142      1.0  0.63453  0.01816  0.79065  1.0000
  C   C416      1.0  0.81461  0.45662  0.67223  1.0000
  C   C417      1.0  0.88656  0.46438  0.75105  1.0000
  H   H403      1.0  0.89472  0.46082  0.71498  1.0000
  H   H404      1.0  0.57403  0.20579  0.74234  1.0000
  H   H405      1.0  0.83283  0.44455  0.72909  1.0000
  H   H406      1.0  0.52794  0.15502  0.80802  1.0000
  C   C418      1.0  0.52771  0.04676  0.70353  1.0000
  H   H407      1.0  0.89810  0.16505  0.97358  1.0000
  H   H408      1.0  0.94694  0.22795  0.83150  1.0000
  S   S143      1.0  0.86699  0.49951  0.74679  1.0000
  C   C419      1.0  0.98178  0.44168  0.70441  1.0000
  C   C420      1.0  0.57987  0.18753  0.75568  1.0000
  H   H409      1.0  0.65132  0.02961  0.71678  1.0000
  N   N35       1.0  0.56561  0.15066  0.78705  1.0000
  C   C421      1.0  0.51967  0.03771  0.81828  1.0000
  H   H410      1.0  0.63751  0.14145  0.77437  1.0000
  H   H411      1.0  0.62501  0.18502  0.74498  1.0000
  H   H412      1.0  0.83953  0.42085  0.69221  1.0000
  H   H413      1.0  0.67896  0.00771  0.75042  1.0000
  Fe  Fe71      1.0  0.97526  0.42102  0.83359  1.0000
  C   C422      1.0  0.79879  0.48430  0.67296  1.0000
  Fe  Fe72      1.0  0.96469  0.37633  0.79764  1.0000
  H   H414      1.0  0.97467  0.43453  0.74114  1.0000
  N   N36       1.0  0.79521  0.49714  0.69336  1.0000
  H   H415      1.0  0.81798  0.44700  0.65590  1.0000
  H   H416      1.0  0.87873  0.19061  0.85284  1.0000
  H   H417      1.0  0.53230  0.07126  0.70365  1.0000
  C   C423      1.0  0.88554  0.14127  0.82898  1.0000
  H   H418      1.0  0.88119  0.12910  0.81336  1.0000
  C   C424      1.0  0.55088  0.02570  0.70140  1.0000
  C   C425      1.0  0.54262  0.13676  0.80220  1.0000
  C   C426      1.0  0.55855  0.17459  0.77086  1.0000
  C   C427      1.0  0.95368  0.25535  0.89268  1.0000
  H   H419      1.0  0.53622  0.18354  0.76942  1.0000
  H   H420      1.0  0.89693  0.12495  0.84200  1.0000
  N   N37       1.0  0.85823  0.15218  0.83876  1.0000
  H   H421      1.0  0.83352  0.20752  0.87128  1.0000
  H   H422      1.0  0.95592  0.26290  0.90980  1.0000
  C   C428      1.0  0.82299  0.45529  0.71324  1.0000
  H   H423      1.0  0.83288  0.11472  0.82788  1.0000
  H   H424      1.0  0.52569  0.07477  0.86455  1.0000
  H   H425      1.0  0.78676  0.13168  0.84522  1.0000
  H   H426      1.0  0.52921  0.12057  0.79275  1.0000
  C   C429      1.0  0.83296  0.18749  0.86138  1.0000
  H   H427      1.0  0.57321  0.03419  0.69981  1.0000
  C   C430      1.0  0.80739  0.48322  0.71329  1.0000
  C   C431      1.0  0.50925  0.05710  0.86899  1.0000
  S   S144      1.0  0.65200  0.02167  0.84572  1.0000
  H   H428      1.0  0.95860  0.44164  0.69986  1.0000
  H   H429      1.0  0.80560  0.49395  0.72934  1.0000
  H   H430      1.0  0.94979  0.08405  0.97167  1.0000
  H   H431      1.0  0.72808  0.03101  0.90386  1.0000
  H   H432      1.0  0.51711  0.21158  0.66598  1.0000
  S   S145      1.0  0.97018  0.31466  0.87730  1.0000
  H   H433      1.0  0.61785  0.01100  0.72741  1.0000
  S   S146      1.0  0.99517  0.41648  0.79920  1.0000
  C   C432      1.0  0.99078  0.43819  0.72749  1.0000
  C   C433      1.0  0.99871  0.01489  0.89033  1.0000
  C   C434      1.0  0.51849  0.02797  0.87900  1.0000
  H   H434      1.0  0.78993  0.49582  0.65701  1.0000
  C   C435      1.0  0.71962  0.00949  0.89709  1.0000
  H   H435      1.0  0.97205  0.03194  0.98062  1.0000
  H   H436      1.0  0.99567  0.44749  0.66918  1.0000
  S   S147      1.0  0.95529  0.50110  0.65628  1.0000
  H   H437      1.0  0.77817  0.01172  0.90012  1.0000
  C   C436      1.0  0.52443  0.00480  0.76210  1.0000
  H   H438      1.0  0.63143  0.00477  0.69926  1.0000
  H   H439      1.0  0.55345  0.21709  0.65400  1.0000
  C   C437      1.0  0.58322  0.77405  0.28176  1.0000
  C   C438      1.0  0.97011  0.62099  0.23209  1.0000
  H   H440      1.0  0.61010  0.90612  0.23373  1.0000
  Fe  Fe73      1.0  0.56079  0.86310  0.28230  1.0000
  H   H441      1.0  0.66050  0.98923  0.28736  1.0000
  S   S148      1.0  0.55552  0.84421  0.24811  1.0000
  H   H442      1.0  0.98130  0.55197  0.25645  1.0000
  N   N38       1.0  0.55548  0.94551  0.20379  1.0000
  C   C439      1.0  0.57744  0.00048  0.27810  1.0000
  S   S149      1.0  0.56503  0.91388  0.28476  1.0000
  C   C440      1.0  0.50496  0.87962  0.24392  1.0000
  H   H443      1.0  0.55626  0.91320  0.23380  1.0000
  S   S150      1.0  0.52531  0.85667  0.30858  1.0000
  C   C441      1.0  0.94294  0.60540  0.23335  1.0000
  C   C442      1.0  0.52338  0.94902  0.20378  1.0000
  H   H444      1.0  0.93115  0.60149  0.21768  1.0000
  C   C443      1.0  0.81832  0.60405  0.29857  1.0000
  C   C444      1.0  0.93110  0.59498  0.25487  1.0000
  S   S151      1.0  0.89716  0.57556  0.25676  1.0000
  C   C445      1.0  0.55385  0.99718  0.26293  1.0000
  H   H445      1.0  0.60397  0.70629  0.31201  1.0000
  C   C446      1.0  0.65234  0.94070  0.28454  1.0000
  C   C447      1.0  0.65544  0.91614  0.27071  1.0000
  C   C448      1.0  0.66960  0.92101  0.24930  1.0000
  C   C449      1.0  0.67953  0.95071  0.24130  1.0000
  C   C450      1.0  0.67577  0.97536  0.25494  1.0000
  C   C451      1.0  0.66271  0.97023  0.27669  1.0000
  H   H446      1.0  0.89968  0.53762  0.21924  1.0000
  H   H447      1.0  0.93787  0.59204  0.29161  1.0000
  C   C452      1.0  0.61618  0.93763  0.20314  1.0000
  H   H448      1.0  0.51464  0.94671  0.22163  1.0000
  C   C453      1.0  0.51498  0.84720  0.21320  1.0000
  S   S152      1.0  0.85466  0.51796  0.30235  1.0000
  C   C454      1.0  0.94655  0.60003  0.27499  1.0000
  C   C455      1.0  0.59952  0.92172  0.22045  1.0000
  H   H449      1.0  0.63985  0.93460  0.20286  1.0000
  C   C456      1.0  0.52281  0.85774  0.23435  1.0000
  H   H450      1.0  0.59073  0.98028  0.28390  1.0000
  C   C457      1.0  0.57162  0.96060  0.18647  1.0000
  H   H451      1.0  0.61496  0.96988  0.17250  1.0000
  H   H452      1.0  0.64762  0.89324  0.27679  1.0000
  H   H453      1.0  0.79933  0.59241  0.29205  1.0000
  H   H454      1.0  0.51648  0.97231  0.19578  1.0000
  Fe  Fe74      1.0  0.89417  0.54607  0.29055  1.0000
  H   H455      1.0  0.54330  0.79870  0.28734  1.0000
  C   C458      1.0  0.84186  0.61252  0.28410  1.0000
  H   H456      1.0  0.84141  0.60753  0.26618  1.0000
  C   C459      1.0  0.56900  0.92590  0.22045  1.0000
  H   H457      1.0  0.86605  0.51719  0.25047  1.0000
  H   H458      1.0  0.67252  0.90189  0.23882  1.0000
  H   H459      1.0  0.97915  0.62919  0.21549  1.0000
  H   H460      1.0  0.56093  0.97524  0.17281  1.0000
  S   S153      1.0  0.69537  0.95735  0.21384  1.0000
  H   H461      1.0  0.51074  0.88780  0.26034  1.0000
  H   H462      1.0  0.52870  0.83035  0.20572  1.0000
  H   H463      1.0  0.50129  0.75220  0.31297  1.0000
  S   S154      1.0  0.59809  0.84990  0.30673  1.0000
  C   C460      1.0  0.98494  0.62684  0.25238  1.0000
  H   H464      1.0  0.98461  0.62056  0.28951  1.0000
  C   C461      1.0  0.89699  0.51275  0.22319  1.0000
  H   H465      1.0  0.62135  0.74458  0.28041  1.0000
  C   C462      1.0  0.55658  0.77845  0.29288  1.0000
  C   C463      1.0  0.97316  0.61620  0.27377  1.0000
  C   C464      1.0  0.60221  0.95726  0.18603  1.0000
  H   H466      1.0  0.88503  0.63297  0.28182  1.0000
  H   H467      1.0  0.59049  0.79096  0.26800  1.0000
  H   H468      1.0  0.68343  0.99832  0.24891  1.0000
  C   C465      1.0  0.60040  0.74798  0.28862  1.0000
  S   S155      1.0  0.92588  0.50646  0.29523  1.0000
  H   H469      1.0  0.98146  0.53514  0.20265  1.0000
  Fe  Fe75      1.0  0.59863  0.90078  0.31205  1.0000
  C   C466      1.0  0.86637  0.62691  0.29289  1.0000
  H   H470      1.0  0.51306  0.93092  0.19405  1.0000
  N   N39       1.0  0.54756  0.75773  0.31062  1.0000
  H   H471      1.0  0.54863  0.97465  0.25734  1.0000
  C   C467      1.0  0.59057  0.72642  0.30621  1.0000
  Fe  Fe76      1.0  0.53260  0.90696  0.31328  1.0000
  C   C468      1.0  0.51144  0.98043  0.31519  1.0000
  C   C469      1.0  0.86707  0.63246  0.31617  1.0000
  S   S156      1.0  0.63561  0.93495  0.31166  1.0000
  C   C470      1.0  0.56386  0.73164  0.31703  1.0000
  C   C471      1.0  0.99774  0.50513  0.25747  1.0000
  H   H472      1.0  0.65345  0.72229  0.48389  1.0000
  Fe  Fe77      1.0  0.86597  0.53146  0.33768  1.0000
  H   H473      1.0  0.59014  0.55311  0.47173  1.0000
  H   H474      1.0  0.59161  0.59488  0.46772  1.0000
  C   C472      1.0  0.64395  0.71770  0.42647  1.0000
  N   N40       1.0  0.68145  0.69739  0.46280  1.0000
  C   C473      1.0  0.55260  0.52957  0.61117  1.0000
  S   S157      1.0  0.83521  0.55177  0.36300  1.0000
  C   C474      1.0  0.65775  0.71573  0.46669  1.0000
  C   C475      1.0  0.63855  0.72601  0.44863  1.0000
  C   C476      1.0  0.84577  0.62925  0.35474  1.0000
  Fe  Fe78      1.0  0.65964  0.62884  0.62454  1.0000
  S   S158      1.0  0.63597  0.67273  0.61085  1.0000
  Fe  Fe79      1.0  0.60581  0.58846  0.61623  1.0000
  S   S159      1.0  0.57824  0.62926  0.60299  1.0000
  S   S160      1.0  0.58878  0.53898  0.61942  1.0000
  Fe  Fe80      1.0  0.61881  0.64439  0.58319  1.0000
  S   S161      1.0  0.60982  0.66285  0.54619  1.0000
  Fe  Fe81      1.0  0.59783  0.65380  0.63176  1.0000
  S   S162      1.0  0.64572  0.60201  0.59489  1.0000
  Fe  Fe82      1.0  0.63697  0.64059  0.38482  1.0000
  S   S163      1.0  0.68211  0.62396  0.39668  1.0000
  S   S164      1.0  0.63857  0.68635  0.36225  1.0000
  Fe  Fe83      1.0  0.60729  0.58210  0.40731  1.0000
  S   S165      1.0  0.65024  0.56141  0.42028  1.0000
  S   S166      1.0  0.56773  0.55489  0.42134  1.0000
  Fe  Fe84      1.0  0.66008  0.60899  0.43026  1.0000
  S   S167      1.0  0.68164  0.61193  0.46498  1.0000
  Fe  Fe85      1.0  0.66834  0.57801  0.38555  1.0000
  S   S168      1.0  0.69498  0.54698  0.36403  1.0000
  S   S169      1.0  0.61614  0.62923  0.41951  1.0000
  S   S170      1.0  0.62427  0.59509  0.37149  1.0000
  C   C477      1.0  0.62973  0.64790  0.52395  1.0000
  C   C478      1.0  0.61988  0.65423  0.50110  1.0000
  C   C479      1.0  0.63522  0.64260  0.48293  1.0000
  C   C480      1.0  0.66078  0.62499  0.48749  1.0000
  C   C481      1.0  0.67081  0.61890  0.51030  1.0000
  C   C482      1.0  0.65520  0.63013  0.52854  1.0000
  H   H475      1.0  0.60027  0.66815  0.49749  1.0000
  H   H476      1.0  0.62762  0.64792  0.46539  1.0000
  H   H477      1.0  0.69080  0.60559  0.51390  1.0000
  H   H478      1.0  0.66315  0.62548  0.54607  1.0000
  C   C483      1.0  0.54656  0.53047  0.40502  1.0000
  C   C484      1.0  0.74964  0.53255  0.34782  1.0000
  H   H479      1.0  0.56578  0.54557  0.37221  1.0000
  C   C485      1.0  0.57239  0.74571  0.37566  1.0000
  C   C486      1.0  0.53305  0.55230  0.60152  1.0000
  H   H480      1.0  0.54035  0.57595  0.59782  1.0000
  C   C487      1.0  0.79626  0.54966  0.36298  1.0000
  C   C488      1.0  0.78067  0.53313  0.34736  1.0000
  C   C489      1.0  0.76192  0.56944  0.62935  1.0000
  C   C490      1.0  0.73397  0.54878  0.36364  1.0000
  C   C491      1.0  0.74960  0.56569  0.37899  1.0000
  C   C492      1.0  0.78058  0.56599  0.37871  1.0000
  H   H481      1.0  0.67240  0.69248  0.40543  1.0000
  C   C493      1.0  0.62143  0.55909  0.51585  1.0000
  H   H482      1.0  0.73785  0.57814  0.39134  1.0000
  H   H483      1.0  0.79244  0.57880  0.39088  1.0000
  H   H484      1.0  0.63559  0.52952  0.34404  1.0000
  H   H485      1.0  0.62506  0.57318  0.47095  1.0000
  C   C494      1.0  0.57586  0.58977  0.53561  1.0000
  S   S171      1.0  0.56644  0.89683  0.34124  1.0000
  H   H486      1.0  0.82506  0.62269  0.36400  1.0000
  H   H487      1.0  0.54742  0.96232  0.33671  1.0000
  H   H488      1.0  0.64640  0.51400  0.38792  1.0000
  H   H489      1.0  0.62948  0.72580  0.41225  1.0000
  C   C495      1.0  0.53591  0.98295  0.32955  1.0000
  C   C496      1.0  0.58934  0.77042  0.63875  1.0000
  H   H490      1.0  0.86354  0.61443  0.36323  1.0000
  C   C497      1.0  0.58040  0.77320  0.36234  1.0000
  C   C498      1.0  0.59017  0.71890  0.37620  1.0000
  C   C499      1.0  0.61629  0.71961  0.36362  1.0000
  C   C500      1.0  0.62464  0.74731  0.35085  1.0000
  C   C501      1.0  0.60672  0.77394  0.35008  1.0000
  H   H491      1.0  0.58348  0.69765  0.38606  1.0000
  H   H492      1.0  0.73774  0.51937  0.33590  1.0000
  H   H493      1.0  0.85036  0.65404  0.35677  1.0000
  C   C502      1.0  0.78633  0.57605  0.64301  1.0000
  H   H494      1.0  0.69041  0.68422  0.49842  1.0000
  Fe  Fe86      1.0  0.93237  0.52083  0.33077  1.0000
  C   C503      1.0  0.55021  0.53002  0.38122  1.0000
  Fe  Fe87      1.0  0.56279  0.84667  0.33374  1.0000
  S   S172      1.0  0.97801  0.52523  0.34555  1.0000
  C   C504      1.0  0.73607  0.58751  0.62928  1.0000
  C   C505      1.0  0.70213  0.68831  0.48171  1.0000
  H   H495      1.0  0.68470  0.70404  0.64335  1.0000
  S   S173      1.0  0.70296  0.63660  0.64284  1.0000
  H   H496      1.0  0.71881  0.70677  0.48300  1.0000
  H   H497      1.0  0.64488  0.74808  0.34114  1.0000
  H   H498      1.0  0.71752  0.58236  0.61856  1.0000
  H   H499      1.0  0.52036  0.75287  0.34045  1.0000
  S   S174      1.0  0.90312  0.56271  0.32514  1.0000
  C   C506      1.0  0.66814  0.69903  0.42265  1.0000
  H   H500      1.0  0.61328  0.79500  0.33997  1.0000
  C   C507      1.0  0.60191  0.57385  0.47694  1.0000
  H   H501      1.0  0.52302  0.51066  0.43484  1.0000
  H   H502      1.0  0.70538  0.67415  0.43806  1.0000
  S   S175      1.0  0.62210  0.61137  0.64694  1.0000
  H   H503      1.0  0.51001  0.84381  0.62510  1.0000
  H   H504      1.0  0.63959  0.54740  0.50826  1.0000
  H   H505      1.0  0.71359  0.66618  0.47899  1.0000
  H   H506      1.0  0.55837  0.60251  0.54317  1.0000
  H   H507      1.0  0.63656  0.54648  0.55084  1.0000
  H   H508      1.0  0.55206  0.74503  0.38525  1.0000
  C   C508      1.0  0.68678  0.68897  0.44112  1.0000
  C   C509      1.0  0.58778  0.73795  0.63861  1.0000
  H   H509      1.0  0.61970  0.74045  0.45175  1.0000
  H   H510      1.0  0.59539  0.57356  0.56842  1.0000
  C   C510      1.0  0.61988  0.55848  0.53990  1.0000
  C   C511      1.0  0.59685  0.57383  0.54979  1.0000
  N   N41       1.0  0.84389  0.62407  0.33025  1.0000
  S   S176      1.0  0.55648  0.80563  0.36069  1.0000
  N   N42       1.0  0.60065  0.57467  0.50205  1.0000
  H   H511      1.0  0.55674  0.71515  0.33107  1.0000
  H   H512      1.0  0.59647  0.72687  0.62420  1.0000
  H   H513      1.0  0.59921  0.78418  0.62434  1.0000
  H   H514      1.0  0.56159  0.60229  0.50074  1.0000
  C   C512      1.0  0.57796  0.58976  0.51163  1.0000
  H   H515      1.0  0.76307  0.55037  0.61863  1.0000
  H   H516      1.0  0.51908  0.79212  0.64603  1.0000
  C   C513      1.0  0.81964  0.61019  0.32170  1.0000
  C   C514      1.0  0.50363  0.54455  0.59715  1.0000
  H   H517      1.0  0.80138  0.60319  0.33287  1.0000
  C   C515      1.0  0.73453  0.61251  0.64280  1.0000
  H   H518      1.0  0.67938  0.76016  0.64834  1.0000
  H   H519      1.0  0.53664  0.50891  0.35068  1.0000
  H   H520      1.0  0.88653  0.64288  0.32303  1.0000
  H   H521      1.0  0.51520  0.78803  0.32261  1.0000
  S   S177      1.0  0.81809  0.55230  0.64276  1.0000
  H   H522      1.0  0.79247  0.52050  0.33515  1.0000
  C   C516      1.0  0.53365  0.50929  0.36906  1.0000
  H   H523      1.0  0.52627  0.60185  0.63856  1.0000
  C   C517      1.0  0.63594  0.50372  0.34463  1.0000
  C   C518      1.0  0.52604  0.51037  0.41646  1.0000
  C   C519      1.0  0.51962  0.76280  0.32212  1.0000
  H   H524      1.0  0.55950  0.58333  0.64880  1.0000
  C   C520      1.0  0.49917  0.83747  0.64141  1.0000
  Fe  Fe88      1.0  0.92048  0.52838  0.67292  1.0000
  S   S178      1.0  0.92585  0.54339  0.70844  1.0000
  H   H525      1.0  0.69567  0.90964  0.75781  1.0000
  S   S179      1.0  0.85803  0.57191  0.70196  1.0000
  Fe  Fe89      1.0  0.90423  0.58732  0.69336  1.0000
  S   S180      1.0  0.92079  0.63431  0.70075  1.0000
  Fe  Fe90      1.0  0.87968  0.52644  0.71363  1.0000
  Fe  Fe91      1.0  0.85753  0.55454  0.66680  1.0000
  H   H526      1.0  0.88299  0.60251  0.75109  1.0000
  C   C521      1.0  0.89221  0.59406  0.76778  1.0000
  H   H527      1.0  0.65893  0.90296  0.72696  1.0000
  Fe  Fe92      1.0  0.56840  0.85218  0.68722  1.0000
  S   S181      1.0  0.55839  0.82851  0.72206  1.0000
  H   H528      1.0  0.55903  0.53256  0.66996  1.0000
  Fe  Fe93      1.0  0.56476  0.91704  0.70464  1.0000
  S   S182      1.0  0.55414  0.89819  0.74076  1.0000
  S   S183      1.0  0.57466  0.96812  0.69829  1.0000
  Fe  Fe94      1.0  0.58908  0.86308  0.73565  1.0000
  S   S184      1.0  0.62463  0.84792  0.76106  1.0000
  Fe  Fe95      1.0  0.52442  0.86599  0.72364  1.0000
  S   S185      1.0  0.60208  0.88394  0.70069  1.0000
  H   H529      1.0  0.91913  0.50665  0.78250  1.0000
  S   S186      1.0  0.68004  0.94582  0.82255  1.0000
  C   C522      1.0  0.54521  0.99388  0.70114  1.0000
  H   H530      1.0  0.81441  0.99105  0.87406  1.0000
  N   N43       1.0  0.64912  0.75281  0.67614  1.0000
  C   C523      1.0  0.78463  0.60075  0.65680  1.0000
  H   H531      1.0  0.55267  0.72101  0.68953  1.0000
  S   S187      1.0  0.96944  0.65105  0.80055  1.0000
  H   H532      1.0  0.58042  0.99498  0.83491  1.0000
  C   C524      1.0  0.77038  0.99978  0.88568  1.0000
  C   C525      1.0  0.73111  0.98234  0.86311  1.0000
  C   C526      1.0  0.56523  0.76716  0.67575  1.0000
  C   C527      1.0  0.56301  0.73476  0.67534  1.0000
  H   H533      1.0  0.75789  0.63829  0.66707  1.0000
  S   S188      1.0  0.90220  0.57379  0.65703  1.0000
  S   S189      1.0  0.57161  0.67920  0.65716  1.0000
  H   H534      1.0  0.55650  0.77821  0.69014  1.0000
  C   C528      1.0  0.99270  0.52617  0.83798  1.0000
  C   C529      1.0  0.75888  0.61895  0.65660  1.0000
  H   H535      1.0  0.56797  0.98781  0.77128  1.0000
  C   C530      1.0  0.63749  0.87536  0.77912  1.0000
  C   C531      1.0  0.62553  0.90538  0.77845  1.0000
  C   C532      1.0  0.63786  0.92721  0.79218  1.0000
  C   C533      1.0  0.66214  0.91895  0.80649  1.0000
  C   C534      1.0  0.67348  0.88879  0.80747  1.0000
  C   C535      1.0  0.66123  0.86711  0.79384  1.0000
  H   H536      1.0  0.60726  0.91194  0.76705  1.0000
  H   H537      1.0  0.62886  0.95040  0.79147  1.0000
  H   H538      1.0  0.69210  0.88222  0.81858  1.0000
  H   H539      1.0  0.67045  0.84393  0.79450  1.0000
  H   H540      1.0  0.71505  0.99179  0.91167  1.0000
  C   C536      1.0  0.78125  0.97332  0.85207  1.0000
  N   N44       1.0  0.65488  0.98109  0.72770  1.0000
  H   H541      1.0  0.98092  0.66598  0.70295  1.0000
  C   C537      1.0  0.68470  0.92979  0.74903  1.0000
  C   C538      1.0  0.55757  0.00043  0.83096  1.0000
  H   H542      1.0  0.50473  0.98140  0.89052  1.0000
  C   C539      1.0  0.66405  0.92604  0.73169  1.0000
  C   C540      1.0  0.54467  0.98250  0.77116  1.0000
  H   H543      1.0  0.95083  0.52118  0.79675  1.0000
  C   C541      1.0  0.93529  0.63794  0.72839  1.0000
  C   C542      1.0  0.93018  0.66559  0.73835  1.0000
  C   C543      1.0  0.94148  0.66964  0.76026  1.0000
  C   C544      1.0  0.95889  0.64655  0.77205  1.0000
  C   C545      1.0  0.96500  0.61918  0.76182  1.0000
  C   C546      1.0  0.95296  0.61475  0.74001  1.0000
  H   H544      1.0  0.97814  0.60110  0.77106  1.0000
  C   C547      1.0  0.92640  0.52111  0.79626  1.0000
  N   N45       1.0  0.91506  0.55298  0.79245  1.0000
  H   H545      1.0  0.95750  0.59360  0.73215  1.0000
  C   C548      1.0  0.89476  0.61387  0.78524  1.0000
  C   C549      1.0  0.99817  0.63160  0.68248  1.0000
  H   H546      1.0  0.97124  0.53645  0.83498  1.0000
  H   H547      1.0  0.74314  0.95877  0.83350  1.0000
  C   C550      1.0  0.51625  0.98316  0.70298  1.0000
  H   H548      1.0  0.54241  0.95395  0.84119  1.0000
  H   H549      1.0  0.53533  0.59972  0.66898  1.0000
  H   H550      1.0  0.63282  0.94891  0.70798  1.0000
  C   C551      1.0  0.53602  0.97726  0.83459  1.0000
  H   H551      1.0  0.70528  0.96234  0.76988  1.0000
  H   H552      1.0  0.79702  0.96449  0.84040  1.0000
  S   S190      1.0  0.87587  0.50759  0.67939  1.0000
  C   C552      1.0  0.99897  0.65002  0.70098  1.0000
  H   H553      1.0  0.97949  0.63302  0.67066  1.0000
  C   C553      1.0  0.52120  0.50285  0.67036  1.0000
  C   C554      1.0  0.50621  0.98435  0.83040  1.0000
  S   S191      1.0  0.53188  0.88765  0.68756  1.0000
  H   H554      1.0  0.98731  0.52442  0.69446  1.0000
  C   C555      1.0  0.90288  0.56363  0.77161  1.0000
  N   N46       1.0  0.74087  0.99730  0.88138  1.0000
  H   H555      1.0  0.91686  0.68370  0.72931  1.0000
  H   H556      1.0  0.76386  0.53082  0.67916  1.0000
  H   H557      1.0  0.88765  0.63789  0.78220  1.0000
  C   C556      1.0  0.63624  0.69974  0.68760  1.0000
  C   C557      1.0  0.63398  0.73147  0.69030  1.0000
  N   N47       1.0  0.50522  0.94655  0.78009  1.0000
  C   C558      1.0  0.53559  0.53143  0.66643  1.0000
  C   C559      1.0  0.91775  0.57232  0.80962  1.0000
  C   C560      1.0  0.50456  0.80850  0.65333  1.0000
  H   H558      1.0  0.93653  0.69069  0.76819  1.0000
  C   C561      1.0  0.69007  0.95935  0.75581  1.0000
  H   H559      1.0  0.80329  0.60612  0.66734  1.0000
  H   H560      1.0  0.55044  0.93603  0.78719  1.0000
  C   C562      1.0  0.64915  0.95209  0.72121  1.0000
  H   H561      1.0  0.62765  0.79117  0.68999  1.0000
  H   H562      1.0  0.92793  0.56416  0.82598  1.0000
  H   H563      1.0  0.91100  0.61868  0.81958  1.0000
  H   H564      1.0  0.61947  0.73892  0.70343  1.0000
  C   C563      1.0  0.90777  0.60305  0.80625  1.0000
  H   H565      1.0  0.90162  0.54875  0.75772  1.0000
  C   C564      1.0  0.99160  0.51413  0.65916  1.0000
  C   C565      1.0  0.77987  0.52696  0.69371  1.0000
  C   C566      1.0  0.57809  0.78517  0.65729  1.0000
  C   C567      1.0  0.79101  0.98798  0.87105  1.0000
  C   C568      1.0  0.64686  0.78601  0.67922  1.0000
  H   H566      1.0  0.62335  0.68293  0.69822  1.0000
  C   C569      1.0  0.53462  0.95328  0.78012  1.0000
  C   C570      1.0  0.75111  0.97028  0.84811  1.0000
  C   C571      1.0  0.65459  0.68988  0.67064  1.0000
  H   H567      1.0  0.65652  0.66535  0.66831  1.0000
  Fe  Fe96      1.0  0.66698  0.99582  0.81628  1.0000
  H   H568      1.0  0.50081  0.89827  0.77696  1.0000
  S   S192      1.0  0.57967  0.82612  0.65635  1.0000
  H   H569      1.0  0.91838  0.50957  0.81292  1.0000
  N   N48       1.0  0.52065  0.55727  0.65724  1.0000
  C   C572      1.0  0.57435  0.72000  0.65682  1.0000
  H   H570      1.0  0.79611  0.54617  0.69198  1.0000
  H   H571      1.0  0.50605  0.90870  0.80619  1.0000
  H   H572      1.0  0.76750  0.52806  0.70998  1.0000
  H   H573      1.0  0.66711  0.79394  0.68764  1.0000
  H   H574      1.0  0.70773  0.97979  0.85989  1.0000
  H   H575      1.0  0.51174  0.95868  0.70267  1.0000
  H   H576      1.0  0.64355  0.79982  0.66228  1.0000
  C   C573      1.0  0.67486  0.98488  0.74490  1.0000
  C   C574      1.0  0.67033  0.71171  0.65655  1.0000
  C   C575      1.0  0.66725  0.74330  0.65950  1.0000
  C   C576      1.0  0.53611  0.58701  0.65329  1.0000
