data_image0
_chemical_formula_structural       FeC2H4C3HC4SCHCNCSCNS2H2SC3H3C2NHSHSCH2SCH2CHC4H2CHFe2HC2HCH3CH2SH2SH2CHS2HC3HCNS2H2SCH4C2FeCSHNH2C2SHC2HSFeH2C5HC2NC4HC3HCS2H6CHC2SNFeHSC3FeCSC3H3C2HCHCH2CHCSH2CHCHFeCH2CHSH2CH3Fe3HC2H2C3H3NH3SHC2HCHC7SH3SH3SCHCFe2H3C2SHC2SCHC2H2CHCNCHSC2HC2NH2NH2CHCSH2SCNC2HSC2HC2H2C3H3SHCSHCHCH2FeH4C4FeHSH2C2HCFeS3H2SHCFeSH2SC2FeS2FeS2FeSFeS3FeSH2CHNC2SFe2CSHNFeHC2H2NH2FeS2HCFeSH2CH2S2C2H2C2FeS2FeS2FeSFeS3HC6H3C6H4CH2CHSC7H4CSCFeHS2H6C3H4CHSH4CHC7H4C6H5CSC2H2C7H5C2HCHCH2C7H2CS2CHSFeH2CNC3H4C2HFeHFeH2NC6H2SHCH4CH6C7SCHC3FeCFeNC6H8SCHC4H2CFeCHCHC2HSFeS2CH5CH2CSCFeC2H3SH2SHCHFeHCH4SNCHC2HCNHSCH2S3CNC6H5C3NC4HCH3CFeHFe2NHSNH2CHC2H2SCHC2FeH2C2H2CSHCSC3NHCH2C4HS2H2SHCFeC5NHCSHSFeSH2SC2H2C2H2CHC3H2SH2CSHFeCHSH3C2HCNH2C2H2CFeH3C3HCHSHSCHFeSHCHFeH3NHCHC3HNSHFeS2FeS2FeSFeS3HNHS2CSHC2NCSHCHSH2CHCSHC7H2C6HCH2CH4C2H3FeC6H6CH5CNC6H2NHC3SCSH2C3HCH4CNSC2HC3HCHCH2NSC3H2SCH2SHFeCFeCH3C2H9Fe2CFeCH2CHCHCHC4H2C3SFeH2CFeSCH2CH3CSCHCHC2HCHC3HC2SCFeHC2H2C4H2FeH2CHC3FeSCHSHFeHNCHNHCNSHSC2H2CSHCH4FeCSC3FeS3C6HNHFeCFeC5H3CHCHCH2SCSC2H2SHSCSC2H5SC2H2SHSCH2C2H3NH2CH7CHSFeH2FeSHSHNCSC4H2FeC2H5FeCSFeCSFeSH2SH2CHSFeH3SCH2CSFeS2FeS2FeSFeS3C6H2CHCH4C6H4FeC5SH3C6H4C6H4CSC2HC2HCHC4NCH5C5HC2NCHC4H4SCH3NSCH2C2H3C3NHC5HC2H3CHCNH2C4S2C3NCHCH2CHFeH2N2CN2H2CHSCSC2H3SHCH2CH5CHC2H2C3SCH5SHFe2H3C2HC2H3C3HFeH2SFe2S2FeSHS3CFeNFeCSCHFeSHSHCSHCHCHC4HSH2FeCFeS2CH3FeCHCSHFe2HSCH3FeHC6H4C2HCS2H3SC6H6S2CHCSCHC3H2CH3C3N2HCHCHCHCH2SH2CNCH2C6H4C5SH6CH2C6H4FeC2SFeCHNC3H5CH2SH2S2H2CSCHSHNHS2C2NC2H3CSCH6NC6H2CH5CHSCSH3FeCH2CNC4HFe2C2H2SHC2HFeCH2CHC3HCHC2HCHNCS2H2C3SFeCHC2H2C2HSCHSCH2SC8HCHNHSC2HCHFeCH3SFeHSCFeC2H3NC2HSHFeSC3HC3HFeCHC4H2C4H2FeSH3CSHFeS2FeS2FeSFeS3FeHSFeSHFeSFeS2FeSCSCSHC2FeHSHS2CH2C2H2FeCHCHC2H2SHFeSCHCHCH4C3HCHC2HCHC4H2FeCHC6H4C6H4C6H4CHCHFeCHC4SH5NFeH4CNHC2HC3H2CH2CHCSH2C2FeHC2H2C3NC6H10FeH2NS2C2S2CHS2CH2FeHC2FeSC3SH5CHCSNH2NC2H3N2HC2FeCHC2SCH2C3SC4HCNH3NCHSHSHCSC2SCSHCFeCSHC3HSHSHCHCHC2H2FeCFeH2CH2SH2FeS2FeSFeS3H2CSH2CS2FeSFeS2FeSFeS3C4H3C3H2C2H3SHFeHC4HCSFeHC8H4C4H2C2SHC2HCH2FeHCNC6H8NC6H8CHSCHC6HC2SHFeHSC2HCHCSH2NC2SC3H3CHCH3CS2H2C4S2C2HNC6H4SH2C2HSC3H6CHC2H2SCHSFeCFe2C2H4FeCSCH3NCFeSCH2FeH2S2HCHFeHCFeHCHFeNHS3FeCHCNHCHS2H2SHCHSHSHCHCHCH4SCHC3HCSC2SH2CHCSC2Fe2H2CFeH2C3HNCHCSHCHSH2CHC3SCSFeHCFe2HSHCH2S2C2HSHC2NHC2HCHS2NH6CSCSNC4HCHFeCH5Fe2C2HCFeHSC2SCSNHCHC3H4C2HSC2HCHCHCH2CHCHCHFeHCNH2CSH2CSC5FeC3H2CH2CSHCHCHSH2CH2SH3C3NHC2H2S2CHFeC3HFeS2H2C3HFeC2FeS2FeSHCFeSHSFeS2FeS2FeSFeS3HFeSHSC2S2CFeSH2CS2CH3FeSCH2CH2SC6H2CH4FeC3SCHC6H4C6H4C2S2HC6H4C5H6SC3HSNC2HC5SHCS2CSHC4H4CFeH2C6S2H2C2HCFe2CH2CSH4FeH2C3H4NCHNC2H5SCHNCH2SCH2CFeCHSNC6HCH5C2HC2H2FeC2NCH2CHC2HCH2SHC4HCHCH3FeC2HNH2C3HSCFeC2H2CHCHCH2CFeSHSH2FeSH2SH4NH2C3H2SCHCHSNCFeS2FeSFeSHSNCHFeHSCSNS2FeS2FeS2Fe2S3FeHSFeS2FeS2Fe2S5NFeHNH2CNS2CHCH2SCHCHC2H2C3FeC2H2CSC4H3C10H4C6H4FeCH2NHCH3C7H3CHC5FeSC7H4C3H2CH2CHS2CH2C3H3CH3SC3HSH3NC6H8C2SH2SCHSH2SC2H4C5HC2HFeHCHFeH2FeHNFeH2SH2CH2FeHSFeH2CHCNC6H8S2CHFeH2CHC2HCH2C3H5C2SH2C2H2C5SH2CFe2SHFeCSHC2S2HCFeNCSC2H3SCFeS2HSFeSCSHFeHNC2H2S2CFeSFeSC6H5CFeSHFeSCHC8H4C3HC2H5CHCSNCSHCH3SHC2HCHCHCHC3HNHNCHS2C2HFeCFeSCHC4SHCHSC3HNHC2HCFe2CSHCSH3CHNC6H3CH7C2NHCHC2SCHC2NSH2SC2HSC3HSCHC2FeCHCHS2H6SHCHCHNHCS2CH3FeCHCH4C3H2CH3CSHNH2NCH2SC3HC3NSC2HSCH3CFeHSCH2C2HC4HS2CSHSCH2SCH6C2H2C2FeH2CSFeH2CSHSCHFeNFeHCH3FeHFeSHCHSC2HS2FeCSHSFe2HC2NH2C2HC2HCHCH2C2FeHC2H10C3HC4SH2SCHC2H2C2HCFeC3SFeHSCFe3CSC2FeCHC2NH2CFeCH2CHC3FeCH2CSFeS2FeS2CHFeS3NCSHCH2CNH6CFeS2FeS2FeSFeS3FeC2FeS2FeHFeS2CH3CSH5NH2SHCHC3HC6H3C6H5CHCSHC2HSH2C3NC6H4CH2FeH2NC3HCFeC6HFeCHC6H5CSHCNHSHC4HCH3CHSNC6H8FeHCHSCSCHC3HNC5H8SH3CHCHFeNCHCHSHCH2FeCHFeHC2H2C3HSH2SC2HC2SCHC2HCHCHCH3CHFeCSFeS3Fe3S2FeSFeS3CSHCHC2HSFeHCH2C2HSH2C2SCHCHSHFeSHCSCH2FeC2HS2FeH4CH8C3HC3HNCSH2SC2HSHCH2C3H2CHC4SCH4C4H2C6H5Fe2NHSCH4SHCFe2CHNC6H5CH2C4H2SFeHC2SH3CFeHC3HCSC2SHC3FeHC2NHC6H5SCHSC4SCS2HC3HCH4SC4H2C3SFeCNCHCHSH2C2NCHFeCHCNSC4HC2SCHCHCNH7C2HSH2C2SHCNH2CH5CNHC2HS2C2HCHCHCHCSCHCHSH3CHC2HSH5FeSCFeS2FeSFeS3CFeS2FeS2FeSFeS4C6H5C2NH2C6H4FeSC2HC11H3CH6SC2SC3HC6H3CHC2H3CHCFeCHCNCHSCHCHC2HFeSHC2HCFeC2HSNCFeHCSH2SNFeH2FeCH3C5SCHC3H5CSH2CHCH3SHC2HNCHFeNC2H4CHCHSC2NC2HCNCSCSFeCSCSHCSNH3CFeCH3CH2CH2C2HCH2SCH4SH2FeCSH2CH3CHNH2C2SC4HS2FeC3SH2CHC2SH2NFeCH5C2HC2S2HCHSCSCHSH4CNH2CH2C3NFeCSCHCHSC2H2NHCSCHC3HCS2CHC2HC4H3SH2SH2FeS2Fe2S3FeS2FeSFe2S3C6H5C2HCH2C2FeC6H4C2HC5HC3S2C6H4CHCH2CNSH2C2HCHCH2C2H2CFeCHCH3C2NC2HCNHC2NCHCHNH2CHCHC2H3C3H2C2H4NC6H8S2HSH2FeH4FeC2HCNC2SHCSCH5C2FeHFe2CH3CSC2HCHCH4CH4C3H3SCS2FeSH5FeS2FeS2FeSFeS4C6H4CHFeCHNC7H4CHFeNSCFeSHCNCFeHC4H2CHSC2H3C2HCSHCSNH3C3HC3HCNCSHS2C3FeHNFeCSH3SCSCH2C3SC3H2C2HC4H2C2H2C4HC2SC3HSH4C2H2SC2NCS2H4C2H2NHCFeHFe2SC6HC2SHNH2CHCFeCNFeCHCH4C2SH2S2H3C2SCHS2H2FeS2FeHCSCH2C2NH2CH2C3HCHCNH2C2H2SH4CSH4C3HCH4CS2C2HCHSH3CSC2NCHFeH2CH3S2H3CHFeHNHC2HCSCSCHC2SC3FeCFeHCHCHCHC2H2CH2C2H2FeCHFeSH3CHSFeCFeH4CFeSNCH2FeHSHSH2CH2CFeC2HC2HCH2SCHC2H2FeSHC2SHCSH2FeCSFeHSH4S2CFeS2FeS2FeSFeS3FeS2FeS2FeSFeCS3H4C2HSC2HCHC2HC2HC5HCHS2H2CHC4SHC2HCH2C3HCH3CH3C3H2C6H4CH3C4H2CHCHCHC8H5CHC2NC6H10SHC2H4CH2CH2SH2CHCHC2HSHSNCHCHCFeC2H6FeHCH2NC6H8CFeC3H2NCFeCH2C2HC2FeHNC2HS2H3CHNC4HCHC2H2CSHFeHSHCHCSCN2FeC2HC2H3CFeSHSC3H2NC4H2CFeCH2CH2SC2S2CHNH4SC4H7C2SC2FeCSC3H4FeS2FeS2FeSFeS2HC2HNHSC2HCFeCHC2H2C8H2NHNHCHC3FeSHNH2C6H4C6H6NHSHCH2CHC2HC2HCHCFeH3CHC3HC2H2C5SH3SC2SH2C2H4SHC2H2C3NHC2HCH2CHC3H3C2H4C2FeH4CHSCH2S
_chemical_formula_sum              "Fe384 C2304 H2304 S768 N192"
_cell_length_a       80.0461
_cell_length_b       80.7862
_cell_length_c       81.2061
_cell_angle_alpha    73.7263
_cell_angle_beta     73.6517
_cell_angle_gamma    73.67

_space_group_name_H-M_alt    "P 1"
_space_group_IT_number       1

loop_
  _space_group_symop_operation_xyz
  'x, y, z'

loop_
  _atom_site_type_symbol
  _atom_site_label
  _atom_site_symmetry_multiplicity
  _atom_site_fract_x
  _atom_site_fract_y
  _atom_site_fract_z
  _atom_site_occupancy
  Fe  Fe1       1.0  0.24058  0.09596  0.00018  1.0000
  C   C1        1.0  0.02211  0.05403  0.27536  1.0000
  C   C2        1.0  0.42983  0.12061  0.98184  1.0000
  H   H1        1.0  0.22034  0.06858  0.02512  1.0000
  H   H2        1.0  0.28152  0.99821  0.16312  1.0000
  H   H3        1.0  0.47212  0.07456  0.02669  1.0000
  H   H4        1.0  0.06556  0.03249  0.27071  1.0000
  C   C3        1.0  0.00966  0.16274  0.17570  1.0000
  C   C4        1.0  0.47031  0.03852  0.04733  1.0000
  C   C5        1.0  0.25779  0.02121  0.02159  1.0000
  H   H5        1.0  0.38629  0.06148  0.06311  1.0000
  C   C6        1.0  0.26647  0.04586  0.99802  1.0000
  C   C7        1.0  0.06172  0.05494  0.22900  1.0000
  C   C8        1.0  0.03448  0.07780  0.23247  1.0000
  C   C9        1.0  0.05612  0.23088  0.06684  1.0000
  S   S1        1.0  0.08533  0.23248  0.03958  1.0000
  C   C10       1.0  0.03726  0.04051  0.27278  1.0000
  H   H6        1.0  0.33033  0.09170  0.03310  1.0000
  C   C11       1.0  0.12244  0.17393  0.02820  1.0000
  N   N1        1.0  0.25463  0.03355  0.00671  1.0000
  C   C12       1.0  0.29234  0.99346  0.15292  1.0000
  S   S2        1.0  0.15181  0.01008  0.21217  1.0000
  C   C13       1.0  0.30821  0.08703  0.02631  1.0000
  N   N2        1.0  0.46074  0.05204  0.03689  1.0000
  S   S3        1.0  0.26862  0.00743  0.13168  1.0000
  S   S4        1.0  0.36388  0.99057  0.09710  1.0000
  H   H7        1.0  0.36182  0.02453  0.04027  1.0000
  H   H8        1.0  0.11298  0.16570  0.03068  1.0000
  S   S5        1.0  0.10461  0.02418  0.23958  1.0000
  C   C14       1.0  0.31193  0.11603  0.02494  1.0000
  C   C15       1.0  0.22057  0.04515  0.04589  1.0000
  C   C16       1.0  0.44307  0.02998  0.06514  1.0000
  H   H9        1.0  0.05692  0.23055  0.02483  1.0000
  H   H10       1.0  0.41898  0.04641  0.05752  1.0000
  H   H11       1.0  0.29155  0.13773  0.01609  1.0000
  C   C17       1.0  0.29232  0.09488  0.02054  1.0000
  C   C18       1.0  0.02504  0.16169  0.19775  1.0000
  N   N3        1.0  0.14651  0.19539  0.02094  1.0000
  H   H12       1.0  0.30793  0.04223  0.08102  1.0000
  S   S6        1.0  0.09329  0.01854  0.29042  1.0000
  H   H13       1.0  0.20956  0.04183  0.04320  1.0000
  S   S7        1.0  0.10040  0.21855  0.99307  1.0000
  C   C19       1.0  0.37252  0.06099  0.04402  1.0000
  H   H14       1.0  0.37124  0.07493  0.03828  1.0000
  H   H15       1.0  0.07529  0.05645  0.28835  1.0000
  S   S8        1.0  0.22145  0.01462  0.07122  1.0000
  C   C20       1.0  0.33295  0.03836  0.08818  1.0000
  H   H16       1.0  0.45533  0.99877  0.10012  1.0000
  H   H17       1.0  0.20043  0.99942  0.16138  1.0000
  C   C21       1.0  0.14057  0.16758  0.02176  1.0000
  H   H18       1.0  0.07587  0.05069  0.22826  1.0000
  C   C22       1.0  0.01089  0.13818  0.19998  1.0000
  C   C23       1.0  0.10196  0.01904  0.18551  1.0000
  C   C24       1.0  0.37625  0.02485  0.05892  1.0000
  C   C25       1.0  0.05177  0.23043  0.03869  1.0000
  H   H19       1.0  0.10245  0.19606  0.03643  1.0000
  H   H20       1.0  0.14734  0.03211  0.17400  1.0000
  C   C26       1.0  0.28924  0.99499  0.13640  1.0000
  H   H21       1.0  0.02534  0.22881  0.03857  1.0000
  Fe  Fe2       1.0  0.12720  0.00228  0.23108  1.0000
  Fe  Fe3       1.0  0.36483  0.08387  0.00451  1.0000
  H   H22       1.0  0.35543  0.01126  0.12926  1.0000
  C   C27       1.0  0.07284  0.06119  0.27481  1.0000
  C   C28       1.0  0.13441  0.02883  0.17690  1.0000
  H   H23       1.0  0.03239  0.16765  0.20301  1.0000
  C   C29       1.0  0.12218  0.05104  0.19491  1.0000
  H   H24       1.0  0.18296  0.01511  0.18519  1.0000
  H   H25       1.0  0.03314  0.22993  0.08842  1.0000
  H   H26       1.0  0.31949  0.11401  0.98388  1.0000
  C   C30       1.0  0.06294  0.23104  0.04890  1.0000
  H   H27       1.0  0.17122  0.20276  0.00702  1.0000
  H   H28       1.0  0.26896  0.13473  0.00392  1.0000
  S   S9        1.0  0.23165  0.12536  0.99089  1.0000
  H   H29       1.0  0.48475  0.03641  0.04465  1.0000
  H   H30       1.0  0.29185  0.03231  0.11183  1.0000
  S   S10       1.0  0.33102  0.14496  0.98505  1.0000
  H   H31       1.0  0.28474  0.08648  0.01888  1.0000
  H   H32       1.0  0.48340  0.05631  0.01617  1.0000
  C   C31       1.0  0.10132  0.00560  0.30908  1.0000
  H   H33       1.0  0.35587  0.03276  0.09926  1.0000
  S   S11       1.0  0.41006  0.10888  0.01464  1.0000
  S   S12       1.0  0.49312  0.98864  0.09666  1.0000
  H   H34       1.0  0.31968  0.12451  0.02621  1.0000
  C   C32       1.0  0.05227  0.04368  0.22710  1.0000
  C   C33       1.0  0.24088  0.06471  0.03900  1.0000
  C   C34       1.0  0.12883  0.20155  0.02771  1.0000
  H   H35       1.0  0.25968  0.05737  0.05569  1.0000
  C   C35       1.0  0.01956  0.17037  0.18205  1.0000
  N   N4        1.0  0.05536  0.05876  0.27486  1.0000
  S   S13       1.0  0.02396  0.09915  0.23599  1.0000
  S   S14       1.0  0.18409  0.13088  0.97961  1.0000
  H   H36       1.0  0.08920  0.01521  0.18927  1.0000
  H   H37       1.0  0.31306  0.07278  0.02886  1.0000
  S   S15       1.0  0.22436  0.00612  0.12112  1.0000
  C   C36       1.0  0.16447  0.99786  0.19611  1.0000
  H   H38       1.0  0.03626  0.02826  0.27046  1.0000
  H   H39       1.0  0.02652  0.04096  0.22623  1.0000
  H   H40       1.0  0.06471  0.23137  0.07480  1.0000
  H   H41       1.0  0.43483  0.06625  0.03268  1.0000
  C   C37       1.0  0.30950  0.98631  0.15618  1.0000
  C   C38       1.0  0.26962  0.12074  0.01116  1.0000
  Fe  Fe4       1.0  0.23253  0.99849  0.09497  1.0000
  C   C39       1.0  0.29597  0.12344  0.01919  1.0000
  S   S16       1.0  0.22085  0.08915  0.98975  1.0000
  H   H42       1.0  0.09260  0.03906  0.20060  1.0000
  N   N5        1.0  0.28647  0.11287  0.01692  1.0000
  H   H43       1.0  0.16323  0.20610  0.02935  1.0000
  H   H44       1.0  0.08371  0.05350  0.26611  1.0000
  C   C40       1.0  0.11656  0.01029  0.17465  1.0000
  C   C41       1.0  0.44611  0.10673  0.00494  1.0000
  S   S17       1.0  0.06325  0.02237  0.22350  1.0000
  H   H45       1.0  0.44615  0.10080  0.01863  1.0000
  C   C42       1.0  0.31515  0.02712  0.12246  1.0000
  C   C43       1.0  0.31799  0.09770  0.02861  1.0000
  H   H46       1.0  0.14881  0.15277  0.98048  1.0000
  S   S18       1.0  0.00446  0.22854  0.07374  1.0000
  Fe  Fe5       1.0  0.38956  0.99815  0.09442  1.0000
  H   H47       1.0  0.46254  0.06945  0.01148  1.0000
  H   H48       1.0  0.10917  0.05987  0.19928  1.0000
  C   C44       1.0  0.31491  0.03815  0.09166  1.0000
  C   C45       1.0  0.03388  0.04958  0.22779  1.0000
  C   C46       1.0  0.24879  0.05396  0.05289  1.0000
  C   C47       1.0  0.02494  0.06655  0.23068  1.0000
  C   C48       1.0  0.30589  0.03262  0.10892  1.0000
  H   H49       1.0  0.30802  0.02276  0.13581  1.0000
  C   C49       1.0  0.05288  0.07199  0.23150  1.0000
  C   C50       1.0  0.36530  0.05068  0.03778  1.0000
  N   N6        1.0  0.12002  0.03738  0.18749  1.0000
  C   C51       1.0  0.10396  0.03257  0.19192  1.0000
  C   C52       1.0  0.22798  0.02405  0.00914  1.0000
  C   C53       1.0  0.38117  0.05334  0.05803  1.0000
  C   C54       1.0  0.23127  0.01124  0.02417  1.0000
  H   H50       1.0  0.33502  0.01351  0.14531  1.0000
  C   C55       1.0  0.46165  0.02721  0.06155  1.0000
  C   C56       1.0  0.24634  0.00969  0.03036  1.0000
  C   C57       1.0  0.02082  0.14541  0.20672  1.0000
  H   H51       1.0  0.46933  0.01640  0.06971  1.0000
  C   C58       1.0  0.38303  0.03526  0.06549  1.0000
  S   S19       1.0  0.36040  0.10814  0.01472  1.0000
  S   S20       1.0  0.08309  0.99316  0.26323  1.0000
  H   H52       1.0  0.25820  0.12004  0.02272  1.0000
  H   H53       1.0  0.24861  0.00021  0.04242  1.0000
  H   H54       1.0  0.14536  0.15442  0.01906  1.0000
  H   H55       1.0  0.34011  0.04273  0.07483  1.0000
  H   H56       1.0  0.00766  0.12553  0.20708  1.0000
  H   H57       1.0  0.23712  0.04530  0.98898  1.0000
  C   C59       1.0  0.03389  0.22945  0.04648  1.0000
  H   H58       1.0  0.12408  0.21480  0.03017  1.0000
  C   C60       1.0  0.11652  0.19096  0.03136  1.0000
  C   C61       1.0  0.46222  0.10852  0.99270  1.0000
  S   S21       1.0  0.39322  0.02591  0.08345  1.0000
  N   N7        1.0  0.33297  0.02685  0.11887  1.0000
  Fe  Fe6       1.0  0.08710  0.00911  0.23559  1.0000
  H   H59       1.0  0.26694  0.05005  0.98366  1.0000
  S   S22       1.0  0.39408  0.08209  0.99380  1.0000
  C   C62       1.0  0.11693  0.99237  0.30760  1.0000
  C   C63       1.0  0.34181  0.03270  0.10205  1.0000
  C   C64       1.0  0.22860  0.03427  0.05962  1.0000
  Fe  Fe7       1.0  0.38918  0.10780  0.00155  1.0000
  C   C65       1.0  0.34269  0.02073  0.13307  1.0000
  S   S23       1.0  0.35389  0.06037  0.02075  1.0000
  C   C66       1.0  0.15251  0.17851  0.01832  1.0000
  C   C67       1.0  0.44250  0.05516  0.04061  1.0000
  C   C68       1.0  0.43342  0.04408  0.05469  1.0000
  H   H60       1.0  0.07370  0.07528  0.26992  1.0000
  H   H61       1.0  0.11528  0.99959  0.16980  1.0000
  H   H62       1.0  0.49078  0.00302  0.14490  1.0000
  C   C69       1.0  0.36714  0.03261  0.04526  1.0000
  C   C70       1.0  0.02372  0.06980  0.27799  1.0000
  H   H63       1.0  0.15313  0.22065  0.01157  1.0000
  C   C71       1.0  0.22674  0.06026  0.03556  1.0000
  H   H64       1.0  0.47471  0.10387  0.99693  1.0000
  C   C72       1.0  0.47009  0.06369  0.02209  1.0000
  H   H65       1.0  0.02234  0.18327  0.17514  1.0000
  H   H66       1.0  0.06030  0.08069  0.23281  1.0000
  C   C73       1.0  0.24271  0.03872  0.06315  1.0000
  H   H67       1.0  0.04163  0.08438  0.27952  1.0000
  C   C74       1.0  0.13292  0.01519  0.17030  1.0000
  S   S24       1.0  0.24916  0.08338  0.02591  1.0000
  H   H68       1.0  0.16654  0.17356  0.01300  1.0000
  H   H69       1.0  0.02502  0.13844  0.21893  1.0000
  C   C75       1.0  0.05385  0.04305  0.27276  1.0000
  H   H70       1.0  0.34564  0.03211  0.13597  1.0000
  C   C76       1.0  0.04052  0.07196  0.27771  1.0000
  H   H71       1.0  0.24896  0.03040  0.07375  1.0000
  Fe  Fe8       1.0  0.25316  0.99389  0.12232  1.0000
  C   C77       1.0  0.42992  0.11246  0.99946  1.0000
  H   H72       1.0  0.13092  0.05939  0.18502  1.0000
  H   H73       1.0  0.26897  0.02047  0.02702  1.0000
  C   C78       1.0  0.03820  0.23018  0.07456  1.0000
  H   H74       1.0  0.37814  0.01079  0.06420  1.0000
  S   S25       1.0  0.26166  0.98836  0.09524  1.0000
  H   H75       1.0  0.00501  0.16988  0.16377  1.0000
  H   H76       1.0  0.21616  0.02556  0.00437  1.0000
  C   C79       1.0  0.15917  0.20673  0.01717  1.0000
  H   H77       1.0  0.01211  0.08049  0.27982  1.0000
  H   H78       1.0  0.01073  0.07096  0.23136  1.0000
  H   H79       1.0  0.26817  0.11347  0.00206  1.0000
  Fe  Fe9       1.0  0.12587  0.22825  0.98089  1.0000
  Fe  Fe10      1.0  0.35460  0.12231  0.98825  1.0000
  Fe  Fe11      1.0  0.10238  0.00669  0.26658  1.0000
  H   H80       1.0  0.43608  0.02131  0.07606  1.0000
  C   C80       1.0  0.17917  0.00369  0.18407  1.0000
  C   C81       1.0  0.18907  0.99484  0.17056  1.0000
  H   H81       1.0  0.28035  0.03968  0.99964  1.0000
  H   H82       1.0  0.14454  0.00819  0.16225  1.0000
  C   C82       1.0  0.23987  0.03520  0.00053  1.0000
  C   C83       1.0  0.30338  0.98905  0.12316  1.0000
  C   C84       1.0  0.02704  0.22938  0.06442  1.0000
  H   H83       1.0  0.12846  0.04468  0.20640  1.0000
  H   H84       1.0  0.00371  0.13022  0.16964  1.0000
  H   H85       1.0  0.30111  0.99058  0.11024  1.0000
  N   N8        1.0  0.00514  0.14703  0.18486  1.0000
  H   H86       1.0  0.00921  0.05241  0.27505  1.0000
  H   H87       1.0  0.26155  0.05774  0.00380  1.0000
  H   H88       1.0  0.22191  0.00285  0.03137  1.0000
  S   S26       1.0  0.10981  0.98842  0.22490  1.0000
  H   H89       1.0  0.12445  0.99014  0.29479  1.0000
  C   C85       1.0  0.08661  0.01350  0.48479  1.0000
  C   C86       1.0  0.04453  0.03826  0.48785  1.0000
  H   H90       1.0  0.02400  0.13828  0.43605  1.0000
  C   C87       1.0  0.01957  0.12674  0.44480  1.0000
  H   H91       1.0  0.05524  0.07131  0.49612  1.0000
  C   C88       1.0  0.05934  0.05723  0.49517  1.0000
  C   C89       1.0  0.09785  0.99829  0.34087  1.0000
  C   C90       1.0  0.08745  0.99520  0.62176  1.0000
  C   C91       1.0  0.03369  0.06764  0.61553  1.0000
  C   C92       1.0  0.00830  0.01779  0.40635  1.0000
  C   C93       1.0  0.09182  0.00858  0.32573  1.0000
  C   C94       1.0  0.02883  0.04631  0.37183  1.0000
  S   S27       1.0  0.08382  0.01479  0.50677  1.0000
  H   H92       1.0  0.05638  0.04917  0.50877  1.0000
  H   H93       1.0  0.01771  0.02266  0.51662  1.0000
  H   H94       1.0  0.01859  0.01745  0.45036  1.0000
  S   S28       1.0  0.01458  0.05444  0.52841  1.0000
  H   H95       1.0  0.04720  0.02834  0.49952  1.0000
  H   H96       1.0  0.03572  0.07304  0.44590  1.0000
  H   H97       1.0  0.05153  0.07839  0.46545  1.0000
  S   S29       1.0  0.03651  0.99080  0.39910  1.0000
  C   C95       1.0  0.03219  0.04751  0.46196  1.0000
  H   H98       1.0  0.00315  0.09353  0.56957  1.0000
  C   C96       1.0  0.04720  0.06605  0.46870  1.0000
  Fe  Fe12      1.0  0.07933  0.99053  0.52770  1.0000
  Fe  Fe13      1.0  0.00558  0.08266  0.51473  1.0000
  H   H99       1.0  0.03169  0.12692  0.46528  1.0000
  H   H100      1.0  0.05666  0.08603  0.37852  1.0000
  H   H101      1.0  0.02814  0.07746  0.60511  1.0000
  C   C97       1.0  0.08054  0.99313  0.59513  1.0000
  C   C98       1.0  0.09202  0.01240  0.44926  1.0000
  S   S30       1.0  0.00302  0.08769  0.35501  1.0000
  H   H102      1.0  0.13145  0.98994  0.48312  1.0000
  C   C99       1.0  0.05469  0.07260  0.38233  1.0000
  C   C100      1.0  0.02232  0.00500  0.41251  1.0000
  S   S31       1.0  0.08359  0.99993  0.39110  1.0000
  C   C101      1.0  0.09811  0.02478  0.45382  1.0000
  H   H103      1.0  0.01534  0.01865  0.59688  1.0000
  C   C102      1.0  0.09549  0.02527  0.47146  1.0000
  C   C103      1.0  0.00409  0.10321  0.45083  1.0000
  H   H104      1.0  0.03704  0.07763  0.36500  1.0000
  H   H105      1.0  0.07159  0.06359  0.40109  1.0000
  C   C104      1.0  0.05994  0.04299  0.40009  1.0000
  H   H106      1.0  0.04654  0.02534  0.39616  1.0000
  C   C105      1.0  0.99957  0.07178  0.59172  1.0000
  N   N9        1.0  0.04993  0.05384  0.48377  1.0000
  C   C106      1.0  0.05226  0.03939  0.62570  1.0000
  H   H107      1.0  0.02485  0.04528  0.45368  1.0000
  S   S32       1.0  0.00854  0.05547  0.57919  1.0000
  C   C107      1.0  0.02318  0.00642  0.59229  1.0000
  C   C108      1.0  0.02586  0.00475  0.42851  1.0000
  H   H108      1.0  0.07973  0.01879  0.32694  1.0000
  C   C109      1.0  0.00783  0.09719  0.46768  1.0000
  C   C110      1.0  0.01363  0.01055  0.51829  1.0000
  N   N10       1.0  0.01341  0.00066  0.58289  1.0000
  H   H109      1.0  0.03171  0.03183  0.37269  1.0000
  H   H110      1.0  0.02035  0.08301  0.63523  1.0000
  N   N11       1.0  0.04766  0.04243  0.64233  1.0000
  H   H111      1.0  0.06629  0.03314  0.40998  1.0000
  H   H112      1.0  0.07225  0.99291  0.49039  1.0000
  C   C111      1.0  0.04366  0.06775  0.37467  1.0000
  H   H113      1.0  0.03087  0.02270  0.48058  1.0000
  C   C112      1.0  0.00969  0.11820  0.43947  1.0000
  S   S33       1.0  0.02366  0.09799  0.49339  1.0000
  H   H114      1.0  0.04862  0.04930  0.59898  1.0000
  H   H115      1.0  0.00536  0.01788  0.39410  1.0000
  S   S34       1.0  0.09684  0.00549  0.63226  1.0000
  C   C113      1.0  0.02615  0.99442  0.51949  1.0000
  N   N12       1.0  0.04095  0.05091  0.37955  1.0000
  C   C114      1.0  0.06293  0.06008  0.39507  1.0000
  C   C115      1.0  0.04878  0.03864  0.39220  1.0000
  H   H116      1.0  0.09038  0.00058  0.35365  1.0000
  S   S35       1.0  0.00392  0.12701  0.41894  1.0000
  C   C116      1.0  0.02384  0.12036  0.46135  1.0000
  C   C117      1.0  0.03545  0.03492  0.47711  1.0000
  H   H117      1.0  0.10068  0.03464  0.47477  1.0000
  C   C118      1.0  0.01575  0.01761  0.43806  1.0000
  C   C119      1.0  0.08270  0.00081  0.46250  1.0000
  H   H118      1.0  0.01481  0.05064  0.37883  1.0000
  H   H119      1.0  0.07395  0.05388  0.48990  1.0000
  C   C120      1.0  0.04519  0.05184  0.61210  1.0000
  C   C121      1.0  0.01783  0.10572  0.47289  1.0000
  C   C122      1.0  0.07988  0.00147  0.48028  1.0000
  H   H120      1.0  0.02610  0.99614  0.60411  1.0000
  H   H121      1.0  0.10529  0.03378  0.44365  1.0000
  H   H122      1.0  0.09602  0.01078  0.59594  1.0000
  S   S36       1.0  0.09736  0.01153  0.42693  1.0000
  H   H123      1.0  0.07774  0.99138  0.45906  1.0000
  C   C123      1.0  0.03828  0.06309  0.45759  1.0000
  S   S37       1.0  0.00760  0.08492  0.40311  1.0000
  H   H124      1.0  0.03007  0.05300  0.35771  1.0000
  C   C124      1.0  0.02928  0.07075  0.63244  1.0000
  H   H125      1.0  0.13123  0.99653  0.45131  1.0000
  C   C125      1.0  0.08870  0.00070  0.60354  1.0000
  H   H126      1.0  0.00348  0.08562  0.47638  1.0000
  H   H127      1.0  0.06147  0.02729  0.62288  1.0000
  Fe  Fe14      1.0  0.00032  0.06432  0.55317  1.0000
  H   H128      1.0  0.00860  0.08734  0.31848  1.0000
  H   H129      1.0  0.03602  0.00901  0.58348  1.0000
  H   H130      1.0  0.03635  0.99470  0.43354  1.0000
  H   H131      1.0  0.04002  0.99426  0.51786  1.0000
  C   C126      1.0  0.00243  0.03102  0.43134  1.0000
  C   C127      1.0  0.99820  0.08966  0.58355  1.0000
  C   C128      1.0  0.00144  0.01287  0.57399  1.0000
  C   C129      1.0  0.99857  0.03099  0.41560  1.0000
  Fe  Fe15      1.0  0.09184  0.99069  0.41701  1.0000
  H   H132      1.0  0.08156  0.99739  0.58108  1.0000
  S   S38       1.0  0.05305  0.98869  0.54657  1.0000
  H   H133      1.0  0.99682  0.09628  0.44674  1.0000
  H   H134      1.0  0.99891  0.02674  0.57408  1.0000
  C   C130      1.0  0.99648  0.09704  0.32171  1.0000
  C   C131      1.0  0.43818  0.05995  0.94975  1.0000
  H   H135      1.0  0.27572  0.10850  0.93401  1.0000
  C   C132      1.0  0.05744  0.16906  0.84880  1.0000
  Fe  Fe16      1.0  0.32460  0.01429  0.80034  1.0000
  S   S39       1.0  0.31486  0.01824  0.82794  1.0000
  S   S40       1.0  0.30957  0.00270  0.78867  1.0000
  S   S41       1.0  0.15471  0.21334  0.97512  1.0000
  H   H136      1.0  0.06300  0.06455  0.67948  1.0000
  H   H137      1.0  0.34602  0.06629  0.77660  1.0000
  S   S42       1.0  0.47419  0.06462  0.82162  1.0000
  H   H138      1.0  0.01968  0.14955  0.83697  1.0000
  C   C133      1.0  0.15395  0.02680  0.68558  1.0000
  Fe  Fe17      1.0  0.21348  0.11844  0.97839  1.0000
  S   S43       1.0  0.33701  0.01391  0.75081  1.0000
  H   H139      1.0  0.30165  0.01552  0.73911  1.0000
  H   H140      1.0  0.40969  0.04146  0.74071  1.0000
  S   S44       1.0  0.15948  0.00265  0.75229  1.0000
  C   C134      1.0  0.16251  0.19055  0.97547  1.0000
  C   C135      1.0  0.35619  0.06656  0.78291  1.0000
  Fe  Fe18      1.0  0.37268  0.04707  0.86472  1.0000
  S   S45       1.0  0.36309  0.07633  0.85542  1.0000
  S   S46       1.0  0.38189  0.02822  0.84680  1.0000
  Fe  Fe19      1.0  0.36972  0.04920  0.90179  1.0000
  S   S47       1.0  0.35992  0.07853  0.89605  1.0000
  S   S48       1.0  0.37216  0.03681  0.92950  1.0000
  Fe  Fe20      1.0  0.34287  0.07373  0.88109  1.0000
  S   S49       1.0  0.31410  0.08778  0.88658  1.0000
  Fe  Fe21      1.0  0.38101  0.07833  0.87129  1.0000
  S   S50       1.0  0.39869  0.09747  0.86419  1.0000
  S   S51       1.0  0.35078  0.04423  0.88904  1.0000
  S   S52       1.0  0.39244  0.04929  0.87823  1.0000
  Fe  Fe22      1.0  0.20455  0.99547  0.78767  1.0000
  S   S53       1.0  0.11244  0.22008  0.84894  1.0000
  H   H141      1.0  0.43259  0.04879  0.95093  1.0000
  H   H142      1.0  0.24459  0.01735  0.80169  1.0000
  C   C136      1.0  0.05442  0.05589  0.68798  1.0000
  H   H143      1.0  0.28357  0.02629  0.81100  1.0000
  N   N13       1.0  0.17588  0.16098  0.79814  1.0000
  C   C137      1.0  0.17609  0.15390  0.97776  1.0000
  C   C138      1.0  0.40353  0.99039  0.75022  1.0000
  S   S54       1.0  0.40225  0.09390  0.94312  1.0000
  Fe  Fe23      1.0  0.45833  0.01643  0.78231  1.0000
  Fe  Fe24      1.0  0.33661  0.99099  0.77397  1.0000
  C   C139      1.0  0.28729  0.01764  0.74153  1.0000
  S   S55       1.0  0.02708  0.08420  0.68219  1.0000
  H   H144      1.0  0.43907  0.00781  0.74304  1.0000
  N   N14       1.0  0.04016  0.16338  0.83192  1.0000
  Fe  Fe25      1.0  0.25212  0.12139  0.96612  1.0000
  H   H145      1.0  0.20104  0.14818  0.80489  1.0000
  C   C140      1.0  0.03646  0.05793  0.64576  1.0000
  C   C141      1.0  0.44833  0.06187  0.91791  1.0000
  H   H146      1.0  0.41742  0.12541  0.97757  1.0000
  H   H147      1.0  0.02378  0.02504  0.71903  1.0000
  N   N15       1.0  0.44616  0.06850  0.93361  1.0000
  H   H148      1.0  0.26188  0.06895  0.89796  1.0000
  H   H149      1.0  0.10709  0.04814  0.73058  1.0000
  Fe  Fe26      1.0  0.10533  0.20203  0.83668  1.0000
  S   S56       1.0  0.08480  0.19307  0.86019  1.0000
  S   S57       1.0  0.12405  0.17986  0.82442  1.0000
  H   H150      1.0  0.41991  0.01794  0.83432  1.0000
  C   C142      1.0  0.05539  0.15861  0.81983  1.0000
  Fe  Fe27      1.0  0.09070  0.21229  0.87188  1.0000
  S   S58       1.0  0.09917  0.20206  0.89770  1.0000
  H   H151      1.0  0.05839  0.01576  0.65423  1.0000
  H   H152      1.0  0.06830  0.03225  0.65643  1.0000
  C   C143      1.0  0.03233  0.03362  0.71028  1.0000
  H   H153      1.0  0.13338  0.02255  0.67595  1.0000
  H   H154      1.0  0.04639  0.02966  0.66943  1.0000
  S   S59       1.0  0.23328  0.11694  0.95263  1.0000
  S   S60       1.0  0.25112  0.06489  0.95262  1.0000
  C   C144      1.0  0.29758  0.12451  0.97064  1.0000
  C   C145      1.0  0.16088  0.14285  0.79099  1.0000
  H   H155      1.0  0.48212  0.05862  0.78528  1.0000
  H   H156      1.0  0.43814  0.05425  0.91963  1.0000
  C   C146      1.0  0.15778  0.16125  0.97877  1.0000
  C   C147      1.0  0.06190  0.03837  0.69527  1.0000
  Fe  Fe28      1.0  0.24219  0.09144  0.84221  1.0000
  S   S61       1.0  0.23006  0.06811  0.84783  1.0000
  S   S62       1.0  0.27197  0.08583  0.83241  1.0000
  Fe  Fe29      1.0  0.20603  0.11592  0.85182  1.0000
  S   S63       1.0  0.19103  0.09446  0.85848  1.0000
  S   S64       1.0  0.19262  0.14340  0.85572  1.0000
  Fe  Fe30      1.0  0.21334  0.07817  0.87174  1.0000
  S   S65       1.0  0.21050  0.05976  0.89826  1.0000
  Fe  Fe31      1.0  0.20930  0.08674  0.83389  1.0000
  S   S66       1.0  0.20022  0.08202  0.81205  1.0000
  S   S67       1.0  0.22685  0.10018  0.86711  1.0000
  S   S68       1.0  0.22282  0.10952  0.82626  1.0000
  H   H157      1.0  0.28632  0.10443  0.91232  1.0000
  C   C148      1.0  0.20147  0.05982  0.81243  1.0000
  C   C149      1.0  0.19844  0.05559  0.79807  1.0000
  C   C150      1.0  0.19984  0.03790  0.79787  1.0000
  C   C151      1.0  0.20408  0.02439  0.81215  1.0000
  C   C152      1.0  0.20714  0.02863  0.82650  1.0000
  C   C153      1.0  0.20591  0.04629  0.82663  1.0000
  H   H158      1.0  0.19506  0.06599  0.78702  1.0000
  H   H159      1.0  0.19741  0.03478  0.78678  1.0000
  H   H160      1.0  0.20812  0.04943  0.83782  1.0000
  C   C154      1.0  0.23950  0.06427  0.93745  1.0000
  C   C155      1.0  0.23849  0.04780  0.93588  1.0000
  C   C156      1.0  0.22945  0.04666  0.92391  1.0000
  C   C157      1.0  0.22196  0.06193  0.91288  1.0000
  C   C158      1.0  0.22337  0.07848  0.91404  1.0000
  C   C159      1.0  0.23186  0.07968  0.92656  1.0000
  H   H161      1.0  0.24446  0.03584  0.94417  1.0000
  H   H162      1.0  0.22840  0.03385  0.92311  1.0000
  H   H163      1.0  0.21767  0.09035  0.90554  1.0000
  H   H164      1.0  0.23279  0.09246  0.92755  1.0000
  C   C160      1.0  0.07745  0.23376  0.94057  1.0000
  H   H165      1.0  0.46970  0.98845  0.84668  1.0000
  H   H166      1.0  0.40970  0.06677  0.79814  1.0000
  C   C161      1.0  0.39695  0.06502  0.80767  1.0000
  H   H167      1.0  0.45753  0.09992  0.94579  1.0000
  S   S69       1.0  0.26255  0.09281  0.97634  1.0000
  C   C162      1.0  0.02286  0.16254  0.82976  1.0000
  C   C163      1.0  0.14156  0.16895  0.83537  1.0000
  C   C164      1.0  0.14856  0.17829  0.84294  1.0000
  C   C165      1.0  0.16395  0.17014  0.84964  1.0000
  C   C166      1.0  0.17244  0.15262  0.84877  1.0000
  C   C167      1.0  0.16513  0.14304  0.84175  1.0000
  C   C168      1.0  0.14965  0.15118  0.83513  1.0000
  H   H168      1.0  0.14256  0.19201  0.84305  1.0000
  H   H169      1.0  0.16954  0.17760  0.85509  1.0000
  H   H170      1.0  0.17156  0.12948  0.84109  1.0000
  H   H171      1.0  0.14417  0.14381  0.82951  1.0000
  C   C169      1.0  0.29018  0.15634  0.96103  1.0000
  S   S70       1.0  0.46338  0.98702  0.78923  1.0000
  C   C170      1.0  0.02479  0.05103  0.70258  1.0000
  Fe  Fe32      1.0  0.31138  0.02668  0.76687  1.0000
  H   H172      1.0  0.12308  0.22365  0.89561  1.0000
  S   S71       1.0  0.27146  0.13872  0.95133  1.0000
  S   S72       1.0  0.06019  0.00558  0.71640  1.0000
  H   H173      1.0  0.24930  0.04318  0.76084  1.0000
  H   H174      1.0  0.26336  0.08237  0.80110  1.0000
  H   H175      1.0  0.44689  0.07299  0.90630  1.0000
  H   H176      1.0  0.49010  0.08792  0.92277  1.0000
  H   H177      1.0  0.26702  0.01456  0.78839  1.0000
  H   H178      1.0  0.08578  0.16548  0.83787  1.0000
  C   C171      1.0  0.09049  0.21447  0.91400  1.0000
  C   C172      1.0  0.09821  0.20951  0.92866  1.0000
  C   C173      1.0  0.09183  0.21924  0.94184  1.0000
  H   H179      1.0  0.30246  0.11310  0.93841  1.0000
  H   H180      1.0  0.17445  0.11538  0.79266  1.0000
  H   H181      1.0  0.10913  0.19806  0.92982  1.0000
  H   H182      1.0  0.09779  0.21528  0.95316  1.0000
  C   C174      1.0  0.28710  0.13982  0.96221  1.0000
  H   H183      1.0  0.00531  0.20628  0.80837  1.0000
  S   S73       1.0  0.10358  0.00551  0.67773  1.0000
  H   H184      1.0  0.00768  0.21602  0.83388  1.0000
  H   H185      1.0  0.44562  0.12948  0.95618  1.0000
  H   H186      1.0  0.20045  0.11908  0.80082  1.0000
  H   H187      1.0  0.02898  0.17248  0.85582  1.0000
  C   C175      1.0  0.38575  0.06992  0.78099  1.0000
  H   H188      1.0  0.23579  0.02502  0.75051  1.0000
  C   C176      1.0  0.25779  0.03321  0.75382  1.0000
  C   C177      1.0  0.30286  0.08822  0.87076  1.0000
  C   C178      1.0  0.28478  0.09653  0.87257  1.0000
  C   C179      1.0  0.27533  0.09619  0.86058  1.0000
  C   C180      1.0  0.28388  0.08747  0.84681  1.0000
  C   C181      1.0  0.30210  0.07962  0.84471  1.0000
  C   C182      1.0  0.31158  0.07991  0.85673  1.0000
  H   H189      1.0  0.27804  0.10320  0.88325  1.0000
  H   H190      1.0  0.26152  0.10291  0.86187  1.0000
  H   H191      1.0  0.30883  0.07318  0.83385  1.0000
  H   H192      1.0  0.32558  0.07368  0.85517  1.0000
  C   C183      1.0  0.38363  0.04977  0.93423  1.0000
  C   C184      1.0  0.38038  0.05224  0.95131  1.0000
  C   C185      1.0  0.38679  0.06536  0.95428  1.0000
  C   C186      1.0  0.39668  0.07571  0.94021  1.0000
  C   C187      1.0  0.40119  0.07220  0.92347  1.0000
  C   C188      1.0  0.39446  0.05941  0.92044  1.0000
  H   H193      1.0  0.37214  0.04469  0.96206  1.0000
  H   H194      1.0  0.08400  0.15598  0.81192  1.0000
  H   H195      1.0  0.40925  0.07984  0.91265  1.0000
  H   H196      1.0  0.39734  0.05735  0.90731  1.0000
  H   H197      1.0  0.37494  0.07285  0.75848  1.0000
  C   C189      1.0  0.45304  0.08269  0.93213  1.0000
  S   S74       1.0  0.37473  0.03479  0.75112  1.0000
  C   C190      1.0  0.32523  0.09196  0.94249  1.0000
  C   C191      1.0  0.17650  0.17817  0.80039  1.0000
  H   H198      1.0  0.02286  0.16446  0.81563  1.0000
  H   H199      1.0  0.23638  0.04851  0.79105  1.0000
  C   C192      1.0  0.18951  0.13033  0.79863  1.0000
  C   C193      1.0  0.45326  0.07447  0.83293  1.0000
  C   C194      1.0  0.43770  0.07378  0.82871  1.0000
  C   C195      1.0  0.42089  0.08061  0.83850  1.0000
  C   C196      1.0  0.41964  0.08878  0.85201  1.0000
  C   C197      1.0  0.43519  0.08981  0.85597  1.0000
  C   C198      1.0  0.45199  0.08238  0.84665  1.0000
  H   H200      1.0  0.43866  0.06760  0.81816  1.0000
  H   H201      1.0  0.40888  0.07982  0.83545  1.0000
  H   H202      1.0  0.43426  0.09606  0.86647  1.0000
  H   H203      1.0  0.46394  0.08291  0.85001  1.0000
  H   H204      1.0  0.10383  0.02604  0.73389  1.0000
  C   C199      1.0  0.26103  0.01046  0.73831  1.0000
  C   C200      1.0  0.44295  0.98694  0.83396  1.0000
  H   H205      1.0  0.45946  0.08939  0.91936  1.0000
  C   C201      1.0  0.35331  0.06270  0.80121  1.0000
  H   H206      1.0  0.28616  0.05607  0.81096  1.0000
  C   C202      1.0  0.13654  0.02583  0.68664  1.0000
  H   H207      1.0  0.16433  0.02420  0.67411  1.0000
  H   H208      1.0  0.29524  0.11167  0.97165  1.0000
  C   C203      1.0  0.15098  0.17953  0.97767  1.0000
  C   C204      1.0  0.33332  0.02017  0.83417  1.0000
  C   C205      1.0  0.33153  0.03327  0.84308  1.0000
  C   C206      1.0  0.34639  0.03531  0.84750  1.0000
  C   C207      1.0  0.36316  0.02452  0.84262  1.0000
  C   C208      1.0  0.36498  0.01139  0.83373  1.0000
  C   C209      1.0  0.35002  0.00915  0.82960  1.0000
  H   H209      1.0  0.31882  0.04224  0.84602  1.0000
  H   H210      1.0  0.34500  0.04560  0.85417  1.0000
  C   C210      1.0  0.04105  0.16837  0.84638  1.0000
  S   S75       1.0  0.49064  0.04366  0.86449  1.0000
  S   S76       1.0  0.00445  0.21165  0.74720  1.0000
  C   C211      1.0  0.15791  0.99310  0.73596  1.0000
  H   H211      1.0  0.34080  0.05953  0.80929  1.0000
  S   S77       1.0  0.03796  0.21540  0.84665  1.0000
  Fe  Fe33      1.0  0.49486  0.06009  0.83708  1.0000
  H   H212      1.0  0.00634  0.16266  0.69200  1.0000
  H   H213      1.0  0.01363  0.11965  0.71028  1.0000
  C   C212      1.0  0.27961  0.00802  0.73484  1.0000
  N   N16       1.0  0.38288  0.06594  0.79896  1.0000
  C   C213      1.0  0.39044  0.03207  0.76349  1.0000
  C   C214      1.0  0.38660  0.02626  0.78180  1.0000
  C   C215      1.0  0.39908  0.02529  0.79140  1.0000
  H   H214      1.0  0.37381  0.02313  0.78865  1.0000
  H   H215      1.0  0.39592  0.02130  0.80560  1.0000
  H   H216      1.0  0.07620  0.03363  0.69253  1.0000
  H   H217      1.0  0.23820  0.07843  0.79125  1.0000
  C   C216      1.0  0.41553  0.02967  0.78267  1.0000
  C   C217      1.0  0.03588  0.06223  0.69163  1.0000
  H   H218      1.0  0.49505  0.00458  0.81990  1.0000
  Fe  Fe34      1.0  0.47820  0.98842  0.76125  1.0000
  H   H219      1.0  0.14936  0.14140  0.78745  1.0000
  Fe  Fe35      1.0  0.18608  0.99463  0.76004  1.0000
  H   H220      1.0  0.01046  0.05585  0.70539  1.0000
  H   H221      1.0  0.43413  0.98948  0.77168  1.0000
  N   N17       1.0  0.27494  0.04038  0.87091  1.0000
  C   C218      1.0  0.26418  0.05311  0.87966  1.0000
  C   C219      1.0  0.29183  0.03278  0.87351  1.0000
  C   C220      1.0  0.27034  0.05864  0.89128  1.0000
  C   C221      1.0  0.29854  0.03822  0.88480  1.0000
  C   C222      1.0  0.28769  0.05127  0.89369  1.0000
  C   C223      1.0  0.26864  0.03571  0.85789  1.0000
  H   H222      1.0  0.18233  0.17646  0.81185  1.0000
  H   H223      1.0  0.30039  0.02272  0.86651  1.0000
  S   S78       1.0  0.38294  0.12481  0.97597  1.0000
  H   H224      1.0  0.31217  0.03261  0.88633  1.0000
  C   C224      1.0  0.46103  0.01451  0.85197  1.0000
  H   H225      1.0  0.25484  0.03355  0.86333  1.0000
  H   H226      1.0  0.26881  0.04660  0.84596  1.0000
  H   H227      1.0  0.27728  0.02343  0.85386  1.0000
  H   H228      1.0  0.25082  0.05922  0.87753  1.0000
  C   C225      1.0  0.00184  0.11358  0.71615  1.0000
  H   H229      1.0  0.33143  0.09948  0.94729  1.0000
  H   H230      1.0  0.18359  0.11523  0.88584  1.0000
  H   H231      1.0  0.46185  0.05325  0.91501  1.0000
  H   H232      1.0  0.28223  0.16820  0.95441  1.0000
  H   H233      1.0  0.00657  0.09898  0.71960  1.0000
  H   H234      1.0  0.29284  0.05595  0.90214  1.0000
  C   C226      1.0  0.45192  0.08875  0.94703  1.0000
  C   C227      1.0  0.18980  0.14684  0.80075  1.0000
  C   C228      1.0  0.07203  0.15919  0.82183  1.0000
  C   C229      1.0  0.27347  0.03766  0.80683  1.0000
  C   C230      1.0  0.14459  0.03320  0.71451  1.0000
  C   C231      1.0  0.36684  0.06263  0.80904  1.0000
  C   C232      1.0  0.27505  0.05448  0.80679  1.0000
  S   S79       1.0  0.35163  0.00014  0.78785  1.0000
  C   C233      1.0  0.40683  0.03663  0.75483  1.0000
  H   H235      1.0  0.16432  0.11038  0.90266  1.0000
  C   C234      1.0  0.15801  0.03065  0.69953  1.0000
  C   C235      1.0  0.03642  0.21067  0.82730  1.0000
  C   C236      1.0  0.07302  0.16452  0.83639  1.0000
  Fe  Fe36      1.0  0.06546  0.21610  0.84820  1.0000
  C   C237      1.0  0.18083  0.18321  0.97420  1.0000
  Fe  Fe37      1.0  0.08320  0.99215  0.69808  1.0000
  N   N18       1.0  0.36819  0.12292  0.91139  1.0000
  C   C238      1.0  0.35347  0.12521  0.90491  1.0000
  C   C239      1.0  0.36655  0.12788  0.92667  1.0000
  C   C240      1.0  0.33653  0.13288  0.91367  1.0000
  C   C241      1.0  0.34981  0.13552  0.93581  1.0000
  C   C242      1.0  0.33475  0.13812  0.92918  1.0000
  C   C243      1.0  0.38573  0.11525  0.90161  1.0000
  H   H236      1.0  0.35487  0.12120  0.89279  1.0000
  H   H237      1.0  0.37821  0.12607  0.93185  1.0000
  H   H238      1.0  0.32491  0.13490  0.90836  1.0000
  H   H239      1.0  0.34857  0.13956  0.94788  1.0000
  H   H240      1.0  0.32174  0.14429  0.93599  1.0000
  H   H241      1.0  0.38578  0.10197  0.90012  1.0000
  H   H242      1.0  0.38890  0.12371  0.88825  1.0000
  H   H243      1.0  0.39659  0.11367  0.90833  1.0000
  S   S80       1.0  0.48274  0.01758  0.78982  1.0000
  C   C244      1.0  0.41949  0.03515  0.76437  1.0000
  H   H244      1.0  0.48486  0.07266  0.75346  1.0000
  C   C245      1.0  0.33367  0.07464  0.94102  1.0000
  C   C246      1.0  0.05179  0.20502  0.81512  1.0000
  C   C247      1.0  0.12343  0.02844  0.70182  1.0000
  C   C248      1.0  0.30348  0.15767  0.96838  1.0000
  H   H245      1.0  0.06479  0.20404  0.81719  1.0000
  H   H246      1.0  0.16287  0.18668  0.80314  1.0000
  C   C249      1.0  0.24714  0.05006  0.79574  1.0000
  Fe  Fe38      1.0  0.38613  0.09900  0.96918  1.0000
  C   C250      1.0  0.01827  0.20615  0.81004  1.0000
  H   H247      1.0  0.20173  0.15947  0.97449  1.0000
  C   C251      1.0  0.25852  0.01795  0.80092  1.0000
  H   H248      1.0  0.06242  0.19456  0.79169  1.0000
  C   C252      1.0  0.11390  0.03399  0.73165  1.0000
  C   C253      1.0  0.18760  0.16496  0.97539  1.0000
  H   H249      1.0  0.11987  0.02932  0.74345  1.0000
  S   S81       1.0  0.08553  0.22372  0.82363  1.0000
  Fe  Fe39      1.0  0.00693  0.19456  0.77386  1.0000
  S   S82       1.0  0.20574  0.00209  0.81247  1.0000
  S   S83       1.0  0.47111  0.01802  0.75369  1.0000
  C   C254      1.0  0.01964  0.21156  0.82455  1.0000
  H   H250      1.0  0.07046  0.23318  0.90119  1.0000
  H   H251      1.0  0.34650  0.06864  0.94450  1.0000
  H   H252      1.0  0.05464  0.15499  0.80818  1.0000
  H   H253      1.0  0.10999  0.02734  0.70268  1.0000
  H   H254      1.0  0.37792  0.00292  0.83009  1.0000
  C   C255      1.0  0.24820  0.06706  0.79568  1.0000
  H   H255      1.0  0.17157  0.03109  0.69901  1.0000
  H   H256      1.0  0.28805  0.99856  0.72718  1.0000
  C   C256      1.0  0.43151  0.01687  0.83929  1.0000
  S   S84       1.0  0.25154  0.99697  0.73173  1.0000
  C   C257      1.0  0.43273  0.03108  0.84518  1.0000
  Fe  Fe40      1.0  0.48898  0.98804  0.79441  1.0000
  C   C258      1.0  0.44765  0.02992  0.85144  1.0000
  C   C259      1.0  0.07642  0.22928  0.91249  1.0000
  H   H257      1.0  0.38373  0.06767  0.96739  1.0000
  H   H258      1.0  0.42215  0.04291  0.84482  1.0000
  H   H259      1.0  0.44885  0.04095  0.85586  1.0000
  S   S85       1.0  0.35723  0.09806  0.97885  1.0000
  H   H260      1.0  0.15052  0.17041  0.79116  1.0000
  H   H261      1.0  0.43604  0.99170  0.82282  1.0000
  S   S86       1.0  0.32477  0.03913  0.77947  1.0000
  H   H262      1.0  0.01207  0.17327  0.83470  1.0000
  C   C260      1.0  0.45931  0.00047  0.84611  1.0000
  H   H263      1.0  0.39983  0.05177  0.81652  1.0000
  Fe  Fe41      1.0  0.09894  0.99116  0.65996  1.0000
  H   H264      1.0  0.39858  0.07220  0.77296  1.0000
  C   C261      1.0  0.16166  0.15924  0.79303  1.0000
  H   H265      1.0  0.27564  0.08826  0.92909  1.0000
  H   H266      1.0  0.36458  0.05966  0.82324  1.0000
  H   H267      1.0  0.26314  0.00787  0.81211  1.0000
  H   H268      1.0  0.39267  0.07531  0.81554  1.0000
  S   S87       1.0  0.43072  0.02925  0.79469  1.0000
  N   N19       1.0  0.25955  0.03562  0.80148  1.0000
  C   C262      1.0  0.26228  0.06925  0.80121  1.0000
  H   H269      1.0  0.19094  0.14351  0.94149  1.0000
  C   C263      1.0  0.05088  0.02726  0.70658  1.0000
  C   C264      1.0  0.05043  0.19955  0.80070  1.0000
  H   H270      1.0  0.43206  0.03885  0.75760  1.0000
  C   C265      1.0  0.03371  0.19965  0.79836  1.0000
  N   N20       1.0  0.12766  0.03171  0.71565  1.0000
  H   H271      1.0  0.18464  0.18507  0.78835  1.0000
  S   S88       1.0  0.48206  0.11857  0.95943  1.0000
  C   C266      1.0  0.27635  0.03035  0.75090  1.0000
  H   H272      1.0  0.18984  0.19168  0.97241  1.0000
  H   H273      1.0  0.14800  0.03563  0.72553  1.0000
  S   S89       1.0  0.20202  0.01316  0.76122  1.0000
  S   S90       1.0  0.28561  0.04236  0.75956  1.0000
  S   S91       1.0  0.03287  0.18921  0.78236  1.0000
  C   C267      1.0  0.25013  0.02297  0.74792  1.0000
  N   N21       1.0  0.18281  0.11860  0.91116  1.0000
  C   C268      1.0  0.18237  0.13633  0.90564  1.0000
  C   C269      1.0  0.18584  0.10970  0.92744  1.0000
  C   C270      1.0  0.18539  0.14553  0.91641  1.0000
  C   C271      1.0  0.18893  0.11849  0.93852  1.0000
  C   C272      1.0  0.18870  0.13652  0.93294  1.0000
  C   C273      1.0  0.17892  0.10937  0.89997  1.0000
  H   H274      1.0  0.17966  0.14347  0.89285  1.0000
  H   H275      1.0  0.18595  0.09569  0.93191  1.0000
  H   H276      1.0  0.18506  0.15958  0.91199  1.0000
  H   H277      1.0  0.19133  0.11144  0.95145  1.0000
  H   H278      1.0  0.35140  0.99873  0.82309  1.0000
  C   C274      1.0  0.44350  0.08033  0.96349  1.0000
  C   C275      1.0  0.17489  0.12829  0.79390  1.0000
  C   C276      1.0  0.37242  0.07038  0.77271  1.0000
  N   N22       1.0  0.30083  0.08991  0.93191  1.0000
  C   C277      1.0  0.30913  0.07298  0.93026  1.0000
  C   C278      1.0  0.30881  0.09952  0.93762  1.0000
  C   C279      1.0  0.32566  0.06509  0.93477  1.0000
  C   C280      1.0  0.43660  0.06581  0.96490  1.0000
  H   H279      1.0  0.30561  0.17056  0.96755  1.0000
  C   C281      1.0  0.28379  0.09817  0.92658  1.0000
  H   H280      1.0  0.30313  0.06562  0.92508  1.0000
  H   H281      1.0  0.18581  0.09515  0.90225  1.0000
  H   H282      1.0  0.33241  0.05174  0.93321  1.0000
  C   C282      1.0  0.44583  0.12295  0.96973  1.0000
  Fe  Fe42      1.0  0.35038  0.02396  0.76571  1.0000
  H   H283      1.0  0.21034  0.01823  0.83762  1.0000
  Fe  Fe43      1.0  0.22576  0.99326  0.75070  1.0000
  Fe  Fe44      1.0  0.24210  0.08841  0.96503  1.0000
  N   N23       1.0  0.44481  0.00190  0.83962  1.0000
  H   H284      1.0  0.05792  0.17368  0.85996  1.0000
  S   S92       1.0  0.48870  0.07461  0.89414  1.0000
  N   N24       1.0  0.41839  0.99330  0.75313  1.0000
  H   H285      1.0  0.03299  0.06049  0.65884  1.0000
  H   H286      1.0  0.47268  0.01346  0.85685  1.0000
  C   C283      1.0  0.42226  0.98735  0.76943  1.0000
  H   H287      1.0  0.18563  0.99044  0.72288  1.0000
  C   C284      1.0  0.43083  0.00181  0.73838  1.0000
  C   C285      1.0  0.05554  0.02942  0.65630  1.0000
  H   H288      1.0  0.42349  0.01255  0.72935  1.0000
  H   H289      1.0  0.42983  0.05930  0.97760  1.0000
  S   S93       1.0  0.06898  0.23458  0.86255  1.0000
  C   C286      1.0  0.31141  0.12581  0.97743  1.0000
  H   H290      1.0  0.13685  0.18506  0.97862  1.0000
  C   C287      1.0  0.31431  0.14246  0.97637  1.0000
  C   C288      1.0  0.14113  0.99157  0.73519  1.0000
  Fe  Fe45      1.0  0.99830  0.09134  0.68054  1.0000
  H   H291      1.0  0.12965  0.99469  0.74557  1.0000
  H   H292      1.0  0.01067  0.13091  0.73503  1.0000
  C   C289      1.0  0.46207  0.11664  0.97506  1.0000
  C   C290      1.0  0.17275  0.98887  0.72263  1.0000
  H   H293      1.0  0.44225  0.08512  0.97509  1.0000
  H   H294      1.0  0.40030  0.99535  0.73737  1.0000
  C   C291      1.0  0.49470  0.06162  0.77720  1.0000
  S   S94       1.0  0.00119  0.18061  0.71934  1.0000
  H   H295      1.0  0.44002  0.99186  0.73102  1.0000
  C   C292      1.0  0.99732  0.12845  0.74014  1.0000
  S   S95       1.0  0.99757  0.17262  0.76966  1.0000
  C   C293      1.0  0.13903  0.98662  0.72078  1.0000
  C   C294      1.0  0.04558  0.38190  0.05981  1.0000
  C   C295      1.0  0.09471  0.34047  0.98576  1.0000
  N   N25       1.0  0.03426  0.27644  0.06095  1.0000
  H   H296      1.0  0.02978  0.44913  0.08889  1.0000
  C   C296      1.0  0.02203  0.42654  0.04481  1.0000
  H   H297      1.0  0.01398  0.36218  0.09011  1.0000
  H   H298      1.0  0.03598  0.37964  0.08781  1.0000
  C   C297      1.0  0.05853  0.28360  0.06750  1.0000
  C   C298      1.0  0.15321  0.42511  0.00659  1.0000
  C   C299      1.0  0.04841  0.45328  0.06372  1.0000
  C   C300      1.0  0.09077  0.30549  0.99908  1.0000
  H   H299      1.0  0.05998  0.44621  0.06921  1.0000
  S   S96       1.0  0.00511  0.24411  0.11650  1.0000
  S   S97       1.0  0.08658  0.39399  0.02089  1.0000
  H   H300      1.0  0.01067  0.35579  0.06332  1.0000
  H   H301      1.0  0.00642  0.28741  0.06615  1.0000
  S   S98       1.0  0.13543  0.40182  0.00452  1.0000
  H   H302      1.0  0.11229  0.46457  0.00679  1.0000
  C   C301      1.0  0.08304  0.31810  0.00958  1.0000
  Fe  Fe46      1.0  0.09417  0.23824  0.01002  1.0000
  C   C302      1.0  0.01867  0.47133  0.04991  1.0000
  C   C303      1.0  0.02929  0.36428  0.03060  1.0000
  C   C304      1.0  0.01031  0.40882  0.02664  1.0000
  C   C305      1.0  0.02243  0.36659  0.07747  1.0000
  C   C306      1.0  0.04369  0.37771  0.04495  1.0000
  N   N26       1.0  0.03117  0.36858  0.04627  1.0000
  H   H303      1.0  0.01330  0.26595  0.07965  1.0000
  C   C307      1.0  0.02445  0.41734  0.01817  1.0000
  S   S99       1.0  0.04866  0.43591  0.01710  1.0000
  H   H304      1.0  0.00329  0.46534  0.07645  1.0000
  S   S100      1.0  0.08000  0.26080  0.99205  1.0000
  Fe  Fe47      1.0  0.10977  0.40070  0.99931  1.0000
  S   S101      1.0  0.99627  0.29581  0.10181  1.0000
  H   H305      1.0  0.01280  0.26767  0.05739  1.0000
  H   H306      1.0  0.05212  0.38201  0.03229  1.0000
  S   S102      1.0  0.12040  0.24644  0.99918  1.0000
  C   C308      1.0  0.04093  0.28143  0.07213  1.0000
  C   C309      1.0  0.03034  0.42616  0.02727  1.0000
  H   H307      1.0  0.02677  0.43301  0.05200  1.0000
  H   H308      1.0  0.16793  0.44365  0.00668  1.0000
  C   C310      1.0  0.03582  0.46930  0.03911  1.0000
  C   C311      1.0  0.06840  0.45843  0.03472  1.0000
  H   H309      1.0  0.03524  0.37295  0.01835  1.0000
  H   H310      1.0  0.00385  0.47214  0.10678  1.0000
  C   C312      1.0  0.01650  0.46407  0.06791  1.0000
  H   H311      1.0  0.05525  0.38951  0.05857  1.0000
  C   C313      1.0  0.12373  0.45365  0.00661  1.0000
  C   C314      1.0  0.04461  0.27377  0.04495  1.0000
  C   C315      1.0  0.13671  0.42262  0.00628  1.0000
  H   H312      1.0  0.07560  0.31430  0.02286  1.0000
  H   H313      1.0  0.08302  0.28204  0.04759  1.0000
  S   S103      1.0  0.07591  0.35117  0.01636  1.0000
  H   H314      1.0  0.16468  0.41413  0.00651  1.0000
  H   H315      1.0  0.03059  0.41728  0.00452  1.0000
  C   C316      1.0  0.03481  0.37633  0.07617  1.0000
  S   S104      1.0  0.06567  0.39905  0.98964  1.0000
  H   H316      1.0  0.01496  0.36623  0.03068  1.0000
  Fe  Fe48      1.0  0.08415  0.37726  0.00410  1.0000
  C   C317      1.0  0.14039  0.45617  0.00650  1.0000
  H   H317      1.0  0.03740  0.47496  0.02512  1.0000
  S   S105      1.0  0.14347  0.47703  0.00601  1.0000
  H   H318      1.0  0.00184  0.41801  0.06698  1.0000
  H   H319      1.0  0.03266  0.28362  0.08479  1.0000
  H   H320      1.0  0.00568  0.40210  0.01957  1.0000
  C   C318      1.0  0.00218  0.40898  0.04427  1.0000
  C   C319      1.0  0.12190  0.43687  0.00646  1.0000
  H   H321      1.0  0.07064  0.27299  0.02753  1.0000
  C   C320      1.0  0.06926  0.28066  0.05130  1.0000
  N   N27       1.0  0.05042  0.46042  0.04607  1.0000
  H   H322      1.0  0.03944  0.26959  0.03615  1.0000
  H   H323      1.0  0.10906  0.43499  0.00653  1.0000
  C   C321      1.0  0.06227  0.27575  0.03993  1.0000
  C   C322      1.0  0.02071  0.36288  0.06229  1.0000
  H   H324      1.0  0.08930  0.29199  0.00423  1.0000
  H   H325      1.0  0.07462  0.44420  0.03516  1.0000
  C   C323      1.0  0.08516  0.33559  0.00298  1.0000
  Fe  Fe49      1.0  0.07043  0.41619  0.00441  1.0000
  H   H326      1.0  0.00720  0.47840  0.04429  1.0000
  H   H327      1.0  0.06382  0.28742  0.07646  1.0000
  H   H328      1.0  0.03633  0.35039  0.03015  1.0000
  C   C324      1.0  0.01578  0.27431  0.06617  1.0000
  C   C325      1.0  0.03143  0.45494  0.07490  1.0000
  C   C326      1.0  0.15505  0.44182  0.00665  1.0000
  H   H329      1.0  0.07677  0.46463  0.03895  1.0000
  C   C327      1.0  0.00797  0.41794  0.05333  1.0000
  H   H330      1.0  0.06812  0.46501  0.02077  1.0000
  S   S106      1.0  0.10907  0.38190  0.98386  1.0000
  H   H331      1.0  0.09614  0.35394  0.98042  1.0000
  S   S107      1.0  0.09377  0.42425  0.98407  1.0000
  C   C328      1.0  0.10063  0.31038  0.98198  1.0000
  H   H332      1.0  0.04691  0.43930  0.98031  1.0000
  Fe  Fe50      1.0  0.10675  0.26722  0.97959  1.0000
  S   S108      1.0  0.04166  0.45691  0.81318  1.0000
  H   H333      1.0  0.04265  0.33802  0.74676  1.0000
  C   C329      1.0  0.08828  0.43883  0.80021  1.0000
  H   H334      1.0  0.12284  0.39783  0.81680  1.0000
  Fe  Fe51      1.0  0.00262  0.35514  0.77614  1.0000
  H   H335      1.0  0.04655  0.29723  0.83176  1.0000
  H   H336      1.0  0.12278  0.48192  0.94193  1.0000
  H   H337      1.0  0.07377  0.29984  0.80188  1.0000
  N   N28       1.0  0.12519  0.26301  0.90105  1.0000
  H   H338      1.0  0.07230  0.40832  0.79328  1.0000
  C   C330      1.0  0.00697  0.41922  0.76789  1.0000
  H   H339      1.0  0.08141  0.32711  0.90795  1.0000
  C   C331      1.0  0.06276  0.34377  0.78396  1.0000
  C   C332      1.0  0.06368  0.31127  0.77813  1.0000
  C   C333      1.0  0.11627  0.42626  0.80916  1.0000
  H   H340      1.0  0.07527  0.46865  0.92110  1.0000
  N   N29       1.0  0.05774  0.32650  0.76676  1.0000
  S   S109      1.0  0.01036  0.29115  0.77840  1.0000
  H   H341      1.0  0.07251  0.32907  0.80724  1.0000
  Fe  Fe52      1.0  0.07814  0.36901  0.84654  1.0000
  S   S110      1.0  0.10660  0.35417  0.84328  1.0000
  S   S111      1.0  0.06432  0.37818  0.82407  1.0000
  Fe  Fe53      1.0  0.07447  0.36873  0.88470  1.0000
  S   S112      1.0  0.10258  0.35387  0.88480  1.0000
  S   S113      1.0  0.05628  0.37378  0.91005  1.0000
  Fe  Fe54      1.0  0.10904  0.37228  0.85867  1.0000
  S   S114      1.0  0.13326  0.38389  0.85067  1.0000
  Fe  Fe55      1.0  0.09715  0.33740  0.86965  1.0000
  S   S115      1.0  0.10254  0.30783  0.87835  1.0000
  S   S116      1.0  0.08117  0.38859  0.85970  1.0000
  S   S117      1.0  0.06839  0.35088  0.87180  1.0000
  H   H342      1.0  0.01487  0.36191  0.81331  1.0000
  N   N30       1.0  0.02564  0.38768  0.86398  1.0000
  H   H343      1.0  0.05234  0.45477  0.91199  1.0000
  S   S118      1.0  0.10770  0.47965  0.91478  1.0000
  S   S119      1.0  0.00672  0.45391  0.74943  1.0000
  C   C334      1.0  0.13992  0.44457  0.93325  1.0000
  S   S120      1.0  0.09417  0.41263  0.94133  1.0000
  H   H344      1.0  0.06346  0.32266  0.74076  1.0000
  C   C335      1.0  0.12700  0.43428  0.91497  1.0000
  C   C336      1.0  0.13372  0.26974  0.88436  1.0000
  N   N31       1.0  0.06074  0.44888  0.93596  1.0000
  C   C337      1.0  0.06175  0.45921  0.96553  1.0000
  S   S121      1.0  0.09096  0.26930  0.82598  1.0000
  H   H345      1.0  0.07846  0.45044  0.79589  1.0000
  C   C338      1.0  0.04060  0.46188  0.83311  1.0000
  H   H346      1.0  0.14344  0.39948  0.96616  1.0000
  S   S122      1.0  0.03940  0.47918  0.88212  1.0000
  H   H347      1.0  0.15341  0.42359  0.97139  1.0000
  H   H348      1.0  0.13664  0.28277  0.88104  1.0000
  C   C339      1.0  0.02381  0.47105  0.86023  1.0000
  H   H349      1.0  0.05967  0.25902  0.82559  1.0000
  C   C340      1.0  0.03974  0.47106  0.86419  1.0000
  S   S123      1.0  0.00324  0.44680  0.80048  1.0000
  H   H350      1.0  0.09871  0.32016  0.84222  1.0000
  C   C341      1.0  0.09793  0.29772  0.86408  1.0000
  C   C342      1.0  0.09708  0.30667  0.84679  1.0000
  C   C343      1.0  0.09476  0.29794  0.83516  1.0000
  C   C344      1.0  0.09321  0.28028  0.84082  1.0000
  C   C345      1.0  0.09358  0.27149  0.85825  1.0000
  C   C346      1.0  0.09580  0.28025  0.86989  1.0000
  C   C347      1.0  0.01730  0.40649  0.73705  1.0000
  H   H351      1.0  0.09233  0.25788  0.86275  1.0000
  H   H352      1.0  0.09602  0.27338  0.88335  1.0000
  C   C348      1.0  0.06669  0.38457  0.91883  1.0000
  C   C349      1.0  0.06175  0.38449  0.93678  1.0000
  C   C350      1.0  0.07051  0.39268  0.94387  1.0000
  C   C351      1.0  0.08391  0.40128  0.93297  1.0000
  C   C352      1.0  0.08869  0.40150  0.91498  1.0000
  C   C353      1.0  0.08023  0.39297  0.90794  1.0000
  H   H353      1.0  0.05137  0.37788  0.94523  1.0000
  C   C354      1.0  0.03196  0.41591  0.84785  1.0000
  H   H354      1.0  0.09905  0.40814  0.90646  1.0000
  H   H355      1.0  0.08419  0.39302  0.89407  1.0000
  C   C355      1.0  0.14813  0.42573  0.95986  1.0000
  H   H356      1.0  0.09463  0.30473  0.82167  1.0000
  H   H357      1.0  0.13880  0.45733  0.92416  1.0000
  H   H358      1.0  0.13147  0.40449  0.93973  1.0000
  H   H359      1.0  0.02937  0.37945  0.89032  1.0000
  C   C356      1.0  0.14666  0.44211  0.94811  1.0000
  C   C357      1.0  0.03535  0.40494  0.87780  1.0000
  H   H360      1.0  0.04840  0.24403  0.80962  1.0000
  H   H361      1.0  0.04409  0.31492  0.75536  1.0000
  H   H362      1.0  0.01563  0.37212  0.85299  1.0000
  Fe  Fe56      1.0  0.99923  0.33484  0.81405  1.0000
  C   C358      1.0  0.12567  0.44371  0.84173  1.0000
  C   C359      1.0  0.11119  0.43583  0.85089  1.0000
  C   C360      1.0  0.11342  0.41735  0.85428  1.0000
  C   C361      1.0  0.13016  0.40677  0.84862  1.0000
  C   C362      1.0  0.14471  0.41465  0.84011  1.0000
  C   C363      1.0  0.14244  0.43306  0.83652  1.0000
  H   H363      1.0  0.09818  0.44399  0.85483  1.0000
  H   H364      1.0  0.10220  0.41137  0.86113  1.0000
  H   H365      1.0  0.15768  0.40655  0.83578  1.0000
  H   H366      1.0  0.15366  0.43907  0.82946  1.0000
  H   H367      1.0  0.04651  0.42994  0.95388  1.0000
  H   H368      1.0  0.06677  0.39240  0.95773  1.0000
  C   C364      1.0  0.03634  0.41811  0.86244  1.0000
  H   H369      1.0  0.05281  0.27675  0.84708  1.0000
  H   H370      1.0  0.13101  0.26911  0.92231  1.0000
  H   H371      1.0  0.06196  0.27960  0.93193  1.0000
  H   H372      1.0  0.06379  0.28226  0.96101  1.0000
  H   H373      1.0  0.09985  0.32836  0.93696  1.0000
  C   C365      1.0  0.06853  0.32832  0.79579  1.0000
  N   N32       1.0  0.07819  0.31889  0.93581  1.0000
  C   C366      1.0  0.05148  0.36329  0.82568  1.0000
  C   C367      1.0  0.05440  0.34643  0.83658  1.0000
  C   C368      1.0  0.04247  0.33550  0.83988  1.0000
  C   C369      1.0  0.02802  0.34117  0.83169  1.0000
  C   C370      1.0  0.02585  0.35753  0.81982  1.0000
  C   C371      1.0  0.03747  0.36868  0.81693  1.0000
  H   H374      1.0  0.06581  0.34179  0.84253  1.0000
  H   H375      1.0  0.04447  0.32268  0.84877  1.0000
  N   N33       1.0  0.08566  0.42223  0.80244  1.0000
  H   H376      1.0  0.15058  0.45285  0.95057  1.0000
  C   C372      1.0  0.07343  0.30643  0.95054  1.0000
  C   C373      1.0  0.05650  0.46105  0.83756  1.0000
  C   C374      1.0  0.06642  0.29070  0.93299  1.0000
  S   S124      1.0  0.01789  0.32958  0.78914  1.0000
  C   C375      1.0  0.05606  0.46573  0.85301  1.0000
  S   S125      1.0  0.09057  0.46727  0.88107  1.0000
  H   H377      1.0  0.06921  0.45723  0.82888  1.0000
  H   H378      1.0  0.08340  0.34489  0.92628  1.0000
  C   C376      1.0  0.02673  0.40049  0.84880  1.0000
  C   C377      1.0  0.03959  0.25481  0.81543  1.0000
  C   C378      1.0  0.13591  0.41507  0.94187  1.0000
  H   H379      1.0  0.02135  0.40166  0.72504  1.0000
  C   C379      1.0  0.11326  0.40941  0.81192  1.0000
  H   H380      1.0  0.02374  0.39877  0.83723  1.0000
  H   H381      1.0  0.03894  0.40641  0.88918  1.0000
  H   H382      1.0  0.13368  0.44315  0.90341  1.0000
  H   H383      1.0  0.10562  0.45424  0.80205  1.0000
  C   C380      1.0  0.01457  0.39469  0.75333  1.0000
  N   N34       1.0  0.03470  0.27673  0.83210  1.0000
  S   S126      1.0  0.01807  0.37214  0.75366  1.0000
  C   C381      1.0  0.02423  0.46656  0.84459  1.0000
  C   C382      1.0  0.01996  0.37160  0.86503  1.0000
  H   H384      1.0  0.01681  0.43356  0.72343  1.0000
  C   C383      1.0  0.08535  0.33314  0.93722  1.0000
  C   C384      1.0  0.01470  0.42456  0.73613  1.0000
  C   C385      1.0  0.00963  0.43102  0.75149  1.0000
  H   H385      1.0  0.07853  0.33763  0.94967  1.0000
  C   C386      1.0  0.04166  0.28578  0.84118  1.0000
  H   H386      1.0  0.11261  0.44064  0.91825  1.0000
  C   C387      1.0  0.10360  0.44109  0.80358  1.0000
  H   H387      1.0  0.04065  0.42992  0.86181  1.0000
  H   H388      1.0  0.00858  0.36967  0.87641  1.0000
  N   N35       1.0  0.13476  0.43110  0.93023  1.0000
  S   S127      1.0  0.11438  0.24991  0.96025  1.0000
  C   C388      1.0  0.01061  0.27410  0.82149  1.0000
  C   C389      1.0  0.14266  0.41214  0.95683  1.0000
  C   C390      1.0  0.06914  0.31194  0.79283  1.0000
  H   H389      1.0  0.00862  0.29339  0.83593  1.0000
  H   H390      1.0  0.03267  0.42605  0.83584  1.0000
  S   S128      1.0  0.12297  0.46680  0.83528  1.0000
  C   C391      1.0  0.07134  0.30342  0.91804  1.0000
  H   H391      1.0  0.03118  0.35993  0.86657  1.0000
  H   H392      1.0  0.10754  0.27109  0.92387  1.0000
  S   S129      1.0  0.01260  0.32792  0.83657  1.0000
  H   H393      1.0  0.07076  0.30231  0.90521  1.0000
  Fe  Fe57      1.0  0.09032  0.24081  0.83859  1.0000
  C   C392      1.0  0.06944  0.42002  0.79909  1.0000
  Fe  Fe58      1.0  0.01624  0.46659  0.80358  1.0000
  C   C393      1.0  0.01734  0.28238  0.83041  1.0000
  H   H394      1.0  0.07446  0.30735  0.96328  1.0000
  H   H395      1.0  0.06356  0.43176  0.78980  1.0000
  H   H396      1.0  0.05937  0.41814  0.81163  1.0000
  C   C394      1.0  0.05285  0.44068  0.95233  1.0000
  C   C395      1.0  0.00946  0.40101  0.76882  1.0000
  H   H397      1.0  0.00774  0.39186  0.78143  1.0000
  H   H398      1.0  0.05290  0.35471  0.76029  1.0000
  H   H399      1.0  0.01622  0.25563  0.77500  1.0000
  H   H400      1.0  0.01193  0.46677  0.84144  1.0000
  H   H401      1.0  0.06219  0.35657  0.78618  1.0000
  H   H402      1.0  0.11857  0.28762  0.90894  1.0000
  H   H403      1.0  0.12822  0.42176  0.91111  1.0000
  H   H404      1.0  0.11520  0.24102  0.91853  1.0000
  H   H405      1.0  0.09532  0.39449  0.81099  1.0000
  Fe  Fe59      1.0  0.08843  0.24206  0.97391  1.0000
  Fe  Fe60      1.0  0.00244  0.46399  0.77372  1.0000
  C   C396      1.0  0.05753  0.34261  0.76934  1.0000
  Fe  Fe61      1.0  0.10308  0.48163  0.85467  1.0000
  C   C397      1.0  0.06744  0.29220  0.94936  1.0000
  H   H406      1.0  0.03532  0.38163  0.80828  1.0000
  H   H407      1.0  0.12830  0.42785  0.81159  1.0000
  C   C398      1.0  0.07733  0.31745  0.91968  1.0000
  H   H408      1.0  0.01116  0.47510  0.86892  1.0000
  C   C399      1.0  0.05179  0.32546  0.75163  1.0000
  H   H409      1.0  0.06392  0.29850  0.77604  1.0000
  C   C400      1.0  0.06027  0.44368  0.92021  1.0000
  H   H410      1.0  0.06842  0.46539  0.85616  1.0000
  C   C401      1.0  0.00339  0.26265  0.77203  1.0000
  C   C402      1.0  0.09770  0.40763  0.80861  1.0000
  C   C403      1.0  0.12603  0.23665  0.89234  1.0000
  C   C404      1.0  0.12163  0.24653  0.90522  1.0000
  H   H411      1.0  0.03111  0.29072  0.85202  1.0000
  H   H412      1.0  0.11021  0.33173  0.96219  1.0000
  C   C405      1.0  0.04586  0.26330  0.82454  1.0000
  C   C406      1.0  0.02181  0.26016  0.81405  1.0000
  C   C407      1.0  0.02996  0.38971  0.87835  1.0000
  S   S130      1.0  0.11031  0.29513  0.96833  1.0000
  Fe  Fe62      1.0  0.09070  0.40496  0.97061  1.0000
  H   H413      1.0  0.07406  0.44012  0.91237  1.0000
  H   H414      1.0  0.05434  0.43195  0.92351  1.0000
  C   C408      1.0  0.13807  0.26031  0.87111  1.0000
  Fe  Fe63      1.0  0.99758  0.31721  0.78615  1.0000
  S   S131      1.0  0.06904  0.24574  0.95721  1.0000
  C   C409      1.0  0.13407  0.24370  0.87514  1.0000
  H   H415      1.0  0.00301  0.42406  0.77980  1.0000
  H   H416      1.0  0.06232  0.46307  0.97711  1.0000
  C   C410      1.0  0.10253  0.32788  0.97536  1.0000
  H   H417      1.0  0.01679  0.25374  0.80696  1.0000
  H   H418      1.0  0.14413  0.26604  0.85773  1.0000
  H   H419      1.0  0.05860  0.25002  0.92491  1.0000
  C   C411      1.0  0.05313  0.44580  0.96733  1.0000
  S   S132      1.0  0.01786  0.48233  0.77578  1.0000
  C   C412      1.0  0.06976  0.23880  0.92589  1.0000
  H   H420      1.0  0.07672  0.47780  0.94719  1.0000
  C   C413      1.0  0.12039  0.27319  0.91472  1.0000
  H   H421      1.0  0.99691  0.27866  0.81995  1.0000
  C   C414      1.0  0.06905  0.46216  0.93407  1.0000
  C   C415      1.0  0.06981  0.46745  0.94880  1.0000
  H   H422      1.0  0.99825  0.23995  0.76706  1.0000
  C   C416      1.0  0.99705  0.28052  0.77274  1.0000
  H   H423      1.0  0.13708  0.23632  0.86497  1.0000
  C   C417      1.0  0.13496  0.59730  0.00030  1.0000
  C   C418      1.0  0.00652  0.71935  0.16147  1.0000
  C   C419      1.0  0.02446  0.52027  0.04960  1.0000
  H   H424      1.0  0.08425  0.60853  0.99564  1.0000
  C   C420      1.0  0.05355  0.56681  0.03276  1.0000
  C   C421      1.0  0.12809  0.51433  0.05470  1.0000
  S   S133      1.0  0.09745  0.50082  0.99145  1.0000
  C   C422      1.0  0.10619  0.67248  0.05945  1.0000
  Fe  Fe64      1.0  0.07966  0.51136  0.01460  1.0000
  H   H425      1.0  0.03697  0.70207  0.18060  1.0000
  C   C423      1.0  0.03603  0.71659  0.23096  1.0000
  C   C424      1.0  0.02400  0.60712  0.09737  1.0000
  H   H426      1.0  0.10376  0.70037  0.04947  1.0000
  H   H427      1.0  0.14557  0.49293  0.03235  1.0000
  C   C425      1.0  0.01612  0.53090  0.06193  1.0000
  C   C426      1.0  0.12323  0.59823  0.01659  1.0000
  C   C427      1.0  0.02640  0.53665  0.06967  1.0000
  C   C428      1.0  0.08340  0.66381  0.08461  1.0000
  H   H428      1.0  0.06209  0.61363  0.04911  1.0000
  H   H429      1.0  0.13882  0.54450  0.04047  1.0000
  Fe  Fe65      1.0  0.13330  0.63853  0.99921  1.0000
  H   H430      1.0  0.05326  0.72370  0.20579  1.0000
  H   H431      1.0  0.00178  0.53505  0.06500  1.0000
  C   C429      1.0  0.07392  0.71322  0.07122  1.0000
  H   H432      1.0  0.10469  0.64543  0.07167  1.0000
  C   C430      1.0  0.05757  0.59152  0.04208  1.0000
  C   C431      1.0  0.13661  0.58339  0.99241  1.0000
  C   C432      1.0  0.07348  0.61309  0.02186  1.0000
  Fe  Fe66      1.0  0.00548  0.69164  0.10892  1.0000
  S   S134      1.0  0.12360  0.52684  0.99028  1.0000
  C   C433      1.0  0.01413  0.62404  0.09150  1.0000
  H   H433      1.0  0.06416  0.55513  0.03643  1.0000
  S   S135      1.0  0.01386  0.67322  0.13301  1.0000
  H   H434      1.0  0.06342  0.68513  0.09403  1.0000
  Fe  Fe67      1.0  0.10327  0.53518  0.01351  1.0000
  H   H435      1.0  0.07873  0.62480  0.01919  1.0000
  N   N36       1.0  0.03708  0.70706  0.20510  1.0000
  C   C434      1.0  0.01439  0.73196  0.16358  1.0000
  H   H436      1.0  0.99682  0.65387  0.07537  1.0000
  N   N37       1.0  0.08255  0.69458  0.07155  1.0000
  H   H437      1.0  0.05051  0.58649  0.05528  1.0000
  C   C435      1.0  0.16110  0.50962  0.01223  1.0000
  N   N38       1.0  0.06017  0.58295  0.02892  1.0000
  S   S136      1.0  0.02540  0.70253  0.08562  1.0000
  H   H438      1.0  0.01053  0.71489  0.14926  1.0000
  S   S137      1.0  0.14737  0.61359  0.98970  1.0000
  C   C436      1.0  0.07647  0.60401  0.00864  1.0000
  C   C437      1.0  0.01635  0.69835  0.23202  1.0000
  H   H439      1.0  0.18685  0.72129  0.01329  1.0000
  H   H440      1.0  0.05936  0.71486  0.07718  1.0000
  C   C438      1.0  0.06978  0.58878  0.01245  1.0000
  S   S138      1.0  0.00400  0.62820  0.13378  1.0000
  H   H441      1.0  0.00571  0.69149  0.23918  1.0000
  C   C439      1.0  0.09789  0.69020  0.05942  1.0000
  H   H442      1.0  0.12388  0.50187  0.05627  1.0000
  H   H443      1.0  0.08009  0.71864  0.07862  1.0000
  H   H444      1.0  0.05847  0.69593  0.18634  1.0000
  H   H445      1.0  0.01650  0.51604  0.04345  1.0000
  Fe  Fe68      1.0  0.09882  0.65444  0.02240  1.0000
  C   C440      1.0  0.04309  0.51582  0.04467  1.0000
  S   S139      1.0  0.07687  0.64508  0.04454  1.0000
  C   C441      1.0  0.04903  0.69194  0.05693  1.0000
  C   C442      1.0  0.16538  0.52619  0.00657  1.0000
  C   C443      1.0  0.12638  0.57057  0.00071  1.0000
  Fe  Fe69      1.0  0.13045  0.67174  0.01137  1.0000
  S   S140      1.0  0.14084  0.68894  0.02194  1.0000
  S   S141      1.0  0.10493  0.64619  0.99688  1.0000
  S   S142      1.0  0.10177  0.68225  0.00946  1.0000
  C   C444      1.0  0.19437  0.70471  0.99464  1.0000
  C   C445      1.0  0.00222  0.59466  0.09252  1.0000
  C   C446      1.0  0.17299  0.68714  0.99736  1.0000
  C   C447      1.0  0.16163  0.69453  0.01131  1.0000
  C   C448      1.0  0.16669  0.70696  0.01687  1.0000
  C   C449      1.0  0.18297  0.71203  0.00858  1.0000
  H   H446      1.0  0.16057  0.55174  0.01258  1.0000
  N   N39       1.0  0.14093  0.51833  0.03804  1.0000
  H   H447      1.0  0.15805  0.71265  0.02772  1.0000
  Fe  Fe70      1.0  0.11057  0.67295  0.98419  1.0000
  C   C450      1.0  0.03806  0.68667  0.07333  1.0000
  Fe  Fe71      1.0  0.11960  0.49944  0.00391  1.0000
  C   C451      1.0  0.06073  0.67927  0.04781  1.0000
  C   C452      1.0  0.06140  0.66128  0.05500  1.0000
  C   C453      1.0  0.04998  0.65602  0.07114  1.0000
  C   C454      1.0  0.03838  0.66868  0.08035  1.0000
  C   C455      1.0  0.18936  0.69217  0.98910  1.0000
  H   H448      1.0  0.06922  0.68345  0.03526  1.0000
  H   H449      1.0  0.05055  0.64211  0.07680  1.0000
  H   H450      1.0  0.03013  0.66452  0.09313  1.0000
  C   C456      1.0  0.04308  0.71632  0.21316  1.0000
  H   H451      1.0  0.10482  0.58562  0.03799  1.0000
  C   C457      1.0  0.14524  0.53454  0.03270  1.0000
  H   H452      1.0  0.07258  0.58147  0.00228  1.0000
  C   C458      1.0  0.09872  0.65922  0.07194  1.0000
  H   H453      1.0  0.05300  0.53617  0.07106  1.0000
  H   H454      1.0  0.11828  0.66909  0.04975  1.0000
  S   S143      1.0  0.12696  0.64435  0.02603  1.0000
  C   C459      1.0  0.07556  0.68167  0.08435  1.0000
  S   S144      1.0  0.05353  0.50389  0.02818  1.0000
  C   C460      1.0  0.04501  0.53181  0.06505  1.0000
  C   C461      1.0  0.15750  0.53872  0.01691  1.0000
  H   H455      1.0  0.04967  0.56543  0.02118  1.0000
  H   H456      1.0  0.01892  0.69103  0.20781  1.0000
  S   S145      1.0  0.07984  0.53967  0.00174  1.0000
  H   H457      1.0  0.04153  0.56679  0.04373  1.0000
  S   S146      1.0  0.01634  0.55059  0.08447  1.0000
  C   C462      1.0  0.02387  0.69815  0.21427  1.0000
  S   S147      1.0  0.10299  0.55481  0.02856  1.0000
  C   C463      1.0  0.11354  0.58506  0.02518  1.0000
  C   C464      1.0  0.06408  0.60678  0.03872  1.0000
  H   H458      1.0  0.07515  0.72110  0.05748  1.0000
  H   H459      1.0  0.16927  0.67744  0.99305  1.0000
  H   H460      1.0  0.11581  0.52507  0.05519  1.0000
  H   H461      1.0  0.12760  0.55997  0.99449  1.0000
  H   H462      1.0  0.06767  0.51805  0.04884  1.0000
  S   S148      1.0  0.21482  0.71109  0.98396  1.0000
  C   C465      1.0  0.05333  0.52156  0.05244  1.0000
  C   C466      1.0  0.01804  0.59234  0.09773  1.0000
  H   H463      1.0  0.12192  0.60889  0.02280  1.0000
  H   H464      1.0  0.04868  0.70584  0.05139  1.0000
  S   S149      1.0  0.01907  0.73521  0.27061  1.0000
  H   H465      1.0  0.13407  0.51302  0.06590  1.0000
  S   S150      1.0  0.10159  0.50751  0.02825  1.0000
  C   C467      1.0  0.11501  0.57127  0.01722  1.0000
  H   H466      1.0  0.07734  0.65362  0.09427  1.0000
  H   H467      1.0  0.01845  0.63546  0.09196  1.0000
  C   C468      1.0  0.14885  0.50585  0.02814  1.0000
  C   C469      1.0  0.02261  0.70750  0.24042  1.0000
  H   H468      1.0  0.01806  0.73089  0.30752  1.0000
  H   H469      1.0  0.03576  0.60555  0.10228  1.0000
  H   H470      1.0  0.16701  0.49976  0.00426  1.0000
  N   N40       1.0  0.99883  0.62615  0.08603  1.0000
  H   H471      1.0  0.13650  0.71219  0.98829  1.0000
  H   H472      1.0  0.17467  0.52935  0.99414  1.0000
  C   C470      1.0  0.99626  0.73090  0.19304  1.0000
  H   H473      1.0  0.04077  0.72394  0.23737  1.0000
  H   H474      1.0  0.01692  0.70783  0.25419  1.0000
  H   H475      1.0  0.02528  0.57908  0.10257  1.0000
  H   H476      1.0  0.99716  0.58326  0.09343  1.0000
  H   H477      1.0  0.00132  0.59238  0.13864  1.0000
  H   H478      1.0  0.47515  0.71124  0.98042  1.0000
  H   H479      1.0  0.04821  0.71891  0.17881  1.0000
  C   C471      1.0  0.04565  0.70586  0.18683  1.0000
  H   H480      1.0  0.14573  0.58257  0.97984  1.0000
  S   S151      1.0  0.13955  0.66495  0.98485  1.0000
  Fe  Fe72      1.0  0.09988  0.52892  0.97973  1.0000
  H   H481      1.0  0.45819  0.73059  0.98446  1.0000
  H   H482      1.0  0.30761  0.73506  0.99259  1.0000
  Fe  Fe73      1.0  0.00428  0.73535  0.62095  1.0000
  S   S152      1.0  0.00448  0.73324  0.59388  1.0000
  H   H483      1.0  0.08874  0.73000  0.40618  1.0000
  S   S153      1.0  0.02683  0.72132  0.63436  1.0000
  H   H484      1.0  0.05876  0.70362  0.71112  1.0000
  N   N41       1.0  0.13454  0.72354  0.94535  1.0000
  C   C472      1.0  0.11205  0.50835  0.94614  1.0000
  S   S154      1.0  0.06926  0.50653  0.88904  1.0000
  C   C473      1.0  0.05754  0.70023  0.69957  1.0000
  C   C474      1.0  0.23998  0.72425  0.94059  1.0000
  C   C475      1.0  0.46307  0.71351  0.93412  1.0000
  C   C476      1.0  0.03431  0.51488  0.83235  1.0000
  H   H485      1.0  0.04661  0.71899  0.66047  1.0000
  H   H486      1.0  0.43926  0.72058  0.92393  1.0000
  Fe  Fe74      1.0  0.08367  0.51805  0.86202  1.0000
  C   C477      1.0  0.10961  0.58536  0.81708  1.0000
  C   C478      1.0  0.17575  0.73438  0.82876  1.0000
  H   H487      1.0  0.01906  0.65135  0.69539  1.0000
  H   H488      1.0  0.24893  0.70069  0.85567  1.0000
  H   H489      1.0  0.06009  0.66399  0.68476  1.0000
  H   H490      1.0  0.16359  0.71043  0.82118  1.0000
  H   H491      1.0  0.16352  0.72484  0.97572  1.0000
  Fe  Fe75      1.0  0.02359  0.60101  0.77355  1.0000
  C   C479      1.0  0.10522  0.49717  0.92459  1.0000
  S   S155      1.0  0.03600  0.57428  0.76745  1.0000
  Fe  Fe76      1.0  0.02418  0.63988  0.76390  1.0000
  C   C480      1.0  0.14024  0.71737  0.97424  1.0000
  S   S156      1.0  0.03310  0.66366  0.74503  1.0000
  Fe  Fe77      1.0  0.02041  0.61956  0.80197  1.0000
  S   S157      1.0  0.02737  0.61288  0.82835  1.0000
  H   H492      1.0  0.21856  0.72734  0.92801  1.0000
  H   H493      1.0  0.25345  0.73582  0.88004  1.0000
  S   S158      1.0  0.04140  0.61588  0.77763  1.0000
  H   H494      1.0  0.12889  0.70998  0.92941  1.0000
  H   H495      1.0  0.12989  0.61443  0.82278  1.0000
  C   C481      1.0  0.34927  0.72381  0.91511  1.0000
  H   H496      1.0  0.13679  0.64550  0.96113  1.0000
  S   S159      1.0  0.23888  0.70436  0.89372  1.0000
  Fe  Fe78      1.0  0.00596  0.71322  0.65808  1.0000
  H   H497      1.0  0.04834  0.73379  0.69933  1.0000
  H   H498      1.0  0.18613  0.72241  0.82614  1.0000
  H   H499      1.0  0.30023  0.71598  0.85768  1.0000
  S   S160      1.0  0.10452  0.68774  0.95795  1.0000
  C   C482      1.0  0.35814  0.73135  0.93713  1.0000
  H   H500      1.0  0.03402  0.51380  0.85925  1.0000
  H   H501      1.0  0.12428  0.73372  0.92201  1.0000
  C   C483      1.0  0.00208  0.56905  0.77368  1.0000
  S   S161      1.0  0.20335  0.72152  0.86561  1.0000
  Fe  Fe79      1.0  0.11521  0.61635  0.86911  1.0000
  S   S162      1.0  0.08619  0.62604  0.87981  1.0000
  S   S163      1.0  0.12694  0.58840  0.86574  1.0000
  Fe  Fe80      1.0  0.12390  0.65208  0.86508  1.0000
  S   S164      1.0  0.09533  0.66487  0.87477  1.0000
  S   S165      1.0  0.14736  0.66514  0.85640  1.0000
  Fe  Fe81      1.0  0.09535  0.63949  0.89526  1.0000
  S   S166      1.0  0.08445  0.63633  0.92439  1.0000
  Fe  Fe82      1.0  0.08905  0.65012  0.85822  1.0000
  S   S167      1.0  0.07130  0.66192  0.83872  1.0000
  S   S168      1.0  0.12428  0.62757  0.88651  1.0000
  S   S169      1.0  0.11777  0.63963  0.84662  1.0000
  C   C484      1.0  0.08869  0.65180  0.93325  1.0000
  C   C485      1.0  0.09825  0.66450  0.92261  1.0000
  C   C486      1.0  0.10256  0.67597  0.93018  1.0000
  C   C487      1.0  0.09748  0.67463  0.94839  1.0000
  C   C488      1.0  0.08748  0.66227  0.95892  1.0000
  C   C489      1.0  0.08312  0.65086  0.95138  1.0000
  H   H502      1.0  0.10259  0.66530  0.90862  1.0000
  H   H503      1.0  0.11023  0.68555  0.92198  1.0000
  C   C490      1.0  0.24806  0.72486  0.83572  1.0000
  H   H504      1.0  0.07546  0.64126  0.95960  1.0000
  C   C491      1.0  0.07925  0.58947  0.81310  1.0000
  H   H505      1.0  0.15761  0.66932  0.90760  1.0000
  H   H506      1.0  0.09048  0.59986  0.86044  1.0000
  H   H507      1.0  0.11825  0.71126  0.96868  1.0000
  H   H508      1.0  0.08276  0.66175  0.97284  1.0000
  C   C492      1.0  0.15180  0.70565  0.88370  1.0000
  C   C493      1.0  0.13576  0.69998  0.88788  1.0000
  C   C494      1.0  0.13428  0.68713  0.88002  1.0000
  C   C495      1.0  0.14886  0.68000  0.86787  1.0000
  C   C496      1.0  0.16495  0.68541  0.86401  1.0000
  C   C497      1.0  0.16641  0.69814  0.87191  1.0000
  H   H509      1.0  0.12434  0.70581  0.89693  1.0000
  H   H510      1.0  0.12178  0.68309  0.88301  1.0000
  H   H511      1.0  0.17629  0.67985  0.85470  1.0000
  H   H512      1.0  0.17886  0.70218  0.86872  1.0000
  Fe  Fe83      1.0  0.17836  0.73291  0.88343  1.0000
  C   C498      1.0  0.25535  0.71163  0.84861  1.0000
  C   C499      1.0  0.11416  0.49456  0.93794  1.0000
  C   C500      1.0  0.05056  0.70874  0.67140  1.0000
  C   C501      1.0  0.12415  0.72309  0.84864  1.0000
  C   C502      1.0  0.12851  0.73602  0.85400  1.0000
  S   S170      1.0  0.11058  0.50092  0.86504  1.0000
  H   H513      1.0  0.07109  0.60555  0.92120  1.0000
  H   H514      1.0  0.10954  0.72357  0.94069  1.0000
  H   H515      1.0  0.26920  0.73142  0.95849  1.0000
  C   C503      1.0  0.03911  0.62688  0.83125  1.0000
  C   C504      1.0  0.04135  0.64257  0.81893  1.0000
  C   C505      1.0  0.05100  0.65340  0.82150  1.0000
  C   C506      1.0  0.05869  0.64844  0.83619  1.0000
  C   C507      1.0  0.05647  0.63268  0.84840  1.0000
  C   C508      1.0  0.04660  0.62201  0.84601  1.0000
  H   H516      1.0  0.03564  0.64642  0.80746  1.0000
  H   H517      1.0  0.05267  0.66558  0.81199  1.0000
  H   H518      1.0  0.06209  0.62882  0.85985  1.0000
  H   H519      1.0  0.04481  0.60994  0.85562  1.0000
  C   C509      1.0  0.02446  0.66959  0.72607  1.0000
  C   C510      1.0  0.01903  0.68747  0.71832  1.0000
  C   C511      1.0  0.01375  0.69235  0.70222  1.0000
  C   C512      1.0  0.01397  0.67933  0.69383  1.0000
  C   C513      1.0  0.01886  0.66146  0.70186  1.0000
  C   C514      1.0  0.02413  0.65659  0.71794  1.0000
  H   H520      1.0  0.01917  0.69755  0.72465  1.0000
  H   H521      1.0  0.33891  0.72192  0.91004  1.0000
  H   H522      1.0  0.27649  0.71293  0.94787  1.0000
  H   H523      1.0  0.02862  0.64277  0.72367  1.0000
  C   C515      1.0  0.37579  0.72932  0.92745  1.0000
  S   S171      1.0  0.09760  0.54168  0.95196  1.0000
  C   C516      1.0  0.03615  0.52512  0.81526  1.0000
  C   C517      1.0  0.36674  0.72193  0.90495  1.0000
  H   H524      1.0  0.05050  0.57072  0.80808  1.0000
  C   C518      1.0  0.12281  0.55085  0.90443  1.0000
  C   C519      1.0  0.10060  0.52462  0.94136  1.0000
  H   H525      1.0  0.03961  0.54386  0.85269  1.0000
  C   C520      1.0  0.44209  0.72935  0.96149  1.0000
  H   H526      1.0  0.27602  0.70266  0.86310  1.0000
  C   C521      1.0  0.28434  0.71968  0.90542  1.0000
  C   C522      1.0  0.27997  0.70332  0.91383  1.0000
  C   C523      1.0  0.26615  0.69862  0.90997  1.0000
  C   C524      1.0  0.25635  0.71043  0.89800  1.0000
  N   N42       1.0  0.13292  0.63497  0.94158  1.0000
  C   C525      1.0  0.46818  0.72441  0.97402  1.0000
  H   H527      1.0  0.28724  0.69428  0.92338  1.0000
  H   H528      1.0  0.26281  0.68594  0.91652  1.0000
  H   H529      1.0  0.10049  0.63443  0.81889  1.0000
  H   H530      1.0  0.08231  0.53956  0.92474  1.0000
  H   H531      1.0  0.11283  0.53674  0.85754  1.0000
  C   C526      1.0  0.14494  0.64781  0.91153  1.0000
  C   C527      1.0  0.44498  0.72070  0.93452  1.0000
  C   C528      1.0  0.09408  0.51357  0.91953  1.0000
  C   C529      1.0  0.09156  0.52719  0.92811  1.0000
  C   C530      1.0  0.08422  0.57680  0.85730  1.0000
  H   H532      1.0  0.04979  0.56827  0.83093  1.0000
  C   C531      1.0  0.06074  0.68236  0.69926  1.0000
  C   C532      1.0  0.09531  0.58604  0.86008  1.0000
  N   N43       1.0  0.45993  0.72264  0.96079  1.0000
  C   C533      1.0  0.11268  0.57743  0.86203  1.0000
  H   H533      1.0  0.13389  0.60940  0.95796  1.0000
  C   C534      1.0  0.12379  0.72268  0.93381  1.0000
  C   C535      1.0  0.01409  0.53286  0.77411  1.0000
  C   C536      1.0  0.02636  0.54342  0.77099  1.0000
  C   C537      1.0  0.02038  0.56150  0.77083  1.0000
  H   H534      1.0  0.38595  0.73211  0.93213  1.0000
  H   H535      1.0  0.11114  0.71985  0.85405  1.0000
  H   H536      1.0  0.01883  0.51894  0.77419  1.0000
  H   H537      1.0  0.04052  0.53758  0.76868  1.0000
  S   S172      1.0  0.30078  0.72600  0.91129  1.0000
  C   C538      1.0  0.12995  0.71692  0.96307  1.0000
  H   H538      1.0  0.25714  0.71413  0.96604  1.0000
  H   H539      1.0  0.14714  0.64836  0.89758  1.0000
  H   H540      1.0  0.08180  0.57481  0.81726  1.0000
  N   N44       1.0  0.25332  0.73128  0.94144  1.0000
  S   S173      1.0  0.00891  0.68484  0.67302  1.0000
  C   C539      1.0  0.11075  0.57569  0.91906  1.0000
  H   H541      1.0  0.11663  0.62649  0.96668  1.0000
  H   H542      1.0  0.05110  0.68761  0.65968  1.0000
  C   C540      1.0  0.03849  0.53874  0.84212  1.0000
  C   C541      1.0  0.15541  0.72446  0.96717  1.0000
  H   H543      1.0  0.15218  0.66795  0.93965  1.0000
  H   H544      1.0  0.07819  0.59356  0.79912  1.0000
  H   H545      1.0  0.06705  0.58734  0.90297  1.0000
  C   C542      1.0  0.10330  0.62064  0.81820  1.0000
  C   C543      1.0  0.07922  0.58407  0.90770  1.0000
  C   C544      1.0  0.26082  0.72671  0.88943  1.0000
  N   N45       1.0  0.09338  0.59632  0.81539  1.0000
  H   H546      1.0  0.99621  0.49256  0.73503  1.0000
  C   C545      1.0  0.11975  0.60949  0.82030  1.0000
  C   C546      1.0  0.04888  0.73188  0.68615  1.0000
  C   C547      1.0  0.09288  0.56973  0.90346  1.0000
  C   C548      1.0  0.22901  0.73309  0.92867  1.0000
  C   C549      1.0  0.47038  0.71470  0.94740  1.0000
  H   H547      1.0  0.19817  0.68633  0.97842  1.0000
  C   C550      1.0  0.03535  0.52173  0.84592  1.0000
  C   C551      1.0  0.10778  0.55038  0.85847  1.0000
  H   H548      1.0  0.09103  0.56187  0.89553  1.0000
  H   H549      1.0  0.13383  0.55600  0.89429  1.0000
  H   H550      1.0  0.13237  0.55293  0.86239  1.0000
  C   C552      1.0  0.12389  0.62170  0.95446  1.0000
  H   H551      1.0  0.32628  0.72738  0.95557  1.0000
  C   C553      1.0  0.05849  0.67777  0.68481  1.0000
  N   N46       1.0  0.15801  0.73034  0.83580  1.0000
  H   H552      1.0  0.03216  0.50162  0.83505  1.0000
  H   H553      1.0  0.23771  0.71175  0.94921  1.0000
  C   C554      1.0  0.15376  0.71782  0.83027  1.0000
  C   C555      1.0  0.26462  0.72192  0.95408  1.0000
  C   C556      1.0  0.14779  0.65881  0.93510  1.0000
  C   C557      1.0  0.13896  0.64620  0.94721  1.0000
  S   S174      1.0  0.15307  0.72248  0.89291  1.0000
  S   S175      1.0  0.00834  0.62461  0.75739  1.0000
  C   C558      1.0  0.11890  0.55963  0.86110  1.0000
  C   C559      1.0  0.15079  0.65959  0.91715  1.0000
  C   C560      1.0  0.05341  0.69102  0.67075  1.0000
  N   N47       1.0  0.04037  0.54867  0.82528  1.0000
  C   C561      1.0  0.03911  0.54212  0.81196  1.0000
  H   H554      1.0  0.00978  0.70614  0.69623  1.0000
  C   C562      1.0  0.14958  0.73023  0.93825  1.0000
  H   H555      1.0  0.11384  0.61881  0.94922  1.0000
  H   H556      1.0  0.30487  0.73147  0.83704  1.0000
  C   C563      1.0  0.04265  0.56683  0.82166  1.0000
  H   H557      1.0  0.04049  0.55001  0.79866  1.0000
  Fe  Fe84      1.0  0.21747  0.72632  0.88349  1.0000
  H   H558      1.0  0.02940  0.57611  0.82308  1.0000
  H   H559      1.0  0.11938  0.50641  0.95612  1.0000
  N   N48       1.0  0.27860  0.72686  0.84429  1.0000
  N   N49       1.0  0.10836  0.56566  0.90922  1.0000
  C   C564      1.0  0.09028  0.61381  0.81555  1.0000
  N   N50       1.0  0.05236  0.71315  0.68579  1.0000
  N   N51       1.0  0.34523  0.72827  0.93106  1.0000
  H   H560      1.0  0.11205  0.57143  0.81715  1.0000
  H   H561      1.0  0.99739  0.58302  0.77348  1.0000
  C   C565      1.0  0.09043  0.55892  0.85652  1.0000
  H   H562      1.0  0.12790  0.54258  0.91621  1.0000
  S   S176      1.0  0.07671  0.54774  0.85223  1.0000
  C   C566      1.0  0.12302  0.59178  0.81958  1.0000
  S   S177      1.0  0.00366  0.60304  0.79891  1.0000
  C   C567      1.0  0.13603  0.63546  0.92403  1.0000
  C   C568      1.0  0.09734  0.59008  0.92362  1.0000
  H   H563      1.0  0.11820  0.54209  0.89908  1.0000
  H   H564      1.0  0.08716  0.51571  0.90924  1.0000
  H   H565      1.0  0.47158  0.70769  0.92325  1.0000
  S   S178      1.0  0.07759  0.50001  0.84898  1.0000
  H   H566      1.0  0.31941  0.72222  0.93883  1.0000
  C   C569      1.0  0.08148  0.59426  0.91791  1.0000
  H   H567      1.0  0.12300  0.57240  0.92365  1.0000
  H   H568      1.0  0.09919  0.59797  0.93150  1.0000
  C   C570      1.0  0.32675  0.73080  0.94123  1.0000
  H   H569      1.0  0.13560  0.58293  0.82169  1.0000
  H   H570      1.0  0.13132  0.62647  0.91964  1.0000
  H   H571      1.0  0.07755  0.62253  0.81388  1.0000
  H   H572      1.0  0.06622  0.59469  0.82143  1.0000
  H   H573      1.0  0.07085  0.58352  0.85569  1.0000
  C   C571      1.0  0.27072  0.71283  0.85276  1.0000
  H   H574      1.0  0.36983  0.71891  0.89207  1.0000
  C   C572      1.0  0.27497  0.73119  0.89296  1.0000
  C   C573      1.0  0.29441  0.72833  0.84903  1.0000
  H   H575      1.0  0.06406  0.67215  0.71054  1.0000
  H   H576      1.0  0.47797  0.73298  0.96764  1.0000
  C   C574      1.0  0.13682  0.71394  0.83667  1.0000
  C   C575      1.0  0.38009  0.72449  0.91130  1.0000
  C   C576      1.0  0.16017  0.73091  0.94905  1.0000
  S   S179      1.0  0.19245  0.73577  0.90251  1.0000
  C   C577      1.0  0.43440  0.72868  0.94827  1.0000
  H   H577      1.0  0.23607  0.72418  0.83244  1.0000
  H   H578      1.0  0.03529  0.51993  0.80462  1.0000
  H   H579      1.0  0.13374  0.70347  0.83284  1.0000
  H   H580      1.0  0.15343  0.73510  0.92415  1.0000
  H   H581      1.0  0.39362  0.72347  0.90340  1.0000
  S   S180      1.0  0.00476  0.64499  0.78883  1.0000
  H   H582      1.0  0.48460  0.70964  0.94665  1.0000
  Fe  Fe85      1.0  0.09576  0.48809  0.89107  1.0000
  Fe  Fe86      1.0  0.06553  0.48700  0.87634  1.0000
  H   H583      1.0  0.43375  0.73578  0.97198  1.0000
  H   H584      1.0  0.42049  0.73501  0.94834  1.0000
  H   H585      1.0  0.35484  0.73551  0.94947  1.0000
  C   C578      1.0  0.19957  0.84992  0.14375  1.0000
  C   C579      1.0  0.11719  0.84309  0.29983  1.0000
  H   H586      1.0  0.16880  0.91599  0.24082  1.0000
  C   C580      1.0  0.12240  0.84860  0.28156  1.0000
  C   C581      1.0  0.02160  0.74336  0.30040  1.0000
  H   H587      1.0  0.01127  0.81351  0.28653  1.0000
  H   H588      1.0  0.14838  0.97850  0.20379  1.0000
  H   H589      1.0  0.32513  0.78938  0.01572  1.0000
  C   C582      1.0  0.06572  0.88895  0.26321  1.0000
  C   C583      1.0  0.20059  0.83346  0.01832  1.0000
  C   C584      1.0  0.06592  0.91203  0.27664  1.0000
  H   H590      1.0  0.07267  0.91776  0.30419  1.0000
  Fe  Fe87      1.0  0.12038  0.84793  0.24002  1.0000
  H   H591      1.0  0.16875  0.86238  0.12758  1.0000
  H   H592      1.0  0.26635  0.79661  0.05714  1.0000
  S   S181      1.0  0.46545  0.76710  0.01039  1.0000
  Fe  Fe88      1.0  0.41058  0.83922  0.04499  1.0000
  Fe  Fe89      1.0  0.41617  0.86271  0.06504  1.0000
  S   S182      1.0  0.39955  0.85077  0.09038  1.0000
  S   S183      1.0  0.43004  0.88258  0.06654  1.0000
  Fe  Fe90      1.0  0.41406  0.82518  0.08252  1.0000
  S   S184      1.0  0.42467  0.80085  0.10114  1.0000
  H   H593      1.0  0.13185  0.80932  0.17694  1.0000
  S   S185      1.0  0.33894  0.74950  0.97968  1.0000
  S   S186      1.0  0.43220  0.83695  0.05845  1.0000
  S   S187      1.0  0.39612  0.86632  0.04907  1.0000
  C   C585      1.0  0.10304  0.80492  0.26033  1.0000
  Fe  Fe91      1.0  0.21952  0.75989  0.01123  1.0000
  N   N52       1.0  0.14798  0.91950  0.22798  1.0000
  Fe  Fe92      1.0  0.40810  0.96115  0.10935  1.0000
  C   C586      1.0  0.07581  0.87675  0.27464  1.0000
  S   S188      1.0  0.43472  0.94389  0.11354  1.0000
  C   C587      1.0  0.22656  0.79909  0.05858  1.0000
  H   H594      1.0  0.23736  0.78699  0.01320  1.0000
  Fe  Fe93      1.0  0.38156  0.96693  0.08722  1.0000
  S   S189      1.0  0.37516  0.95553  0.06829  1.0000
  H   H595      1.0  0.48804  0.80899  0.04231  1.0000
  S   S190      1.0  0.38404  0.95002  0.11383  1.0000
  H   H596      1.0  0.47037  0.95328  0.14302  1.0000
  C   C588      1.0  0.31886  0.86244  0.04266  1.0000
  S   S191      1.0  0.12781  0.87352  0.22509  1.0000
  H   H597      1.0  0.32918  0.89117  0.10235  1.0000
  C   C589      1.0  0.28244  0.78681  0.03412  1.0000
  H   H598      1.0  0.48085  0.91050  0.07287  1.0000
  C   C590      1.0  0.23404  0.79041  0.02580  1.0000
  H   H599      1.0  0.30756  0.91904  0.10716  1.0000
  C   C591      1.0  0.08059  0.88251  0.28703  1.0000
  C   C592      1.0  0.13418  0.83601  0.16406  1.0000
  C   C593      1.0  0.17618  0.85531  0.16954  1.0000
  C   C594      1.0  0.04441  0.83181  0.22336  1.0000
  H   H600      1.0  0.47675  0.84992  0.11799  1.0000
  S   S192      1.0  0.22841  0.89414  0.08305  1.0000
  H   H601      1.0  0.05716  0.80917  0.30672  1.0000
  H   H602      1.0  0.09535  0.90902  0.29365  1.0000
  Fe  Fe94      1.0  0.22011  0.97850  0.13275  1.0000
  C   C595      1.0  0.30518  0.74636  0.98194  1.0000
  Fe  Fe95      1.0  0.25438  0.96223  0.10898  1.0000
  S   S193      1.0  0.24823  0.96691  0.13621  1.0000
  S   S194      1.0  0.27185  0.93592  0.10415  1.0000
  C   C596      1.0  0.03054  0.77567  0.28209  1.0000
  H   H603      1.0  0.04971  0.79485  0.20853  1.0000
  H   H604      1.0  0.35339  0.85738  0.04775  1.0000
  H   H605      1.0  0.27174  0.78202  0.03253  1.0000
  Fe  Fe96      1.0  0.22878  0.83034  0.10964  1.0000
  C   C597      1.0  0.17545  0.83746  0.17420  1.0000
  H   H606      1.0  0.32025  0.80381  0.04036  1.0000
  C   C598      1.0  0.09574  0.80423  0.27826  1.0000
  S   S195      1.0  0.08463  0.90787  0.21861  1.0000
  H   H607      1.0  0.06271  0.92598  0.27674  1.0000
  Fe  Fe97      1.0  0.01102  0.75369  0.24653  1.0000
  Fe  Fe98      1.0  0.10748  0.97398  0.25317  1.0000
  H   H608      1.0  0.20753  0.84353  0.01757  1.0000
  S   S196      1.0  0.10999  0.94477  0.26334  1.0000
  C   C599      1.0  0.08205  0.90585  0.30008  1.0000
  H   H609      1.0  0.49544  0.92843  0.15082  1.0000
  H   H610      1.0  0.10449  0.95812  0.30012  1.0000
  H   H611      1.0  0.18244  0.80083  0.04802  1.0000
  Fe  Fe99      1.0  0.01111  0.76177  0.20781  1.0000
  H   H612      1.0  0.29020  0.77183  0.00778  1.0000
  C   C600      1.0  0.09177  0.91834  0.23080  1.0000
  C   C601      1.0  0.10143  0.90829  0.24353  1.0000
  C   C602      1.0  0.10684  0.91658  0.25348  1.0000
  C   C603      1.0  0.10253  0.93496  0.25089  1.0000
  C   C604      1.0  0.09265  0.94513  0.23835  1.0000
  C   C605      1.0  0.08721  0.93680  0.22834  1.0000
  H   H613      1.0  0.10404  0.89408  0.24635  1.0000
  H   H614      1.0  0.11431  0.90870  0.26326  1.0000
  H   H615      1.0  0.08906  0.95937  0.23646  1.0000
  H   H616      1.0  0.07948  0.94463  0.21870  1.0000
  C   C606      1.0  0.40107  0.81324  0.00680  1.0000
  C   C607      1.0  0.02863  0.77077  0.30037  1.0000
  H   H617      1.0  0.22349  0.80250  0.07124  1.0000
  C   C608      1.0  0.12249  0.86972  0.30386  1.0000
  S   S197      1.0  0.13331  0.83466  0.21724  1.0000
  S   S198      1.0  0.22593  0.97181  0.10643  1.0000
  H   H618      1.0  0.16616  0.83260  0.18590  1.0000
  H   H619      1.0  0.43537  0.77171  0.04438  1.0000
  H   H620      1.0  0.06684  0.80112  0.24883  1.0000
  S   S199      1.0  0.22240  0.78293  0.98842  1.0000
  C   C609      1.0  0.24226  0.90536  0.08689  1.0000
  C   C610      1.0  0.25716  0.89632  0.09409  1.0000
  C   C611      1.0  0.26671  0.90579  0.09882  1.0000
  C   C612      1.0  0.26133  0.92425  0.09636  1.0000
  C   C613      1.0  0.24708  0.93323  0.08827  1.0000
  C   C614      1.0  0.23752  0.92382  0.08364  1.0000
  H   H621      1.0  0.26091  0.88204  0.09658  1.0000
  H   H622      1.0  0.27785  0.89878  0.10495  1.0000
  H   H623      1.0  0.24344  0.94747  0.08550  1.0000
  H   H624      1.0  0.22622  0.93085  0.07774  1.0000
  H   H625      1.0  0.31329  0.76458  0.00897  1.0000
  H   H626      1.0  0.42806  0.77059  0.01405  1.0000
  S   S200      1.0  0.12671  0.98621  0.25866  1.0000
  S   S201      1.0  0.03193  0.78521  0.31126  1.0000
  C   C615      1.0  0.42443  0.77183  0.98842  1.0000
  H   H627      1.0  0.21525  0.77593  0.06875  1.0000
  C   C616      1.0  0.06818  0.80140  0.27500  1.0000
  S   S202      1.0  0.19671  0.75405  0.00438  1.0000
  C   C617      1.0  0.45307  0.76915  0.99494  1.0000
  H   H628      1.0  0.46132  0.93610  0.08063  1.0000
  C   C618      1.0  0.43101  0.78597  0.04468  1.0000
  C   C619      1.0  0.13427  0.93007  0.19786  1.0000
  C   C620      1.0  0.07535  0.82205  0.20902  1.0000
  H   H629      1.0  0.24462  0.81392  0.01545  1.0000
  H   H630      1.0  0.20859  0.85485  0.13182  1.0000
  C   C621      1.0  0.43311  0.83587  0.12255  1.0000
  H   H631      1.0  0.08095  0.79863  0.19888  1.0000
  H   H632      1.0  0.44267  0.88382  0.09818  1.0000
  H   H633      1.0  0.12296  0.84180  0.17334  1.0000
  C   C622      1.0  0.47805  0.89745  0.05449  1.0000
  C   C623      1.0  0.32173  0.91845  0.10474  1.0000
  C   C624      1.0  0.19859  0.83213  0.14821  1.0000
  N   N53       1.0  0.07568  0.89994  0.28790  1.0000
  N   N54       1.0  0.45179  0.85698  0.11044  1.0000
  H   H634      1.0  0.27671  0.88230  0.06056  1.0000
  C   C625      1.0  0.16960  0.97419  0.18105  1.0000
  H   H635      1.0  0.29368  0.90169  0.06474  1.0000
  C   C626      1.0  0.19823  0.83051  0.00307  1.0000
  H   H636      1.0  0.10400  0.80516  0.28638  1.0000
  C   C627      1.0  0.05311  0.80565  0.21134  1.0000
  H   H637      1.0  0.05459  0.79995  0.28066  1.0000
  C   C628      1.0  0.32071  0.98220  0.12633  1.0000
  H   H638      1.0  0.08850  0.87298  0.29578  1.0000
  H   H639      1.0  0.45865  0.95185  0.06037  1.0000
  S   S203      1.0  0.35022  0.81149  0.01048  1.0000
  H   H640      1.0  0.08030  0.86299  0.27366  1.0000
  H   H641      1.0  0.38778  0.80002  0.99647  1.0000
  C   C629      1.0  0.07080  0.80786  0.20582  1.0000
  N   N55       1.0  0.32765  0.93295  0.10423  1.0000
  C   C630      1.0  0.32935  0.82537  0.08157  1.0000
  H   H642      1.0  0.35580  0.82975  0.07625  1.0000
  H   H643      1.0  0.33398  0.81256  0.07817  1.0000
  C   C631      1.0  0.41500  0.90302  0.06648  1.0000
  C   C632      1.0  0.41696  0.91464  0.07534  1.0000
  C   C633      1.0  0.40499  0.93100  0.07544  1.0000
  C   C634      1.0  0.39094  0.93575  0.06678  1.0000
  C   C635      1.0  0.38907  0.92422  0.05775  1.0000
  C   C636      1.0  0.40111  0.90784  0.05761  1.0000
  H   H644      1.0  0.42762  0.91102  0.08226  1.0000
  H   H645      1.0  0.40659  0.93983  0.08237  1.0000
  H   H646      1.0  0.37823  0.92787  0.05102  1.0000
  H   H647      1.0  0.39976  0.89913  0.05040  1.0000
  C   C637      1.0  0.45101  0.95631  0.10848  1.0000
  C   C638      1.0  0.07505  0.80202  0.25702  1.0000
  C   C639      1.0  0.48461  0.97334  0.14028  1.0000
  C   C640      1.0  0.48217  0.95759  0.10294  1.0000
  C   C641      1.0  0.46903  0.94773  0.10720  1.0000
  S   S204      1.0  0.40689  0.97607  0.08180  1.0000
  H   H648      1.0  0.47282  0.93346  0.10942  1.0000
  H   H649      1.0  0.17420  0.81559  0.13094  1.0000
  H   H650      1.0  0.35399  0.83118  0.03320  1.0000
  H   H651      1.0  0.44592  0.78201  0.07133  1.0000
  H   H652      1.0  0.32586  0.85111  0.03687  1.0000
  H   H653      1.0  0.15778  0.79609  0.15553  1.0000
  C   C642      1.0  0.18680  0.82586  0.16364  1.0000
  H   H654      1.0  0.47167  0.82111  0.13719  1.0000
  H   H655      1.0  0.31203  0.94986  0.12139  1.0000
  C   C643      1.0  0.48043  0.79237  0.11022  1.0000
  C   C644      1.0  0.47027  0.77957  0.11802  1.0000
  C   C645      1.0  0.45328  0.78236  0.11494  1.0000
  C   C646      1.0  0.44632  0.79794  0.10395  1.0000
  C   C647      1.0  0.45660  0.81072  0.09574  1.0000
  C   C648      1.0  0.47374  0.80792  0.09886  1.0000
  H   H656      1.0  0.47543  0.76751  0.12674  1.0000
  H   H657      1.0  0.29315  0.85667  0.04668  1.0000
  H   H658      1.0  0.45127  0.82283  0.08726  1.0000
  H   H659      1.0  0.48159  0.81785  0.09277  1.0000
  Fe  Fe100     1.0  0.35903  0.79915  0.98705  1.0000
  C   C649      1.0  0.03981  0.81774  0.21994  1.0000
  C   C650      1.0  0.27930  0.79499  0.04811  1.0000
  S   S205      1.0  0.21710  0.76262  0.03878  1.0000
  Fe  Fe101     1.0  0.10622  0.84422  0.21069  1.0000
  C   C651      1.0  0.18643  0.80943  0.03539  1.0000
  H   H660      1.0  0.44678  0.91313  0.02970  1.0000
  N   N56       1.0  0.29874  0.78490  0.02266  1.0000
  C   C652      1.0  0.45465  0.91272  0.03879  1.0000
  C   C653      1.0  0.19443  0.82304  0.03460  1.0000
  C   C654      1.0  0.13917  0.81771  0.16603  1.0000
  H   H661      1.0  0.42051  0.78788  0.05672  1.0000
  H   H662      1.0  0.09818  0.80415  0.23581  1.0000
  H   H663      1.0  0.18104  0.84384  0.11821  1.0000
  H   H664      1.0  0.18908  0.87524  0.15089  1.0000
  H   H665      1.0  0.46148  0.87140  0.08506  1.0000
  C   C655      1.0  0.06214  0.83392  0.21801  1.0000
  H   H666      1.0  0.47285  0.79179  0.07038  1.0000
  H   H667      1.0  0.11303  0.83067  0.30546  1.0000
  S   S206      1.0  0.09764  0.82455  0.20157  1.0000
  H   H668      1.0  0.35333  0.88039  0.03955  1.0000
  H   H669      1.0  0.37214  0.91576  0.09690  1.0000
  S   S207      1.0  0.01732  0.81588  0.22630  1.0000
  S   S208      1.0  0.19636  0.96879  0.15204  1.0000
  H   H670      1.0  0.16592  0.96273  0.17991  1.0000
  H   H671      1.0  0.43949  0.93750  0.04518  1.0000
  C   C656      1.0  0.22522  0.77998  0.04067  1.0000
  S   S209      1.0  0.02135  0.75130  0.18287  1.0000
  C   C657      1.0  0.23839  0.80554  0.02715  1.0000
  H   H672      1.0  0.47144  0.88723  0.03584  1.0000
  S   S210      1.0  0.02970  0.76504  0.22248  1.0000
  H   H673      1.0  0.16130  0.79547  0.02908  1.0000
  N   N57       1.0  0.18413  0.80665  0.02039  1.0000
  H   H674      1.0  0.14649  0.92161  0.25398  1.0000
  S   S211      1.0  0.24914  0.81406  0.09161  1.0000
  S   S212      1.0  0.21056  0.81801  0.13381  1.0000
  C   C658      1.0  0.48262  0.95592  0.14394  1.0000
  C   C659      1.0  0.46844  0.89813  0.04231  1.0000
  N   N58       1.0  0.45971  0.92540  0.05993  1.0000
  C   C660      1.0  0.47346  0.91128  0.06325  1.0000
  C   C661      1.0  0.45053  0.92640  0.04767  1.0000
  H   H675      1.0  0.17536  0.79083  0.00862  1.0000
  H   H676      1.0  0.11668  0.80645  0.25472  1.0000
  H   H677      1.0  0.12338  0.94877  0.31037  1.0000
  C   C662      1.0  0.45477  0.93972  0.06935  1.0000
  S   S213      1.0  0.34545  0.97438  0.14690  1.0000
  C   C663      1.0  0.11062  0.94658  0.30944  1.0000
  H   H678      1.0  0.19653  0.82505  0.04648  1.0000
  H   H679      1.0  0.18248  0.77971  0.02879  1.0000
  H   H680      1.0  0.18792  0.81488  0.99244  1.0000
  H   H681      1.0  0.44014  0.94267  0.07490  1.0000
  H   H682      1.0  0.33167  0.97805  0.11599  1.0000
  H   H683      1.0  0.30553  0.78568  0.99526  1.0000
  N   N59       1.0  0.21354  0.92269  0.12783  1.0000
  C   C664      1.0  0.22516  0.92602  0.13541  1.0000
  C   C665      1.0  0.21502  0.90594  0.12607  1.0000
  C   C666      1.0  0.23857  0.91235  0.14165  1.0000
  C   C667      1.0  0.22809  0.89190  0.13242  1.0000
  C   C668      1.0  0.23997  0.89517  0.14021  1.0000
  C   C669      1.0  0.20020  0.93735  0.12051  1.0000
  H   H684      1.0  0.22421  0.93935  0.13653  1.0000
  H   H685      1.0  0.20637  0.90340  0.11932  1.0000
  C   C670      1.0  0.09262  0.80375  0.24969  1.0000
  H   H686      1.0  0.22933  0.87869  0.13079  1.0000
  H   H687      1.0  0.25045  0.88447  0.14478  1.0000
  H   H688      1.0  0.20603  0.94311  0.10665  1.0000
  H   H689      1.0  0.18817  0.93284  0.12092  1.0000
  H   H690      1.0  0.19573  0.94791  0.12813  1.0000
  C   C671      1.0  0.02785  0.76459  0.27303  1.0000
  H   H691      1.0  0.42484  0.79299  0.03323  1.0000
  S   S214      1.0  0.23773  0.83042  0.04410  1.0000
  C   C672      1.0  0.22187  0.78410  0.05714  1.0000
  S   S215      1.0  0.16156  0.87034  0.18196  1.0000
  H   H692      1.0  0.18615  0.81207  0.16723  1.0000
  H   H693      1.0  0.03417  0.84126  0.22993  1.0000
  H   H694      1.0  0.03392  0.78813  0.27480  1.0000
  Fe  Fe102     1.0  0.13790  0.86137  0.20160  1.0000
  C   C673      1.0  0.23435  0.81010  0.04346  1.0000
  H   H695      1.0  0.06549  0.84495  0.22046  1.0000
  H   H696      1.0  0.30197  0.95036  0.10390  1.0000
  C   C674      1.0  0.30952  0.79909  0.03868  1.0000
  N   N60       1.0  0.44639  0.79275  0.04406  1.0000
  C   C675      1.0  0.46435  0.84613  0.11943  1.0000
  C   C676      1.0  0.46149  0.82993  0.13041  1.0000
  C   C677      1.0  0.45527  0.87361  0.09856  1.0000
  C   C678      1.0  0.30066  0.89078  0.05831  1.0000
  H   H697      1.0  0.29064  0.80749  0.06117  1.0000
  Fe  Fe103     1.0  0.23904  0.83495  0.06982  1.0000
  Fe  Fe104     1.0  0.23717  0.86465  0.08704  1.0000
  C   C679      1.0  0.44571  0.82485  0.13202  1.0000
  C   C680      1.0  0.43647  0.85194  0.11164  1.0000
  H   H698      1.0  0.46430  0.87896  0.10289  1.0000
  H   H699      1.0  0.47662  0.81506  0.01532  1.0000
  S   S216      1.0  0.35125  0.86456  0.08246  1.0000
  H   H700      1.0  0.45029  0.80409  0.01654  1.0000
  C   C681      1.0  0.29113  0.87984  0.05602  1.0000
  C   C682      1.0  0.34175  0.83508  0.08054  1.0000
  H   H701      1.0  0.42686  0.86027  0.10394  1.0000
  Fe  Fe105     1.0  0.38057  0.85216  0.07402  1.0000
  C   C683      1.0  0.33386  0.90264  0.10209  1.0000
  H   H702      1.0  0.36165  0.88952  0.09689  1.0000
  H   H703      1.0  0.12850  0.93405  0.18638  1.0000
  C   C684      1.0  0.15360  0.81032  0.15399  1.0000
  H   H704      1.0  0.32006  0.96108  0.09904  1.0000
  C   C685      1.0  0.46995  0.80782  0.02767  1.0000
  C   C686      1.0  0.47640  0.80435  0.04283  1.0000
  C   C687      1.0  0.35211  0.90167  0.09912  1.0000
  H   H705      1.0  0.44358  0.81205  0.14001  1.0000
  C   C688      1.0  0.30029  0.86554  0.04820  1.0000
  H   H706      1.0  0.13259  0.88732  0.28014  1.0000
  C   C689      1.0  0.18974  0.81708  0.00437  1.0000
  C   C690      1.0  0.46785  0.79480  0.05856  1.0000
  H   H707      1.0  0.11357  0.93482  0.30365  1.0000
  C   C691      1.0  0.31103  0.83214  0.08690  1.0000
  H   H708      1.0  0.42116  0.83166  0.12315  1.0000
  N   N61       1.0  0.32809  0.87335  0.04473  1.0000
  C   C692      1.0  0.35799  0.91639  0.09906  1.0000
  S   S217      1.0  0.29605  0.81954  0.08769  1.0000
  S   S218      1.0  0.25812  0.85170  0.06700  1.0000
  H   H709      1.0  0.35177  0.86764  0.02527  1.0000
  H   H710      1.0  0.32666  0.89545  0.05497  1.0000
  C   C693      1.0  0.34759  0.86958  0.03898  1.0000
  C   C694      1.0  0.36707  0.82635  0.02570  1.0000
  C   C695      1.0  0.31220  0.79091  0.02479  1.0000
  S   S219      1.0  0.41750  0.83098  0.01936  1.0000
  Fe  Fe106     1.0  0.10124  0.88039  0.21812  1.0000
  C   C696      1.0  0.12802  0.87512  0.28559  1.0000
  H   H711      1.0  0.12626  0.95605  0.20358  1.0000
  C   C697      1.0  0.34551  0.93201  0.10168  1.0000
  C   C698      1.0  0.31928  0.88726  0.05264  1.0000
  H   H712      1.0  0.24799  0.91517  0.14728  1.0000
  H   H713      1.0  0.41019  0.77278  0.99278  1.0000
  C   C699      1.0  0.45497  0.80172  0.02848  1.0000
  C   C700      1.0  0.06059  0.90668  0.26430  1.0000
  H   H714      1.0  0.13207  0.86893  0.26038  1.0000
  S   S220      1.0  0.12175  0.83513  0.26817  1.0000
  C   C701      1.0  0.31480  0.94935  0.10732  1.0000
  H   H715      1.0  0.35023  0.94343  0.10150  1.0000
  S   S221      1.0  0.24061  0.73993  0.99765  1.0000
  C   C702      1.0  0.12775  0.86470  0.27442  1.0000
  H   H716      1.0  0.15506  0.89977  0.25018  1.0000
  H   H717      1.0  0.08345  0.89538  0.31220  1.0000
  S   S222      1.0  0.24741  0.84633  0.11025  1.0000
  C   C703      1.0  0.13299  0.94239  0.20751  1.0000
  C   C704      1.0  0.30203  0.77634  0.00799  1.0000
  C   C705      1.0  0.17537  0.79249  0.02175  1.0000
  C   C706      1.0  0.36906  0.81567  0.01409  1.0000
  C   C707      1.0  0.15500  0.91393  0.24399  1.0000
  C   C708      1.0  0.14014  0.93687  0.22252  1.0000
  C   C709      1.0  0.14376  0.84673  0.15011  1.0000
  C   C710      1.0  0.45268  0.78919  0.05898  1.0000
  H   H718      1.0  0.02937  0.76856  0.25893  1.0000
  C   C711      1.0  0.43458  0.77054  0.00045  1.0000
  H   H719      1.0  0.13995  0.86094  0.14889  1.0000
  N   N62       1.0  0.07847  0.80257  0.28535  1.0000
  H   H720      1.0  0.15652  0.89378  0.22225  1.0000
  S   S223      1.0  0.39355  0.82509  0.06864  1.0000
  C   C712      1.0  0.33593  0.85161  0.08493  1.0000
  C   C713      1.0  0.29293  0.80115  0.05036  1.0000
  H   H721      1.0  0.48883  0.88618  0.05734  1.0000
  C   C714      1.0  0.38610  0.80883  0.00492  1.0000
  H   H722      1.0  0.05339  0.91635  0.25494  1.0000
  Fe  Fe107     1.0  0.26681  0.83191  0.09012  1.0000
  C   C715      1.0  0.39898  0.82463  0.01773  1.0000
  H   H723      1.0  0.14422  0.90289  0.19558  1.0000
  H   H724      1.0  0.44542  0.77244  0.12126  1.0000
  H   H725      1.0  0.15987  0.85582  0.11275  1.0000
  S   S224      1.0  0.37239  0.77051  0.98915  1.0000
  Fe  Fe108     1.0  0.21794  0.73628  0.98859  1.0000
  H   H726      1.0  0.29098  0.85391  0.09556  1.0000
  S   S225      1.0  0.09293  0.85547  0.23467  1.0000
  C   C716      1.0  0.14987  0.90747  0.21824  1.0000
  Fe  Fe109     1.0  0.01051  0.79092  0.22516  1.0000
  C   C717      1.0  0.30511  0.84868  0.09134  1.0000
  C   C718      1.0  0.31758  0.85835  0.09046  1.0000
  H   H727      1.0  0.31297  0.87112  0.09391  1.0000
  H   H728      1.0  0.38051  0.83953  0.03603  1.0000
  H   H729      1.0  0.41423  0.80770  0.99989  1.0000
  N   N63       1.0  0.15790  0.83940  0.13836  1.0000
  C   C719      1.0  0.16278  0.82144  0.14006  1.0000
  C   C720      1.0  0.14298  0.91256  0.20309  1.0000
  H   H730      1.0  0.43796  0.83015  0.98242  1.0000
  S   S226      1.0  0.21702  0.84979  0.08786  1.0000
  H   H731      1.0  0.13890  0.94648  0.23009  1.0000
  Fe  Fe110     1.0  0.20162  0.77533  0.98041  1.0000
  S   S227      1.0  0.11174  0.87007  0.19340  1.0000
  C   C721      1.0  0.38204  0.83093  0.02742  1.0000
  C   C722      1.0  0.16729  0.85094  0.12345  1.0000
  C   C723      1.0  0.18845  0.86145  0.15447  1.0000
  H   H732      1.0  0.06239  0.88485  0.25311  1.0000
  C   C724      1.0  0.11701  0.85371  0.31092  1.0000
  C   C725      1.0  0.02341  0.74841  0.28213  1.0000
  C   C726      1.0  0.15969  0.98306  0.19458  1.0000
  H   H733      1.0  0.27881  0.74349  0.98330  1.0000
  Fe  Fe111     1.0  0.36834  0.97450  0.12338  1.0000
  C   C727      1.0  0.18433  0.98006  0.16900  1.0000
  H   H734      1.0  0.20309  0.83845  0.99031  1.0000
  C   C728      1.0  0.07107  0.80121  0.30427  1.0000
  C   C729      1.0  0.32382  0.98108  0.14281  1.0000
  C   C730      1.0  0.44616  0.97475  0.10560  1.0000
  C   C731      1.0  0.47725  0.97601  0.10046  1.0000
  H   H735      1.0  0.07074  0.78721  0.31091  1.0000
  H   H736      1.0  0.07898  0.80605  0.31047  1.0000
  C   C732      1.0  0.02408  0.75462  0.30954  1.0000
  C   C733      1.0  0.00948  0.73756  0.17951  1.0000
  C   C734      1.0  0.99787  0.81240  0.28725  1.0000
  C   C735      1.0  0.45924  0.98455  0.10183  1.0000
  H   H737      1.0  0.43229  0.98145  0.10655  1.0000
  H   H738      1.0  0.99966  0.82156  0.25950  1.0000
  Fe  Fe112     1.0  0.49374  0.77042  0.99969  1.0000
  S   S228      1.0  0.39267  0.98412  0.12176  1.0000
  H   H739      1.0  0.02455  0.73712  0.15299  1.0000
  H   H740      1.0  0.47382  0.98408  0.13638  1.0000
  H   H741      1.0  0.31178  0.98541  0.16896  1.0000
  C   C736      1.0  0.00196  0.82108  0.63277  1.0000
  S   S229      1.0  0.12241  0.84178  0.35756  1.0000
  H   H742      1.0  0.02506  0.96024  0.47267  1.0000
  Fe  Fe113     1.0  0.05960  0.87592  0.49114  1.0000
  S   S230      1.0  0.06191  0.84797  0.50672  1.0000
  S   S231      1.0  0.03539  0.89148  0.48064  1.0000
  Fe  Fe114     1.0  0.09611  0.87738  0.49325  1.0000
  S   S232      1.0  0.10166  0.84964  0.50916  1.0000
  S   S233      1.0  0.11758  0.89278  0.48294  1.0000
  Fe  Fe115     1.0  0.08971  0.84348  0.49032  1.0000
  S   S234      1.0  0.10293  0.81907  0.47962  1.0000
  Fe  Fe116     1.0  0.07343  0.85679  0.52411  1.0000
  S   S235      1.0  0.06210  0.84883  0.55310  1.0000
  S   S236      1.0  0.08642  0.87070  0.47317  1.0000
  S   S237      1.0  0.06879  0.88525  0.50984  1.0000
  Fe  Fe117     1.0  0.09608  0.95245  0.54063  1.0000
  H   H743      1.0  0.14968  0.82196  0.62424  1.0000
  S   S238      1.0  0.12223  0.93326  0.53653  1.0000
  Fe  Fe118     1.0  0.08410  0.87596  0.37872  1.0000
  S   S239      1.0  0.06150  0.89543  0.39105  1.0000
  H   H744      1.0  0.12543  0.86645  0.46216  1.0000
  Fe  Fe119     1.0  0.11958  0.85090  0.38199  1.0000
  S   S240      1.0  0.13944  0.83709  0.39893  1.0000
  Fe  Fe120     1.0  0.11216  0.87031  0.34591  1.0000
  S   S241      1.0  0.09144  0.84797  0.39312  1.0000
  S   S242      1.0  0.08332  0.86907  0.35417  1.0000
  Fe  Fe121     1.0  0.00829  0.77387  0.49121  1.0000
  S   S243      1.0  0.09478  0.92482  0.43518  1.0000
  C   C737      1.0  0.08028  0.74373  0.42744  1.0000
  S   S244      1.0  0.00004  0.76096  0.62876  1.0000
  C   C738      1.0  0.14700  0.86560  0.42141  1.0000
  S   S245      1.0  0.11229  0.87975  0.36945  1.0000
  H   H745      1.0  0.05812  0.80500  0.43386  1.0000
  C   C739      1.0  0.02298  0.84633  0.54012  1.0000
  C   C740      1.0  0.06140  0.82016  0.37600  1.0000
  Fe  Fe122     1.0  0.09291  0.84538  0.63194  1.0000
  H   H746      1.0  0.02679  0.97356  0.58897  1.0000
  S   S246      1.0  0.11021  0.84244  0.60540  1.0000
  H   H747      1.0  0.09768  0.78569  0.48334  1.0000
  S   S247      1.0  0.03517  0.95830  0.52937  1.0000
  S   S248      1.0  0.03531  0.76128  0.49713  1.0000
  C   C741      1.0  0.02064  0.97856  0.52314  1.0000
  H   H748      1.0  0.09125  0.78944  0.42531  1.0000
  H   H749      1.0  0.08566  0.91227  0.36153  1.0000
  C   C742      1.0  0.05956  0.84776  0.42938  1.0000
  C   C743      1.0  0.05005  0.76056  0.41357  1.0000
  H   H750      1.0  0.11243  0.84952  0.32493  1.0000
  H   H751      1.0  0.05766  0.78656  0.60867  1.0000
  Fe  Fe123     1.0  0.03792  0.76052  0.37493  1.0000
  C   C744      1.0  0.12808  0.98070  0.47778  1.0000
  H   H752      1.0  0.13542  0.97231  0.32152  1.0000
  C   C745      1.0  0.11258  0.94569  0.45735  1.0000
  H   H753      1.0  0.07444  0.80134  0.51004  1.0000
  C   C746      1.0  0.11842  0.95384  0.48182  1.0000
  C   C747      1.0  0.01565  0.82937  0.63107  1.0000
  H   H754      1.0  0.09854  0.95115  0.45599  1.0000
  H   H755      1.0  0.06861  0.93846  0.37378  1.0000
  S   S249      1.0  0.12161  0.88340  0.31771  1.0000
  H   H756      1.0  0.13721  0.84383  0.62685  1.0000
  Fe  Fe124     1.0  0.02498  0.77772  0.34086  1.0000
  S   S250      1.0  0.12141  0.97216  0.35813  1.0000
  C   C748      1.0  0.14812  0.87622  0.40442  1.0000
  H   H757      1.0  0.09012  0.97199  0.32581  1.0000
  C   C749      1.0  0.05444  0.80519  0.38436  1.0000
  H   H758      1.0  0.03094  0.79467  0.39314  1.0000
  C   C750      1.0  0.13839  0.86166  0.45355  1.0000
  H   H759      1.0  0.06924  0.73650  0.51955  1.0000
  H   H760      1.0  0.05529  0.84826  0.36538  1.0000
  H   H761      1.0  0.07596  0.82288  0.43953  1.0000
  H   H762      1.0  0.07090  0.94218  0.49569  1.0000
  C   C751      1.0  0.09193  0.76121  0.48377  1.0000
  C   C752      1.0  0.05465  0.80126  0.60612  1.0000
  C   C753      1.0  0.00549  0.87006  0.46324  1.0000
  H   H763      1.0  0.07781  0.78678  0.53060  1.0000
  C   C754      1.0  0.07842  0.73965  0.41244  1.0000
  H   H764      1.0  0.02255  0.75071  0.32363  1.0000
  C   C755      1.0  0.09989  0.78946  0.41236  1.0000
  C   C756      1.0  0.07076  0.98039  0.60504  1.0000
  H   H765      1.0  0.09768  0.76048  0.38065  1.0000
  C   C757      1.0  0.11393  0.79820  0.40668  1.0000
  H   H766      1.0  0.11625  0.80521  0.41513  1.0000
  C   C758      1.0  0.06897  0.90225  0.40581  1.0000
  C   C759      1.0  0.08431  0.89218  0.41169  1.0000
  C   C760      1.0  0.09144  0.89832  0.42216  1.0000
  C   C761      1.0  0.08367  0.91500  0.42600  1.0000
  H   H767      1.0  0.09091  0.87988  0.40774  1.0000
  H   H768      1.0  0.10339  0.89051  0.42646  1.0000
  Fe  Fe125     1.0  0.05717  0.96349  0.53797  1.0000
  C   C762      1.0  0.06455  0.82934  0.43361  1.0000
  H   H769      1.0  0.09793  0.76168  0.46993  1.0000
  C   C763      1.0  0.07600  0.84675  0.56722  1.0000
  C   C764      1.0  0.09348  0.84922  0.56074  1.0000
  C   C765      1.0  0.10417  0.84743  0.57250  1.0000
  C   C766      1.0  0.09735  0.84330  0.59070  1.0000
  C   C767      1.0  0.07996  0.84062  0.59710  1.0000
  C   C768      1.0  0.06929  0.84245  0.58538  1.0000
  H   H770      1.0  0.09874  0.85257  0.54672  1.0000
  H   H771      1.0  0.11764  0.84948  0.56747  1.0000
  H   H772      1.0  0.07477  0.83699  0.61109  1.0000
  H   H773      1.0  0.05575  0.84068  0.59033  1.0000
  C   C769      1.0  0.11271  0.82401  0.45713  1.0000
  C   C770      1.0  0.12888  0.81328  0.45044  1.0000
  C   C771      1.0  0.13713  0.81741  0.43257  1.0000
  C   C772      1.0  0.12895  0.83195  0.42124  1.0000
  C   C773      1.0  0.11266  0.84248  0.42788  1.0000
  C   C774      1.0  0.10457  0.83860  0.44581  1.0000
  H   H774      1.0  0.13523  0.80199  0.45916  1.0000
  H   H775      1.0  0.08144  0.91708  0.48031  1.0000
  H   H776      1.0  0.10652  0.85386  0.41926  1.0000
  H   H777      1.0  0.09193  0.84676  0.45083  1.0000
  C   C775      1.0  0.11900  0.90269  0.49889  1.0000
  C   C776      1.0  0.13548  0.90528  0.49909  1.0000
  C   C777      1.0  0.13663  0.91389  0.51136  1.0000
  C   C778      1.0  0.12119  0.92041  0.52300  1.0000
  C   C779      1.0  0.10468  0.91790  0.52275  1.0000
  C   C780      1.0  0.10363  0.90883  0.51083  1.0000
  H   H778      1.0  0.14738  0.90057  0.48982  1.0000
  H   H779      1.0  0.14937  0.91599  0.51146  1.0000
  H   H780      1.0  0.09271  0.92301  0.53169  1.0000
  H   H781      1.0  0.09085  0.90705  0.51062  1.0000
  C   C781      1.0  0.07832  0.95700  0.35052  1.0000
  H   H782      1.0  0.00375  0.89550  0.46812  1.0000
  C   C782      1.0  0.12345  0.96524  0.48878  1.0000
  H   H783      1.0  0.99876  0.96680  0.52561  1.0000
  Fe  Fe126     1.0  0.09354  0.84138  0.36771  1.0000
  C   C783      1.0  0.01557  0.85276  0.46367  1.0000
  H   H784      1.0  0.12238  0.97594  0.43966  1.0000
  C   C784      1.0  0.01187  0.88235  0.46773  1.0000
  C   C785      1.0  0.02848  0.87738  0.47229  1.0000
  C   C786      1.0  0.03895  0.86045  0.47163  1.0000
  C   C787      1.0  0.03238  0.84811  0.46764  1.0000
  S   S251      1.0  0.03869  0.78675  0.35618  1.0000
  H   H785      1.0  0.02414  0.81827  0.54626  1.0000
  H   H786      1.0  0.05209  0.85674  0.47437  1.0000
  H   H787      1.0  0.04051  0.83509  0.46736  1.0000
  H   H788      1.0  0.08543  0.77493  0.40516  1.0000
  H   H789      1.0  0.11441  0.94211  0.49053  1.0000
  N   N64       1.0  0.09867  0.94428  0.32692  1.0000
  Fe  Fe127     1.0  0.01791  0.80930  0.47345  1.0000
  H   H790      1.0  0.07112  0.96859  0.35586  1.0000
  H   H791      1.0  0.15156  0.85140  0.42295  1.0000
  H   H792      1.0  0.04843  0.92607  0.40635  1.0000
  H   H793      1.0  0.13144  0.91620  0.41542  1.0000
  C   C788      1.0  0.03973  0.82796  0.42306  1.0000
  N   N65       1.0  0.08393  0.77439  0.50879  1.0000
  H   H794      1.0  0.04356  0.82889  0.62158  1.0000
  C   C789      1.0  0.07700  0.94014  0.36060  1.0000
  C   C790      1.0  0.09770  0.92766  0.33685  1.0000
  H   H795      1.0  0.03805  0.92250  0.45016  1.0000
  C   C791      1.0  0.12798  0.98438  0.45996  1.0000
  C   C792      1.0  0.08326  0.78924  0.51616  1.0000
  C   C793      1.0  0.02155  0.87825  0.53171  1.0000
  H   H796      1.0  0.11351  0.93221  0.46602  1.0000
  H   H797      1.0  0.02895  0.84541  0.55087  1.0000
  C   C794      1.0  0.07796  0.98220  0.63152  1.0000
  H   H798      1.0  0.15313  0.87019  0.39308  1.0000
  H   H799      1.0  0.00850  0.86128  0.42237  1.0000
  C   C795      1.0  0.07625  0.76064  0.51893  1.0000
  H   H800      1.0  0.00677  0.87606  0.50698  1.0000
  C   C796      1.0  0.14037  0.82973  0.63377  1.0000
  S   S252      1.0  0.04562  0.79965  0.47835  1.0000
  H   H801      1.0  0.06309  0.91343  0.46234  1.0000
  H   H802      1.0  0.09462  0.78139  0.36526  1.0000
  C   C797      1.0  0.13479  0.89094  0.43379  1.0000
  C   C798      1.0  0.12316  0.98233  0.32272  1.0000
  Fe  Fe128     1.0  0.06910  0.97216  0.56631  1.0000
  H   H803      1.0  0.07694  0.97784  0.64551  1.0000
  C   C799      1.0  0.06903  0.92659  0.47886  1.0000
  C   C800      1.0  0.02022  0.83094  0.53765  1.0000
  H   H804      1.0  0.06478  0.80480  0.61071  1.0000
  H   H805      1.0  0.05617  0.80681  0.59175  1.0000
  C   C801      1.0  0.00564  0.80635  0.62551  1.0000
  C   C802      1.0  0.14251  0.89453  0.40222  1.0000
  C   C803      1.0  0.12154  0.78917  0.37906  1.0000
  N   N66       1.0  0.09301  0.90461  0.59108  1.0000
  C   C804      1.0  0.10580  0.91334  0.58024  1.0000
  C   C805      1.0  0.08139  0.91126  0.60484  1.0000
  C   C806      1.0  0.10745  0.92897  0.58326  1.0000
  C   C807      1.0  0.08272  0.92681  0.60831  1.0000
  C   C808      1.0  0.09587  0.93567  0.59745  1.0000
  C   C809      1.0  0.09120  0.88857  0.58729  1.0000
  H   H806      1.0  0.11472  0.90831  0.56905  1.0000
  H   H807      1.0  0.07097  0.90460  0.61323  1.0000
  H   H808      1.0  0.11746  0.93597  0.57445  1.0000
  H   H809      1.0  0.07344  0.93209  0.61921  1.0000
  H   H810      1.0  0.09684  0.94789  0.59986  1.0000
  H   H811      1.0  0.08471  0.88003  0.59928  1.0000
  H   H812      1.0  0.08316  0.89214  0.57716  1.0000
  H   H813      1.0  0.10451  0.88046  0.58240  1.0000
  H   H814      1.0  0.12114  0.94402  0.44428  1.0000
  H   H815      1.0  0.04076  0.87027  0.41893  1.0000
  Fe  Fe129     1.0  0.10292  0.97555  0.38413  1.0000
  H   H816      1.0  0.12348  0.96221  0.50268  1.0000
  H   H817      1.0  0.02194  0.86527  0.40011  1.0000
  N   N67       1.0  0.01854  0.86224  0.52894  1.0000
  S   S253      1.0  0.06419  0.85963  0.63507  1.0000
  S   S254      1.0  0.00388  0.82148  0.38017  1.0000
  C   C810      1.0  0.06709  0.75643  0.43538  1.0000
  C   C811      1.0  0.00773  0.84825  0.51274  1.0000
  S   S255      1.0  0.01130  0.76997  0.39189  1.0000
  S   S256      1.0  0.06201  0.74423  0.38564  1.0000
  C   C812      1.0  0.06945  0.97499  0.62321  1.0000
  H   H818      1.0  0.02596  0.78827  0.61155  1.0000
  S   S257      1.0  0.02675  0.75045  0.35809  1.0000
  S   S258      1.0  0.11306  0.96762  0.40898  1.0000
  C   C813      1.0  0.04741  0.95299  0.48488  1.0000
  H   H819      1.0  0.02280  0.85007  0.37000  1.0000
  H   H820      1.0  0.03651  0.78153  0.56732  1.0000
  Fe  Fe130     1.0  0.01117  0.79556  0.37201  1.0000
  H   H821      1.0  0.13543  0.80536  0.38524  1.0000
  C   C814      1.0  0.07592  0.74701  0.51161  1.0000
  C   C815      1.0  0.09686  0.78089  0.40107  1.0000
  Fe  Fe131     1.0  0.04557  0.77563  0.46980  1.0000
  S   S259      1.0  0.09515  0.97706  0.54860  1.0000
  C   C816      1.0  0.03742  0.95074  0.47435  1.0000
  C   C817      1.0  0.01265  0.83193  0.52379  1.0000
  C   C818      1.0  0.09174  0.77475  0.49143  1.0000
  S   S260      1.0  0.00696  0.83695  0.45965  1.0000
  H   H822      1.0  0.04196  0.77491  0.43410  1.0000
  H   H823      1.0  0.01312  0.84043  0.63721  1.0000
  H   H824      1.0  0.03186  0.82010  0.42093  1.0000
  H   H825      1.0  0.11637  0.76656  0.36400  1.0000
  H   H826      1.0  0.09680  0.79182  0.51347  1.0000
  C   C819      1.0  0.02309  0.80000  0.61679  1.0000
  H   H827      1.0  0.06707  0.85574  0.43189  1.0000
  C   C820      1.0  0.01064  0.86340  0.51562  1.0000
  S   S261      1.0  0.08451  0.81745  0.36914  1.0000
  N   N68       1.0  0.10785  0.78046  0.38483  1.0000
  H   H828      1.0  0.03053  0.94616  0.44466  1.0000
  H   H829      1.0  0.12915  0.89683  0.44520  1.0000
  N   N69       1.0  0.03494  0.84603  0.41901  1.0000
  C   C821      1.0  0.06787  0.92475  0.42073  1.0000
  C   C822      1.0  0.06037  0.91827  0.41083  1.0000
  H   H830      1.0  0.02469  0.88774  0.51898  1.0000
  H   H831      1.0  0.02009  0.76151  0.53208  1.0000
  H   H832      1.0  0.14979  0.80925  0.42751  1.0000
  N   N70       1.0  0.13995  0.87297  0.43582  1.0000
  N   N71       1.0  0.11839  0.95752  0.46433  1.0000
  H   H833      1.0  0.04277  0.96402  0.49139  1.0000
  C   C823      1.0  0.12479  0.79817  0.38990  1.0000
  C   C824      1.0  0.05460  0.81933  0.43041  1.0000
  Fe  Fe132     1.0  0.09106  0.95287  0.42005  1.0000
  C   C825      1.0  0.02922  0.77296  0.54794  1.0000
  H   H834      1.0  0.14307  0.90293  0.38913  1.0000
  C   C826      1.0  0.13604  0.90198  0.41697  1.0000
  C   C827      1.0  0.12295  0.97264  0.45343  1.0000
  S   S262      1.0  0.07062  0.76293  0.45279  1.0000
  C   C828      1.0  0.10401  0.77179  0.37309  1.0000
  H   H835      1.0  0.06170  0.93757  0.42381  1.0000
  H   H836      1.0  0.01872  0.93288  0.46405  1.0000
  C   C829      1.0  0.08375  0.74738  0.49387  1.0000
  C   C830      1.0  0.01418  0.74859  0.55925  1.0000
  C   C831      1.0  0.06325  0.94075  0.48724  1.0000
  S   S263      1.0  0.00467  0.79815  0.50102  1.0000
  C   C832      1.0  0.04466  0.85594  0.42201  1.0000
  C   C833      1.0  0.05861  0.92464  0.46857  1.0000
  C   C834      1.0  0.05196  0.76478  0.42845  1.0000
  C   C835      1.0  0.04991  0.83665  0.37191  1.0000
  H   H837      1.0  0.12965  0.78967  0.36584  1.0000
  C   C836      1.0  0.01882  0.85502  0.41220  1.0000
  N   N72       1.0  0.04303  0.93665  0.46643  1.0000
  H   H838      1.0  0.06983  0.76040  0.53265  1.0000
  H   H839      1.0  0.06320  0.79242  0.38748  1.0000
  H   H840      1.0  0.01066  0.82003  0.52165  1.0000
  N   N73       1.0  0.03650  0.80806  0.61542  1.0000
  C   C837      1.0  0.08920  0.95884  0.33356  1.0000
  H   H841      1.0  0.03840  0.76703  0.40834  1.0000
  S   S264      1.0  0.08266  0.95895  0.39457  1.0000
  H   H842      1.0  0.00949  0.88472  0.54027  1.0000
  S   S265      1.0  0.07098  0.94655  0.55943  1.0000
  H   H843      1.0  0.13881  0.84779  0.45350  1.0000
  C   C838      1.0  0.03014  0.77245  0.56508  1.0000
  S   S266      1.0  0.01868  0.78610  0.46304  1.0000
  C   C839      1.0  0.02268  0.76020  0.57937  1.0000
  C   C840      1.0  0.03292  0.82270  0.62224  1.0000
  S   S267      1.0  0.08260  0.96617  0.51829  1.0000
  C   C841      1.0  0.02111  0.76111  0.54513  1.0000
  S   S268      1.0  0.07080  0.97503  0.43053  1.0000
  H   H844      1.0  0.14927  0.86186  0.45942  1.0000
  C   C842      1.0  0.01459  0.74831  0.57644  1.0000
  Fe  Fe133     1.0  0.03243  0.78651  0.50513  1.0000
  C   C843      1.0  0.03152  0.83773  0.37465  1.0000
  S   S269      1.0  0.03849  0.78816  0.52998  1.0000
  H   H845      1.0  0.03313  0.87511  0.53793  1.0000
  C   C844      1.0  0.02484  0.82236  0.38186  1.0000
  C   C845      1.0  0.08667  0.92538  0.35372  1.0000
  C   C846      1.0  0.03615  0.80641  0.38755  1.0000
  H   H846      1.0  0.02328  0.75986  0.59258  1.0000
  S   S270      1.0  0.99752  0.78905  0.35495  1.0000
  H   H847      1.0  0.10551  0.91606  0.33179  1.0000
  S   S271      1.0  0.05966  0.97117  0.59527  1.0000
  H   H848      1.0  0.06188  0.96513  0.63091  1.0000
  C   C847      1.0  0.00828  0.97756  0.57288  1.0000
  H   H849      1.0  0.01144  0.96379  0.57208  1.0000
  C   C848      1.0  0.03205  0.93450  0.45576  1.0000
  H   H850      1.0  0.16275  0.84789  0.63543  1.0000
  C   C849      1.0  0.06339  0.74826  0.40532  1.0000
  C   C850      1.0  0.01702  0.98321  0.58228  1.0000
  H   H851      1.0  0.01308  0.84568  0.40883  1.0000
  H   H852      1.0  0.12762  0.82519  0.63812  1.0000
  Fe  Fe134     1.0  0.00025  0.76244  0.37341  1.0000
  C   C851      1.0  0.00303  0.97901  0.52317  1.0000
  Fe  Fe135     1.0  0.06414  0.98244  0.40397  1.0000
  H   H853      1.0  0.00407  0.75209  0.43125  1.0000
  H   H854      1.0  0.00186  0.84913  0.50190  1.0000
  C   C852      1.0  0.11362  0.98526  0.33938  1.0000
  H   H855      1.0  0.09207  0.73726  0.43270  1.0000
  H   H856      1.0  0.00849  0.73912  0.55677  1.0000
  S   S272      1.0  0.04562  0.75558  0.64245  1.0000
  H   H857      1.0  0.07064  0.77532  0.64089  1.0000
  H   H858      1.0  0.08318  0.73721  0.48782  1.0000
  Fe  Fe136     1.0  0.02111  0.74617  0.64415  1.0000
  S   S273      1.0  0.26227  0.89452  0.78947  1.0000
  S   S274      1.0  0.28086  0.88808  0.74176  1.0000
  Fe  Fe137     1.0  0.28430  0.90044  0.79733  1.0000
  S   S275      1.0  0.28124  0.92576  0.80527  1.0000
  Fe  Fe138     1.0  0.26881  0.86798  0.80709  1.0000
  S   S276      1.0  0.24752  0.85359  0.82352  1.0000
  S   S277      1.0  0.21920  0.93227  0.77992  1.0000
  S   S278      1.0  0.29083  0.77458  0.83557  1.0000
  H   H859      1.0  0.36957  0.84723  0.80563  1.0000
  H   H860      1.0  0.14782  0.83839  0.72239  1.0000
  C   C853      1.0  0.43220  0.82118  0.82806  1.0000
  S   S279      1.0  0.47586  0.77238  0.83784  1.0000
  H   H861      1.0  0.04614  0.88354  0.69545  1.0000
  H   H862      1.0  0.11886  0.86052  0.67142  1.0000
  C   C854      1.0  0.25125  0.81792  0.82744  1.0000
  S   S280      1.0  0.43946  0.89535  0.76031  1.0000
  S   S281      1.0  0.28861  0.87498  0.81719  1.0000
  Fe  Fe139     1.0  0.17291  0.85939  0.72355  1.0000
  S   S282      1.0  0.15423  0.86469  0.74870  1.0000
  Fe  Fe140     1.0  0.20547  0.84913  0.73956  1.0000
  S   S283      1.0  0.18958  0.85388  0.76594  1.0000
  S   S284      1.0  0.23522  0.83961  0.73386  1.0000
  Fe  Fe141     1.0  0.17111  0.83990  0.76169  1.0000
  S   S285      1.0  0.15824  0.82095  0.78436  1.0000
  Fe  Fe142     1.0  0.17440  0.87810  0.75055  1.0000
  S   S286      1.0  0.16501  0.90533  0.75602  1.0000
  S   S287      1.0  0.18812  0.83323  0.73626  1.0000
  S   S288      1.0  0.19198  0.87466  0.72442  1.0000
  C   C855      1.0  0.17974  0.91214  0.76381  1.0000
  C   C856      1.0  0.17577  0.92961  0.76569  1.0000
  C   C857      1.0  0.18777  0.93573  0.77092  1.0000
  C   C858      1.0  0.19555  0.90063  0.76760  1.0000
  H   H863      1.0  0.16351  0.93854  0.76287  1.0000
  H   H864      1.0  0.18474  0.94935  0.77199  1.0000
  H   H865      1.0  0.19867  0.88715  0.76614  1.0000
  C   C859      1.0  0.19084  0.79790  0.78563  1.0000
  C   C860      1.0  0.17315  0.80318  0.79443  1.0000
  C   C861      1.0  0.16716  0.79417  0.81162  1.0000
  H   H866      1.0  0.19550  0.80471  0.77228  1.0000
  H   H867      1.0  0.15347  0.79819  0.81843  1.0000
  C   C862      1.0  0.42910  0.81087  0.92832  1.0000
  C   C863      1.0  0.03915  0.80539  0.66175  1.0000
  H   H868      1.0  0.21671  0.86388  0.80460  1.0000
  H   H869      1.0  0.23038  0.94129  0.73816  1.0000
  H   H870      1.0  0.26970  0.96417  0.78523  1.0000
  S   S289      1.0  0.17981  0.79605  0.96979  1.0000
  H   H871      1.0  0.42661  0.75087  0.87583  1.0000
  Fe  Fe143     1.0  0.20356  0.74964  0.85145  1.0000
  H   H872      1.0  0.17564  0.81799  0.90852  1.0000
  C   C864      1.0  0.20929  0.82659  0.79908  1.0000
  C   C865      1.0  0.14555  0.91250  0.68316  1.0000
  C   C866      1.0  0.41983  0.83216  0.96637  1.0000
  C   C867      1.0  0.14139  0.84333  0.71135  1.0000
  H   H873      1.0  0.21957  0.89779  0.77620  1.0000
  C   C868      1.0  0.07385  0.90990  0.66076  1.0000
  S   S290      1.0  0.43769  0.85368  0.77681  1.0000
  Fe  Fe144     1.0  0.47118  0.76567  0.86727  1.0000
  H   H874      1.0  0.17762  0.92496  0.71979  1.0000
  C   C869      1.0  0.44132  0.79089  0.84332  1.0000
  C   C870      1.0  0.46031  0.95181  0.77597  1.0000
  C   C871      1.0  0.26802  0.87456  0.73997  1.0000
  C   C872      1.0  0.25074  0.87477  0.75034  1.0000
  C   C873      1.0  0.24017  0.86469  0.74799  1.0000
  C   C874      1.0  0.24729  0.85371  0.73592  1.0000
  C   C875      1.0  0.26468  0.85327  0.72587  1.0000
  C   C876      1.0  0.27487  0.86397  0.72759  1.0000
  H   H875      1.0  0.24543  0.88304  0.75983  1.0000
  H   H876      1.0  0.22672  0.86508  0.75577  1.0000
  H   H877      1.0  0.27024  0.84476  0.71656  1.0000
  H   H878      1.0  0.28821  0.86380  0.71953  1.0000
  C   C877      1.0  0.25906  0.83149  0.82723  1.0000
  C   C878      1.0  0.27661  0.82752  0.82926  1.0000
  C   C879      1.0  0.28632  0.81003  0.83173  1.0000
  C   C880      1.0  0.27871  0.79647  0.83174  1.0000
  H   H879      1.0  0.28274  0.83794  0.82905  1.0000
  H   H880      1.0  0.29989  0.80715  0.83321  1.0000
  C   C881      1.0  0.29958  0.93563  0.79547  1.0000
  C   C882      1.0  0.30291  0.94716  0.80360  1.0000
  S   S291      1.0  0.03592  0.82620  0.66644  1.0000
  H   H881      1.0  0.14258  0.92442  0.67266  1.0000
  C   C883      1.0  0.32464  0.94127  0.77124  1.0000
  C   C884      1.0  0.31038  0.93282  0.77922  1.0000
  H   H882      1.0  0.29451  0.94949  0.81611  1.0000
  C   C885      1.0  0.35260  0.86583  0.76903  1.0000
  H   H883      1.0  0.33284  0.93921  0.75857  1.0000
  H   H884      1.0  0.30738  0.92473  0.77241  1.0000
  Fe  Fe145     1.0  0.28426  0.88268  0.76934  1.0000
  H   H885      1.0  0.41524  0.80926  0.93049  1.0000
  C   C886      1.0  0.26119  0.80039  0.82943  1.0000
  N   N74       1.0  0.22162  0.92071  0.82378  1.0000
  C   C887      1.0  0.23708  0.92328  0.82572  1.0000
  C   C888      1.0  0.20720  0.93456  0.82230  1.0000
  C   C889      1.0  0.23817  0.93990  0.82686  1.0000
  C   C890      1.0  0.20784  0.95136  0.82342  1.0000
  C   C891      1.0  0.22343  0.95399  0.82573  1.0000
  C   C892      1.0  0.22068  0.90323  0.82252  1.0000
  H   H886      1.0  0.24876  0.91249  0.82629  1.0000
  H   H887      1.0  0.19523  0.93275  0.81991  1.0000
  H   H888      1.0  0.25046  0.94187  0.82841  1.0000
  H   H889      1.0  0.19642  0.96237  0.82230  1.0000
  H   H890      1.0  0.22413  0.96699  0.82644  1.0000
  H   H891      1.0  0.20740  0.90034  0.82950  1.0000
  H   H892      1.0  0.22297  0.90278  0.80851  1.0000
  H   H893      1.0  0.23088  0.89251  0.82845  1.0000
  N   N75       1.0  0.37402  0.91986  0.77710  1.0000
  C   C893      1.0  0.36424  0.91028  0.77371  1.0000
  C   C894      1.0  0.36997  0.92411  0.79315  1.0000
  C   C895      1.0  0.35028  0.90423  0.78674  1.0000
  C   C896      1.0  0.35594  0.91849  0.80641  1.0000
  C   C897      1.0  0.34606  0.90847  0.80315  1.0000
  C   C898      1.0  0.38823  0.92650  0.76311  1.0000
  H   H894      1.0  0.36717  0.90732  0.76084  1.0000
  H   H895      1.0  0.37756  0.93197  0.79570  1.0000
  H   H896      1.0  0.34254  0.89665  0.78399  1.0000
  H   H897      1.0  0.35263  0.92208  0.81903  1.0000
  H   H898      1.0  0.33495  0.90424  0.81318  1.0000
  H   H899      1.0  0.38252  0.93960  0.75546  1.0000
  H   H900      1.0  0.39888  0.92782  0.76865  1.0000
  H   H901      1.0  0.39468  0.91722  0.75411  1.0000
  C   C899      1.0  0.20363  0.92429  0.77459  1.0000
  H   H902      1.0  0.21607  0.77943  0.78717  1.0000
  S   S292      1.0  0.09990  0.86100  0.64683  1.0000
  C   C900      1.0  0.19653  0.77484  0.81144  1.0000
  H   H903      1.0  0.15981  0.90571  0.67991  1.0000
  C   C901      1.0  0.17884  0.78015  0.82015  1.0000
  C   C902      1.0  0.20738  0.90666  0.77323  1.0000
  C   C903      1.0  0.05890  0.91054  0.71268  1.0000
  C   C904      1.0  0.22601  0.82080  0.78866  1.0000
  C   C905      1.0  0.31516  0.77070  0.95967  1.0000
  C   C906      1.0  0.15284  0.81223  0.67758  1.0000
  H   H904      1.0  0.48199  0.92750  0.74730  1.0000
  C   C907      1.0  0.14343  0.93314  0.70116  1.0000
  C   C908      1.0  0.14617  0.85755  0.69804  1.0000
  S   S293      1.0  0.44892  0.78336  0.88226  1.0000
  H   H905      1.0  0.46326  0.81127  0.96533  1.0000
  Fe  Fe146     1.0  0.07071  0.87330  0.65215  1.0000
  H   H906      1.0  0.48394  0.88930  0.77875  1.0000
  S   S294      1.0  0.33520  0.84857  0.80073  1.0000
  C   C909      1.0  0.35333  0.85688  0.78636  1.0000
  C   C910      1.0  0.12071  0.84103  0.69549  1.0000
  H   H907      1.0  0.14776  0.94252  0.68926  1.0000
  C   C911      1.0  0.32331  0.80422  0.91243  1.0000
  H   H908      1.0  0.19281  0.84701  0.81258  1.0000
  C   C912      1.0  0.20581  0.84227  0.80470  1.0000
  S   S295      1.0  0.16326  0.86704  0.69830  1.0000
  H   H909      1.0  0.17476  0.94410  0.72795  1.0000
  H   H910      1.0  0.13140  0.92910  0.74549  1.0000
  N   N76       1.0  0.37355  0.81799  0.87367  1.0000
  C   C913      1.0  0.37977  0.83077  0.86010  1.0000
  C   C914      1.0  0.35849  0.81297  0.87396  1.0000
  S   S296      1.0  0.32463  0.74623  0.86510  1.0000
  C   C915      1.0  0.34884  0.82130  0.86081  1.0000
  C   C916      1.0  0.35504  0.83439  0.84694  1.0000
  C   C917      1.0  0.38346  0.80938  0.88762  1.0000
  H   H911      1.0  0.39180  0.83465  0.85977  1.0000
  H   H912      1.0  0.34080  0.86753  0.76422  1.0000
  H   H913      1.0  0.18208  0.98122  0.69764  1.0000
  C   C918      1.0  0.33578  0.80697  0.91997  1.0000
  H   H914      1.0  0.26427  0.83413  0.76767  1.0000
  C   C919      1.0  0.32802  0.95266  0.77945  1.0000
  H   H915      1.0  0.38728  0.81937  0.89204  1.0000
  H   H916      1.0  0.37523  0.80229  0.89949  1.0000
  H   H917      1.0  0.25402  0.80642  0.86481  1.0000
  C   C920      1.0  0.21912  0.85181  0.80010  1.0000
  S   S297      1.0  0.29969  0.81489  0.89081  1.0000
  S   S298      1.0  0.44667  0.87611  0.80046  1.0000
  H   H918      1.0  0.34765  0.84098  0.83665  1.0000
  H   H919      1.0  0.13486  0.89251  0.71463  1.0000
  C   C921      1.0  0.18406  0.78960  0.91475  1.0000
  C   C922      1.0  0.07285  0.89823  0.71950  1.0000
  C   C923      1.0  0.24588  0.75590  0.91804  1.0000
  C   C924      1.0  0.05334  0.88764  0.70256  1.0000
  S   S299      1.0  0.28925  0.85543  0.78630  1.0000
  S   S300      1.0  0.30594  0.89080  0.77563  1.0000
  C   C925      1.0  0.04915  0.90519  0.70410  1.0000
  C   C926      1.0  0.14559  0.73956  0.84735  1.0000
  H   H920      1.0  0.06042  0.93721  0.65418  1.0000
  N   N77       1.0  0.24079  0.80934  0.89080  1.0000
  C   C927      1.0  0.22588  0.80558  0.90307  1.0000
  C   C928      1.0  0.25541  0.80998  0.89595  1.0000
  C   C929      1.0  0.22559  0.80184  0.92104  1.0000
  C   C930      1.0  0.25561  0.80622  0.91380  1.0000
  C   C931      1.0  0.24057  0.80216  0.92640  1.0000
  C   C932      1.0  0.24106  0.81321  0.87200  1.0000
  H   H921      1.0  0.21416  0.80545  0.89897  1.0000
  H   H922      1.0  0.26705  0.81336  0.88618  1.0000
  H   H923      1.0  0.07595  0.94744  0.67065  1.0000
  H   H924      1.0  0.26738  0.80648  0.91785  1.0000
  S   S301      1.0  0.22936  0.97705  0.77715  1.0000
  H   H925      1.0  0.23038  0.80856  0.86945  1.0000
  H   H926      1.0  0.23930  0.82768  0.86647  1.0000
  C   C933      1.0  0.43612  0.93764  0.77989  1.0000
  C   C934      1.0  0.07031  0.92785  0.66088  1.0000
  H   H927      1.0  0.35362  0.80276  0.88462  1.0000
  S   S302      1.0  0.42017  0.92611  0.79380  1.0000
  C   C935      1.0  0.31455  0.81826  0.90109  1.0000
  C   C936      1.0  0.37071  0.83907  0.84648  1.0000
  C   C937      1.0  0.29901  0.77524  0.95418  1.0000
  H   H928      1.0  0.26444  0.81282  0.78261  1.0000
  H   H929      1.0  0.46903  0.82835  0.86162  1.0000
  H   H930      1.0  0.17692  0.84404  0.66019  1.0000
  H   H931      1.0  0.32033  0.79132  0.91559  1.0000
  H   H932      1.0  0.48325  0.77639  0.92771  1.0000
  H   H933      1.0  0.36662  0.87954  0.74447  1.0000
  C   C938      1.0  0.21201  0.91406  0.71802  1.0000
  H   H934      1.0  0.20010  0.95200  0.73193  1.0000
  C   C939      1.0  0.36729  0.87242  0.75780  1.0000
  C   C940      1.0  0.38057  0.79743  0.82319  1.0000
  H   H935      1.0  0.44946  0.95726  0.73690  1.0000
  H   H936      1.0  0.09224  0.85474  0.72503  1.0000
  S   S303      1.0  0.22030  0.75332  0.86758  1.0000
  C   C941      1.0  0.36885  0.85425  0.79231  1.0000
  H   H937      1.0  0.34927  0.80898  0.79899  1.0000
  S   S304      1.0  0.08851  0.82294  0.65518  1.0000
  Fe  Fe147     1.0  0.21147  0.96182  0.77436  1.0000
  C   C942      1.0  0.26763  0.94499  0.76508  1.0000
  Fe  Fe148     1.0  0.24202  0.76281  0.97439  1.0000
  Fe  Fe149     1.0  0.30892  0.74975  0.89188  1.0000
  C   C943      1.0  0.47810  0.83736  0.82641  1.0000
  C   C944      1.0  0.41769  0.82691  0.95220  1.0000
  H   H938      1.0  0.24870  0.76798  0.90899  1.0000
  H   H939      1.0  0.17583  0.74469  0.81636  1.0000
  H   H940      1.0  0.40486  0.83132  0.94855  1.0000
  H   H941      1.0  0.46984  0.95456  0.78138  1.0000
  Fe  Fe150     1.0  0.35424  0.77101  0.97224  1.0000
  C   C945      1.0  0.47149  0.81732  0.85498  1.0000
  S   S305      1.0  0.18668  0.97850  0.78746  1.0000
  C   C946      1.0  0.25666  0.82352  0.77394  1.0000
  H   H942      1.0  0.22852  0.80874  0.78410  1.0000
  H   H943      1.0  0.47821  0.80528  0.86328  1.0000
  H   H944      1.0  0.23766  0.82094  0.82589  1.0000
  N   N78       1.0  0.23899  0.83025  0.78420  1.0000
  C   C947      1.0  0.41223  0.75510  0.87919  1.0000
  Fe  Fe151     1.0  0.30623  0.77161  0.85577  1.0000
  S   S306      1.0  0.32414  0.78852  0.85569  1.0000
  C   C948      1.0  0.20247  0.78362  0.79408  1.0000
  H   H945      1.0  0.17400  0.77337  0.83334  1.0000
  H   H946      1.0  0.25520  0.78988  0.82959  1.0000
  Fe  Fe152     1.0  0.30877  0.86471  0.79483  1.0000
  H   H947      1.0  0.31988  0.96428  0.80210  1.0000
  H   H948      1.0  0.19898  0.81912  0.80261  1.0000
  S   S307      1.0  0.12062  0.96741  0.66609  1.0000
  S   S308      1.0  0.47410  0.97224  0.74485  1.0000
  H   H949      1.0  0.37342  0.79087  0.83561  1.0000
  C   C949      1.0  0.29300  0.94663  0.73372  1.0000
  H   H950      1.0  0.37583  0.84914  0.83572  1.0000
  Fe  Fe153     1.0  0.46882  0.78240  0.89707  1.0000
  H   H951      1.0  0.27826  0.74376  0.88635  1.0000
  C   C950      1.0  0.12500  0.85571  0.68258  1.0000
  Fe  Fe154     1.0  0.30884  0.78870  0.88334  1.0000
  H   H952      1.0  0.41445  0.97316  0.79617  1.0000
  C   C951      1.0  0.44793  0.94199  0.78696  1.0000
  H   H953      1.0  0.39563  0.79974  0.88288  1.0000
  Fe  Fe155     1.0  0.44425  0.75815  0.90103  1.0000
  N   N79       1.0  0.14136  0.91719  0.70027  1.0000
  H   H954      1.0  0.28860  0.97226  0.77094  1.0000
  S   S309      1.0  0.46209  0.75888  0.91769  1.0000
  S   S310      1.0  0.10042  0.92777  0.69346  1.0000
  S   S311      1.0  0.40632  0.88484  0.79328  1.0000
  Fe  Fe156     1.0  0.45686  0.87083  0.77327  1.0000
  C   C952      1.0  0.38271  0.87006  0.76389  1.0000
  H   H955      1.0  0.45786  0.76917  0.95198  1.0000
  C   C953      1.0  0.38356  0.86064  0.78105  1.0000
  N   N80       1.0  0.48237  0.82111  0.83712  1.0000
  H   H956      1.0  0.35243  0.78984  0.81660  1.0000
  C   C954      1.0  0.38139  0.81327  0.79365  1.0000
  H   H957      1.0  0.23730  0.89528  0.71819  1.0000
  S   S312      1.0  0.21129  0.75702  0.82184  1.0000
  S   S313      1.0  0.10628  0.82929  0.69331  1.0000
  H   H958      1.0  0.45851  0.81527  0.85444  1.0000
  H   H959      1.0  0.12546  0.82365  0.72005  1.0000
  S   S314      1.0  0.26613  0.77091  0.95496  1.0000
  H   H960      1.0  0.39560  0.85819  0.78569  1.0000
  C   C955      1.0  0.12875  0.83500  0.71000  1.0000
  H   H961      1.0  0.09216  0.86982  0.73760  1.0000
  S   S315      1.0  0.40034  0.87991  0.75051  1.0000
  H   H962      1.0  0.08909  0.88395  0.66989  1.0000
  S   S316      1.0  0.07704  0.97959  0.67980  1.0000
  H   H963      1.0  0.32527  0.77828  0.95303  1.0000
  C   C956      1.0  0.09541  0.90364  0.67875  1.0000
  H   H964      1.0  0.25538  0.81843  0.76306  1.0000
  C   C957      1.0  0.23589  0.91764  0.72847  1.0000
  H   H965      1.0  0.24912  0.91281  0.73123  1.0000
  C   C958      1.0  0.13778  0.86388  0.68380  1.0000
  H   H966      1.0  0.14142  0.87491  0.67349  1.0000
  H   H967      1.0  0.29073  0.73919  0.85613  1.0000
  H   H968      1.0  0.41547  0.80755  0.85042  1.0000
  H   H969      1.0  0.45185  0.83089  0.80583  1.0000
  S   S317      1.0  0.37881  0.80864  0.96303  1.0000
  C   C959      1.0  0.29051  0.95818  0.74465  1.0000
  H   H970      1.0  0.28437  0.92501  0.73037  1.0000
  C   C960      1.0  0.23582  0.84543  0.79001  1.0000
  C   C961      1.0  0.46044  0.95785  0.75805  1.0000
  C   C962      1.0  0.44914  0.95289  0.75083  1.0000
  H   H971      1.0  0.42802  0.93913  0.75626  1.0000
  C   C963      1.0  0.40370  0.75904  0.89564  1.0000
  S   S318      1.0  0.15130  0.97853  0.68812  1.0000
  C   C964      1.0  0.43700  0.94269  0.76177  1.0000
  C   C965      1.0  0.45133  0.76975  0.96547  1.0000
  S   S319      1.0  0.28935  0.77409  0.88245  1.0000
  H   H972      1.0  0.46695  0.84739  0.83117  1.0000
  H   H973      1.0  0.44758  0.93765  0.80091  1.0000
  C   C966      1.0  0.42834  0.80663  0.84138  1.0000
  H   H974      1.0  0.43834  0.77965  0.85367  1.0000
  C   C967      1.0  0.09228  0.86872  0.72423  1.0000
  S   S320      1.0  0.41628  0.84109  0.82645  1.0000
  C   C968      1.0  0.20828  0.93961  0.72880  1.0000
  C   C969      1.0  0.07914  0.93366  0.67017  1.0000
  Fe  Fe157     1.0  0.42615  0.86101  0.80293  1.0000
  Fe  Fe158     1.0  0.41926  0.87867  0.76684  1.0000
  H   H975      1.0  0.36066  0.76928  0.89151  1.0000
  H   H976      1.0  0.47905  0.90371  0.73535  1.0000
  C   C970      1.0  0.28583  0.76548  0.96269  1.0000
  Fe  Fe159     1.0  0.42784  0.89931  0.78783  1.0000
  H   H977      1.0  0.24625  0.85266  0.78694  1.0000
  H   H978      1.0  0.01491  0.77635  0.66254  1.0000
  C   C971      1.0  0.22541  0.93368  0.73225  1.0000
  C   C972      1.0  0.44783  0.81103  0.94749  1.0000
  C   C973      1.0  0.41117  0.97813  0.78334  1.0000
  H   H979      1.0  0.45882  0.80278  0.94018  1.0000
  N   N81       1.0  0.20169  0.92966  0.72205  1.0000
  C   C974      1.0  0.44876  0.81973  0.81619  1.0000
  H   H980      1.0  0.34259  0.79613  0.92870  1.0000
  C   C975      1.0  0.33969  0.82367  0.91590  1.0000
  S   S321      1.0  0.35594  0.82699  0.92441  1.0000
  H   H981      1.0  0.33643  0.81784  0.86160  1.0000
  C   C976      1.0  0.15993  0.83781  0.64724  1.0000
  H   H982      1.0  0.40586  0.82174  0.77938  1.0000
  S   S322      1.0  0.34552  0.96353  0.76920  1.0000
  H   H983      1.0  0.47572  0.76778  0.97306  1.0000
  H   H984      1.0  0.17148  0.82112  0.93896  1.0000
  C   C977      1.0  0.33099  0.83767  0.90450  1.0000
  H   H985      1.0  0.29866  0.96790  0.74072  1.0000
  C   C978      1.0  0.06742  0.87567  0.70949  1.0000
  C   C979      1.0  0.31822  0.83502  0.89730  1.0000
  C   C980      1.0  0.45830  0.78985  0.83226  1.0000
  S   S323      1.0  0.17744  0.76077  0.86790  1.0000
  C   C981      1.0  0.31716  0.95563  0.79562  1.0000
  S   S324      1.0  0.06353  0.85344  0.67686  1.0000
  Fe  Fe160     1.0  0.09243  0.84015  0.67064  1.0000
  H   H986      1.0  0.48427  0.85396  0.80057  1.0000
  C   C982      1.0  0.13614  0.90529  0.71532  1.0000
  Fe  Fe161     1.0  0.19406  0.76253  0.88515  1.0000
  Fe  Fe162     1.0  0.34098  0.76338  0.86793  1.0000
  H   H987      1.0  0.10491  0.89419  0.68586  1.0000
  S   S325      1.0  0.20968  0.97652  0.74699  1.0000
  H   H988      1.0  0.05624  0.92431  0.71333  1.0000
  C   C983      1.0  0.17562  0.80810  0.93604  1.0000
  H   H989      1.0  0.31147  0.84589  0.88851  1.0000
  H   H990      1.0  0.33402  0.85058  0.90136  1.0000
  S   S326      1.0  0.32682  0.76461  0.89577  1.0000
  S   S327      1.0  0.49169  0.76703  0.88045  1.0000
  C   C984      1.0  0.17954  0.79319  0.94923  1.0000
  C   C985      1.0  0.22922  0.90778  0.72121  1.0000
  H   H991      1.0  0.20692  0.90631  0.71241  1.0000
  S   S328      1.0  0.48622  0.86064  0.76245  1.0000
  H   H992      1.0  0.40870  0.84026  0.97383  1.0000
  C   C986      1.0  0.38336  0.76025  0.87201  1.0000
  C   C987      1.0  0.17804  0.80632  0.91881  1.0000
  N   N82       1.0  0.43152  0.81618  0.94319  1.0000
  H   H993      1.0  0.29669  0.78638  0.94336  1.0000
  C   C988      1.0  0.18378  0.93616  0.71839  1.0000
  C   C989      1.0  0.18480  0.77635  0.94537  1.0000
  H   H994      1.0  0.18729  0.76474  0.95568  1.0000
  C   C990      1.0  0.18700  0.77454  0.92812  1.0000
  H   H995      1.0  0.19143  0.76159  0.92510  1.0000
  S   S329      1.0  0.10325  0.96833  0.70786  1.0000
  S   S330      1.0  0.18966  0.78841  0.89256  1.0000
  N   N83       1.0  0.07692  0.88105  0.71789  1.0000
  H   H996      1.0  0.18443  0.94452  0.70489  1.0000
  H   H997      1.0  0.26784  0.75171  0.93010  1.0000
  H   H998      1.0  0.38759  0.96748  0.79106  1.0000
  H   H999      1.0  0.38042  0.97880  0.76145  1.0000
  H   H1000     1.0  0.07099  0.86218  0.70774  1.0000
  H   H1001     1.0  0.13527  0.80704  0.66492  1.0000
  C   C991      1.0  0.08657  0.89785  0.66954  1.0000
  S   S331      1.0  0.22140  0.75750  0.96407  1.0000
  C   C992      1.0  0.46173  0.80395  0.81815  1.0000
  S   S332      1.0  0.37392  0.77754  0.94683  1.0000
  N   N84       1.0  0.37244  0.80478  0.80930  1.0000
  C   C993      1.0  0.23190  0.74911  0.91743  1.0000
  C   C994      1.0  0.09142  0.92148  0.67941  1.0000
  C   C995      1.0  0.43280  0.77140  0.97092  1.0000
  C   C996      1.0  0.13232  0.90946  0.73178  1.0000
  H   H1002     1.0  0.21384  0.79873  0.93078  1.0000
  C   C997      1.0  0.38509  0.76461  0.89979  1.0000
  H   H1003     1.0  0.14944  0.80262  0.68963  1.0000
  Fe  Fe163     1.0  0.39069  0.77997  0.96370  1.0000
  C   C998      1.0  0.13408  0.92581  0.73278  1.0000
  H   H1004     1.0  0.24050  0.79932  0.94030  1.0000
  H   H1005     1.0  0.08088  0.90272  0.72541  1.0000
  H   H1006     1.0  0.14894  0.74945  0.85179  1.0000
  H   H1007     1.0  0.14124  0.95038  0.71811  1.0000
  H   H1008     1.0  0.47471  0.80301  0.80927  1.0000
  Fe  Fe164     1.0  0.36069  0.80566  0.94813  1.0000
  Fe  Fe165     1.0  0.09915  0.95693  0.68749  1.0000
  C   C999      1.0  0.35389  0.80377  0.81154  1.0000
  C   C1000     1.0  0.26962  0.93338  0.75436  1.0000
  H   H1009     1.0  0.37844  0.76786  0.91243  1.0000
  C   C1001     1.0  0.14476  0.81490  0.66357  1.0000
  Fe  Fe166     1.0  0.12326  0.98052  0.68589  1.0000
  H   H1010     1.0  0.11890  0.74296  0.86358  1.0000
  S   S333      1.0  0.33946  0.79905  0.97210  1.0000
  C   C1002     1.0  0.39820  0.79823  0.82158  1.0000
  C   C1003     1.0  0.49213  0.90604  0.73401  1.0000
  S   S334      1.0  0.46530  0.74023  0.88516  1.0000
  C   C1004     1.0  0.37496  0.76533  0.88796  1.0000
  S   S335      1.0  0.47273  0.80707  0.90138  1.0000
  N   N85       1.0  0.27809  0.95712  0.76020  1.0000
  H   H1011     1.0  0.12828  0.90002  0.74373  1.0000
  C   C1005     1.0  0.45042  0.81589  0.96167  1.0000
  H   H1012     1.0  0.43232  0.82077  0.91598  1.0000
  C   C1006     1.0  0.17067  0.98384  0.70825  1.0000
  C   C1007     1.0  0.15375  0.98310  0.70711  1.0000
  C   C1008     1.0  0.28251  0.93413  0.73867  1.0000
  H   H1013     1.0  0.03582  0.73901  0.68269  1.0000
  H   H1014     1.0  0.34493  0.81186  0.82097  1.0000
  H   H1015     1.0  0.43797  0.79780  0.92672  1.0000
  H   H1016     1.0  0.26667  0.98220  0.76649  1.0000
  C   C1009     1.0  0.39894  0.81462  0.79167  1.0000
  C   C1010     1.0  0.40739  0.80700  0.80574  1.0000
  H   H1017     1.0  0.26126  0.92384  0.75824  1.0000
  S   S336      1.0  0.42063  0.77193  0.95582  1.0000
  C   C1011     1.0  0.39614  0.97486  0.78044  1.0000
  C   C1012     1.0  0.49222  0.78507  0.92498  1.0000
  H   H1018     1.0  0.37483  0.81949  0.78272  1.0000
  C   C1013     1.0  0.27561  0.96956  0.77127  1.0000
  H   H1019     1.0  0.25777  0.94408  0.77741  1.0000
  C   C1014     1.0  0.16457  0.82268  0.67630  1.0000
  H   H1020     1.0  0.40467  0.79206  0.83256  1.0000
  C   C1015     1.0  0.13978  0.93769  0.71742  1.0000
  H   H1021     1.0  0.13718  0.90353  0.68336  1.0000
  H   H1022     1.0  0.17046  0.82117  0.68732  1.0000
  C   C1016     1.0  0.31836  0.75612  0.97340  1.0000
  H   H1023     1.0  0.10485  0.87168  0.71512  1.0000
  C   C1017     1.0  0.40204  0.75563  0.86741  1.0000
  H   H1024     1.0  0.42100  0.80795  0.80438  1.0000
  C   C1018     1.0  0.02637  0.78201  0.66003  1.0000
  H   H1025     1.0  0.03877  0.91474  0.69811  1.0000
  Fe  Fe167     1.0  0.06003  0.83814  0.65933  1.0000
  H   H1026     1.0  0.40867  0.75184  0.85500  1.0000
  C   C1019     1.0  0.02450  0.79758  0.66554  1.0000
  N   N86       1.0  0.14831  0.82761  0.64867  1.0000
  H   H1027     1.0  0.30296  0.94743  0.72147  1.0000
  H   H1028     1.0  0.01157  0.80389  0.67227  1.0000
  C   C1020     1.0  0.16815  0.83558  0.66106  1.0000
  S   S337      1.0  0.37082  0.75867  0.85807  1.0000
  H   H1029     1.0  0.25025  0.74972  0.81749  1.0000
  H   H1030     1.0  0.27744  0.75128  0.82529  1.0000
  C   C1021     1.0  0.43628  0.82648  0.97120  1.0000
  S   S338      1.0  0.41575  0.75546  0.91181  1.0000
  C   C1022     1.0  0.39221  0.98108  0.76380  1.0000
  C   C1023     1.0  0.46144  0.76893  0.97738  1.0000
  C   C1024     1.0  0.49005  0.80106  0.91255  1.0000
  C   C1025     1.0  0.28886  0.75114  0.97672  1.0000
  C   C1026     1.0  0.48776  0.84113  0.80907  1.0000
  Fe  Fe168     1.0  0.48379  0.74330  0.89998  1.0000
  C   C1027     1.0  0.49388  0.91937  0.74088  1.0000
  C   C1028     1.0  0.04297  0.77410  0.65096  1.0000
  C   C1029     1.0  0.05581  0.79717  0.65305  1.0000
  H   H1031     1.0  0.45623  0.97858  0.82935  1.0000
  H   H1032     1.0  0.05945  0.73809  0.67635  1.0000
  C   C1030     1.0  0.25606  0.73919  0.82729  1.0000
  H   H1033     1.0  0.43506  0.97872  0.84506  1.0000
  H   H1034     1.0  0.31970  0.74481  0.93752  1.0000
  C   C1031     1.0  0.25665  0.74665  0.93006  1.0000
  S   S339      1.0  0.06160  0.90249  0.65051  1.0000
  H   H1035     1.0  0.06712  0.80311  0.64994  1.0000
  C   C1032     1.0  0.27140  0.74000  0.83179  1.0000
  H   H1036     1.0  0.22362  0.75600  0.90797  1.0000
  C   C1033     1.0  0.05775  0.78146  0.64785  1.0000
  H   H1037     1.0  0.12595  0.98599  0.72004  1.0000
  S   S340      1.0  0.00200  0.73696  0.66909  1.0000
  H   H1038     1.0  0.17968  0.73934  0.83825  1.0000
  H   H1039     1.0  0.17200  0.73636  0.94343  1.0000
  C   C1034     1.0  0.49599  0.80822  0.83091  1.0000
  H   H1040     1.0  0.68811  0.17355  0.98408  1.0000
  H   H1041     1.0  0.68740  0.09432  0.04303  1.0000
  S   S341      1.0  0.67399  0.14376  0.98644  1.0000
  H   H1042     1.0  0.68504  0.00804  0.28375  1.0000
  H   H1043     1.0  0.82043  0.99059  0.28588  1.0000
  H   H1044     1.0  0.75301  0.08094  0.26494  1.0000
  C   C1035     1.0  0.92284  0.10797  0.20519  1.0000
  C   C1036     1.0  0.90322  0.22753  0.09857  1.0000
  C   C1037     1.0  0.50195  0.99519  0.13662  1.0000
  N   N87       1.0  0.78012  0.03598  0.16738  1.0000
  H   H1045     1.0  0.81148  0.16254  0.11382  1.0000
  C   C1038     1.0  0.82130  0.01791  0.28109  1.0000
  C   C1039     1.0  0.52390  0.03448  0.05252  1.0000
  H   H1046     1.0  0.91134  0.11318  0.28028  1.0000
  H   H1047     1.0  0.93249  0.09544  0.20588  1.0000
  S   S342      1.0  0.74032  0.19467  0.98787  1.0000
  S   S343      1.0  0.97082  0.22684  0.12086  1.0000
  C   C1040     1.0  0.92609  0.10294  0.30086  1.0000
  H   H1048     1.0  0.54098  0.12321  0.99830  1.0000
  Fe  Fe169     1.0  0.52002  0.07490  0.00002  1.0000
  C   C1041     1.0  0.72602  0.00103  0.16240  1.0000
  C   C1042     1.0  0.79318  0.04136  0.17102  1.0000
  C   C1043     1.0  0.90696  0.10992  0.20019  1.0000
  H   H1049     1.0  0.69990  0.99996  0.13600  1.0000
  Fe  Fe170     1.0  0.83171  0.21315  0.10598  1.0000
  S   S344      1.0  0.85321  0.20600  0.08293  1.0000
  S   S345      1.0  0.81754  0.19225  0.12453  1.0000
  H   H1050     1.0  0.66449  0.09748  0.05522  1.0000
  H   H1051     1.0  0.63420  0.01370  0.07423  1.0000
  C   C1044     1.0  0.70420  0.04110  0.28004  1.0000
  C   C1045     1.0  0.57015  0.08826  0.03928  1.0000
  C   C1046     1.0  0.80077  0.20071  0.05400  1.0000
  H   H1052     1.0  0.69173  0.04823  0.27626  1.0000
  Fe  Fe171     1.0  0.74163  0.00627  0.19546  1.0000
  C   C1047     1.0  0.55524  0.02086  0.05137  1.0000
  C   C1048     1.0  0.73317  0.02145  0.27427  1.0000
  Fe  Fe172     1.0  0.96273  0.13456  0.23161  1.0000
  S   S346      1.0  0.97464  0.10672  0.22792  1.0000
  S   S347      1.0  0.95298  0.15327  0.20795  1.0000
  Fe  Fe173     1.0  0.96534  0.12405  0.27048  1.0000
  S   S348      1.0  0.97743  0.09580  0.26932  1.0000
  H   H1053     1.0  0.93901  0.22786  0.11305  1.0000
  C   C1049     1.0  0.76609  0.07312  0.30918  1.0000
  Fe  Fe174     1.0  0.95677  0.09887  0.25426  1.0000
  S   S349      1.0  0.93985  0.07860  0.26358  1.0000
  H   H1054     1.0  0.79106  0.02593  0.24892  1.0000
  S   S350      1.0  0.94352  0.12654  0.25692  1.0000
  Fe  Fe175     1.0  0.82689  0.10698  0.24709  1.0000
  S   S351      1.0  0.83434  0.08024  0.24081  1.0000
  S   S352      1.0  0.81251  0.10700  0.27511  1.0000
  Fe  Fe176     1.0  0.84015  0.12510  0.20893  1.0000
  S   S353      1.0  0.84808  0.09969  0.19969  1.0000
  S   S354      1.0  0.84873  0.14990  0.19183  1.0000
  Fe  Fe177     1.0  0.82213  0.09409  0.21759  1.0000
  S   S355      1.0  0.79905  0.08563  0.21387  1.0000
  Fe  Fe178     1.0  0.85938  0.08851  0.22398  1.0000
  S   S356      1.0  0.88653  0.07030  0.22365  1.0000
  S   S357      1.0  0.81327  0.12064  0.22481  1.0000
  S   S358      1.0  0.85292  0.11411  0.23222  1.0000
  H   H1055     1.0  0.57377  0.03390  0.03051  1.0000
  Fe  Fe179     1.0  0.98291  0.23489  0.13846  1.0000
  S   S359      1.0  0.73226  0.01637  0.17000  1.0000
  H   H1056     1.0  0.69637  0.99450  0.03956  1.0000
  S   S360      1.0  0.79821  0.00870  0.21030  1.0000
  C   C1050     1.0  0.89010  0.06119  0.28274  1.0000
  C   C1051     1.0  0.66664  0.13086  0.04210  1.0000
  S   S361      1.0  0.54733  0.06718  0.98335  1.0000
  S   S362      1.0  0.98323  0.13516  0.24535  1.0000
  C   C1052     1.0  0.91156  0.11315  0.29357  1.0000
  Fe  Fe180     1.0  0.66028  0.99990  0.11052  1.0000
  S   S363      1.0  0.64947  0.02882  0.10072  1.0000
  H   H1057     1.0  0.79119  0.00838  0.17360  1.0000
  H   H1058     1.0  0.75787  0.13366  0.99926  1.0000
  C   C1053     1.0  0.60762  0.08860  0.99944  1.0000
  S   S364      1.0  0.67163  0.06669  0.99679  1.0000
  S   S365      1.0  0.68874  0.98701  0.10061  1.0000
  C   C1054     1.0  0.75682  0.07874  0.27731  1.0000
  H   H1059     1.0  0.69708  0.05021  0.30412  1.0000
  H   H1060     1.0  0.66636  0.99989  0.07140  1.0000
  H   H1061     1.0  0.79334  0.19390  0.06606  1.0000
  Fe  Fe181     1.0  0.68485  0.07829  0.01029  1.0000
  S   S366      1.0  0.69981  0.06090  0.03076  1.0000
  C   C1055     1.0  0.86114  0.07696  0.29405  1.0000
  H   H1062     1.0  0.73445  0.06692  0.29248  1.0000
  H   H1063     1.0  0.65791  0.12711  0.03639  1.0000
  C   C1056     1.0  0.76015  0.06407  0.16982  1.0000
  H   H1064     1.0  0.85563  0.23511  0.14523  1.0000
  H   H1065     1.0  0.69571  0.11843  0.00923  1.0000
  S   S367      1.0  0.89613  0.21437  0.08921  1.0000
  C   C1057     1.0  0.66358  0.03860  0.08191  1.0000
  C   C1058     1.0  0.65614  0.05144  0.06876  1.0000
  C   C1059     1.0  0.66719  0.05829  0.05300  1.0000
  C   C1060     1.0  0.68575  0.05275  0.05055  1.0000
  C   C1061     1.0  0.69321  0.04039  0.06395  1.0000
  C   C1062     1.0  0.68214  0.03323  0.07955  1.0000
  H   H1066     1.0  0.64178  0.05564  0.07053  1.0000
  H   H1067     1.0  0.66127  0.06757  0.04267  1.0000
  C   C1063     1.0  0.98008  0.19265  0.19400  1.0000
  H   H1068     1.0  0.78829  0.08459  0.29389  1.0000
  H   H1069     1.0  0.80600  0.03239  0.17200  1.0000
  H   H1070     1.0  0.73760  0.12157  0.99008  1.0000
  H   H1071     1.0  0.90418  0.09893  0.19697  1.0000
  Fe  Fe182     1.0  0.74277  0.17460  0.01304  1.0000
  C   C1064     1.0  0.66839  0.02730  0.03168  1.0000
  C   C1065     1.0  0.71433  0.00714  0.15086  1.0000
  C   C1066     1.0  0.54773  0.12525  0.00758  1.0000
  S   S368      1.0  0.72398  0.99527  0.22051  1.0000
  C   C1067     1.0  0.73610  0.02238  0.29026  1.0000
  H   H1072     1.0  0.70920  0.02119  0.14675  1.0000
  C   C1068     1.0  0.79939  0.06365  0.21445  1.0000
  C   C1069     1.0  0.81534  0.05113  0.21123  1.0000
  C   C1070     1.0  0.81490  0.03414  0.21023  1.0000
  C   C1071     1.0  0.79854  0.02959  0.21270  1.0000
  C   C1072     1.0  0.78264  0.04191  0.21669  1.0000
  C   C1073     1.0  0.78307  0.05892  0.21739  1.0000
  H   H1073     1.0  0.82798  0.05471  0.20894  1.0000
  H   H1074     1.0  0.82727  0.02461  0.20728  1.0000
  H   H1075     1.0  0.76997  0.03847  0.21908  1.0000
  H   H1076     1.0  0.77069  0.06853  0.22000  1.0000
  C   C1074     1.0  0.90177  0.07438  0.23324  1.0000
  C   C1075     1.0  0.91846  0.06273  0.23289  1.0000
  C   C1076     1.0  0.93055  0.06471  0.24139  1.0000
  C   C1077     1.0  0.92624  0.07862  0.24998  1.0000
  C   C1078     1.0  0.90974  0.09060  0.25000  1.0000
  C   C1079     1.0  0.89747  0.08841  0.24175  1.0000
  H   H1077     1.0  0.92186  0.05177  0.22647  1.0000
  H   H1078     1.0  0.94309  0.05514  0.24170  1.0000
  H   H1079     1.0  0.90610  0.10112  0.25701  1.0000
  H   H1080     1.0  0.88459  0.09730  0.24241  1.0000
  C   C1080     1.0  0.76387  0.04720  0.16641  1.0000
  C   C1081     1.0  0.85380  0.07089  0.28373  1.0000
  S   S369      1.0  0.74428  0.19415  0.02724  1.0000
  S   S370      1.0  0.72840  0.15224  0.02492  1.0000
  H   H1081     1.0  0.74823  0.01477  0.29435  1.0000
  C   C1082     1.0  0.82651  0.18016  0.14300  1.0000
  C   C1083     1.0  0.84109  0.18412  0.14615  1.0000
  C   C1084     1.0  0.84778  0.17468  0.16116  1.0000
  C   C1085     1.0  0.84013  0.16103  0.17297  1.0000
  C   C1086     1.0  0.82578  0.15678  0.16967  1.0000
  C   C1087     1.0  0.81893  0.16641  0.15474  1.0000
  H   H1082     1.0  0.84715  0.19453  0.13712  1.0000
  H   H1083     1.0  0.85891  0.17798  0.16363  1.0000
  H   H1084     1.0  0.81977  0.14631  0.17876  1.0000
  H   H1085     1.0  0.80762  0.16330  0.15239  1.0000
  C   C1088     1.0  0.97745  0.20101  0.17696  1.0000
  C   C1089     1.0  0.96656  0.19519  0.17002  1.0000
  C   C1090     1.0  0.95872  0.18086  0.17989  1.0000
  C   C1091     1.0  0.96188  0.17211  0.19666  1.0000
  C   C1092     1.0  0.79987  0.02357  0.25768  1.0000
  H   H1086     1.0  0.85044  0.15671  0.04269  1.0000
  H   H1087     1.0  0.96439  0.20155  0.15695  1.0000
  H   H1088     1.0  0.95044  0.17635  0.17434  1.0000
  H   H1089     1.0  0.92731  0.20827  0.10271  1.0000
  H   H1090     1.0  0.59405  0.06715  0.01122  1.0000
  H   H1091     1.0  0.53926  0.13638  0.01369  1.0000
  S   S371      1.0  0.83542  0.23298  0.03998  1.0000
  C   C1093     1.0  0.63784  0.03023  0.04807  1.0000
  C   C1094     1.0  0.55987  0.03402  0.03665  1.0000
  C   C1095     1.0  0.52846  0.04724  0.03740  1.0000
  H   H1092     1.0  0.57730  0.11108  0.02034  1.0000
  S   S372      1.0  0.51146  0.06351  0.02884  1.0000
  N   N88       1.0  0.67399  0.01501  0.04560  1.0000
  C   C1096     1.0  0.68505  0.98769  0.19051  1.0000
  C   C1097     1.0  0.70720  0.04217  0.29584  1.0000
  H   H1093     1.0  0.51468  0.99626  0.13877  1.0000
  C   C1098     1.0  0.81628  0.00382  0.27829  1.0000
  C   C1099     1.0  0.77641  0.08088  0.29345  1.0000
  C   C1100     1.0  0.70907  0.99514  0.14474  1.0000
  C   C1101     1.0  0.82120  0.22021  0.03928  1.0000
  C   C1102     1.0  0.80487  0.03792  0.25991  1.0000
  S   S373      1.0  0.77489  0.20675  0.99204  1.0000
  H   H1094     1.0  0.77897  0.09149  0.24957  1.0000
  C   C1103     1.0  0.95131  0.21452  0.06425  1.0000
  S   S374      1.0  0.80745  0.04610  0.31177  1.0000
  S   S375      1.0  0.75601  0.99148  0.24035  1.0000
  C   C1104     1.0  0.69047  0.14576  0.99570  1.0000
  S   S376      1.0  0.66103  0.09962  0.01714  1.0000
  H   H1095     1.0  0.88101  0.16156  0.19083  1.0000
  C   C1105     1.0  0.69659  0.99711  0.28430  1.0000
  C   C1106     1.0  0.83712  0.12241  0.27933  1.0000
  C   C1107     1.0  0.84564  0.12735  0.28953  1.0000
  C   C1108     1.0  0.66187  0.00973  0.06048  1.0000
  H   H1096     1.0  0.67976  0.16742  0.04209  1.0000
  H   H1097     1.0  0.84109  0.12573  0.26517  1.0000
  H   H1098     1.0  0.85625  0.13438  0.28319  1.0000
  H   H1099     1.0  0.51003  0.03467  0.05883  1.0000
  C   C1109     1.0  0.79003  0.05826  0.17417  1.0000
  Fe  Fe183     1.0  0.67219  0.11558  0.99099  1.0000
  H   H1100     1.0  0.88198  0.12729  0.19622  1.0000
  H   H1101     1.0  0.53356  0.01128  0.07091  1.0000
  C   C1110     1.0  0.69302  0.00689  0.04436  1.0000
  C   C1111     1.0  0.67875  0.15371  0.04527  1.0000
  C   C1112     1.0  0.86496  0.05982  0.27273  1.0000
  C   C1113     1.0  0.82004  0.21833  0.02301  1.0000
  C   C1114     1.0  0.91319  0.13797  0.20921  1.0000
  C   C1115     1.0  0.77332  0.06957  0.17380  1.0000
  S   S377      1.0  0.62220  0.08101  0.01381  1.0000
  S   S378      1.0  0.79040  0.18133  0.03752  1.0000
  H   H1102     1.0  0.97540  0.21346  0.07193  1.0000
  H   H1103     1.0  0.64582  0.04518  0.02182  1.0000
  C   C1116     1.0  0.71478  0.14978  0.01260  1.0000
  C   C1117     1.0  0.78389  0.01828  0.16394  1.0000
  H   H1104     1.0  0.79535  0.15430  0.09617  1.0000
  C   C1118     1.0  0.53782  0.09986  0.02899  1.0000
  Fe  Fe184     1.0  0.77010  0.18640  0.98090  1.0000
  Fe  Fe185     1.0  0.74512  0.21325  0.00111  1.0000
  C   C1119     1.0  0.75024  0.12332  0.98130  1.0000
  H   H1105     1.0  0.70144  0.01610  0.03541  1.0000
  H   H1106     1.0  0.81205  0.21304  0.06739  1.0000
  C   C1120     1.0  0.71709  0.03070  0.26924  1.0000
  S   S379      1.0  0.95821  0.13126  0.29695  1.0000
  H   H1107     1.0  0.55012  0.05736  0.01838  1.0000
  H   H1108     1.0  0.79211  0.01809  0.15045  1.0000
  H   H1109     1.0  0.55943  0.06626  0.05672  1.0000
  H   H1110     1.0  0.80931  0.20531  0.00970  1.0000
  Fe  Fe186     1.0  0.77391  0.18647  0.01741  1.0000
  H   H1111     1.0  0.88607  0.13136  0.29804  1.0000
  H   H1112     1.0  0.85161  0.17431  0.06730  1.0000
  C   C1121     1.0  0.81782  0.10971  0.30586  1.0000
  C   C1122     1.0  0.55695  0.07851  0.04702  1.0000
  C   C1123     1.0  0.69462  0.16224  0.99266  1.0000
  H   H1113     1.0  0.89197  0.04623  0.26375  1.0000
  H   H1114     1.0  0.80028  0.06232  0.17748  1.0000
  H   H1115     1.0  0.53015  0.07711  0.04808  1.0000
  H   H1116     1.0  0.71699  0.12202  0.02433  1.0000
  N   N89       1.0  0.87913  0.07241  0.29316  1.0000
  C   C1124     1.0  0.59450  0.07939  0.00146  1.0000
  H   H1117     1.0  0.83956  0.07479  0.28425  1.0000
  N   N90       1.0  0.55097  0.10914  0.02120  1.0000
  C   C1125     1.0  0.97248  0.17813  0.20376  1.0000
  C   C1126     1.0  0.92637  0.23265  0.10925  1.0000
  H   H1118     1.0  0.62380  0.03653  0.04918  1.0000
  H   H1119     1.0  0.69643  0.00365  0.05742  1.0000
  H   H1120     1.0  0.90437  0.05746  0.28209  1.0000
  H   H1121     1.0  0.67802  0.03135  0.01982  1.0000
  H   H1122     1.0  0.58308  0.08365  0.04280  1.0000
  S   S380      1.0  0.57182  0.00364  0.05946  1.0000
  C   C1127     1.0  0.82316  0.11365  0.28749  1.0000
  H   H1123     1.0  0.78675  0.99111  0.27295  1.0000
  N   N91       1.0  0.77172  0.08359  0.27779  1.0000
  C   C1128     1.0  0.91966  0.22151  0.10351  1.0000
  H   H1124     1.0  0.77140  0.01408  0.16517  1.0000
  H   H1125     1.0  0.81930  0.04607  0.27394  1.0000
  S   S381      1.0  0.77242  0.16524  0.00530  1.0000
  C   C1129     1.0  0.56682  0.10377  0.02649  1.0000
  H   H1126     1.0  0.74314  0.01331  0.26608  1.0000
  H   H1127     1.0  0.61802  0.11176  0.98546  1.0000
  C   C1130     1.0  0.72309  0.03280  0.30105  1.0000
  Fe  Fe187     1.0  0.86702  0.22353  0.08886  1.0000
  C   C1131     1.0  0.88318  0.05473  0.27239  1.0000
  H   H1128     1.0  0.83991  0.17204  0.09934  1.0000
  S   S382      1.0  0.84656  0.22894  0.11317  1.0000
  N   N92       1.0  0.83048  0.16513  0.06401  1.0000
  C   C1132     1.0  0.81503  0.15932  0.07199  1.0000
  C   C1133     1.0  0.83943  0.16959  0.07363  1.0000
  C   C1134     1.0  0.80791  0.15833  0.08999  1.0000
  C   C1135     1.0  0.83287  0.16842  0.09170  1.0000
  C   C1136     1.0  0.81691  0.16295  0.09988  1.0000
  C   C1137     1.0  0.83771  0.16659  0.04506  1.0000
  H   H1129     1.0  0.80776  0.15601  0.06435  1.0000
  C   C1138     1.0  0.84044  0.12320  0.30791  1.0000
  H   H1130     1.0  0.78079  0.10636  0.26162  1.0000
  H   H1131     1.0  0.57131  0.07926  0.99324  1.0000
  H   H1132     1.0  0.75350  0.04297  0.16344  1.0000
  H   H1133     1.0  0.82827  0.16444  0.03849  1.0000
  H   H1134     1.0  0.84006  0.18011  0.03876  1.0000
  C   C1139     1.0  0.75088  0.06816  0.30883  1.0000
  C   C1140     1.0  0.74622  0.07090  0.29281  1.0000
  H   H1135     1.0  0.77058  0.08249  0.17679  1.0000
  C   C1141     1.0  0.70688  0.16423  0.00101  1.0000
  C   C1142     1.0  0.54057  0.08451  0.04208  1.0000
  H   H1136     1.0  0.74503  0.23075  0.02797  1.0000
  H   H1137     1.0  0.52515  0.10418  0.02501  1.0000
  Fe  Fe188     1.0  0.99393  0.10675  0.24333  1.0000
  C   C1143     1.0  0.64365  0.01738  0.06205  1.0000
  C   C1144     1.0  0.54647  0.04715  0.02960  1.0000
  N   N93       1.0  0.67760  0.11828  0.05192  1.0000
  C   C1145     1.0  0.58162  0.08622  0.99122  1.0000
  H   H1138     1.0  0.70965  0.17708  0.99900  1.0000
  H   H1139     1.0  0.69841  0.11306  0.06554  1.0000
  C   C1146     1.0  0.66703  0.14874  0.03865  1.0000
  H   H1140     1.0  0.68799  0.02383  0.08989  1.0000
  C   C1147     1.0  0.68922  0.12304  0.05835  1.0000
  C   C1148     1.0  0.68989  0.14081  0.05523  1.0000
  H   H1141     1.0  0.79687  0.08582  0.26073  1.0000
  C   C1149     1.0  0.67792  0.09952  0.05432  1.0000
  H   H1142     1.0  0.68215  0.09149  0.06661  1.0000
  H   H1143     1.0  0.69960  0.14451  0.05974  1.0000
  S   S383      1.0  0.51757  0.10415  0.99034  1.0000
  H   H1144     1.0  0.87147  0.15386  0.21369  1.0000
  C   C1150     1.0  0.93519  0.22533  0.06050  1.0000
  C   C1151     1.0  0.88659  0.07887  0.30407  1.0000
  C   C1152     1.0  0.71087  0.13323  0.01537  1.0000
  C   C1153     1.0  0.60811  0.10443  0.98686  1.0000
  H   H1145     1.0  0.70756  0.03621  0.06221  1.0000
  C   C1154     1.0  0.88404  0.15628  0.20413  1.0000
  H   H1146     1.0  0.82912  0.01565  0.29080  1.0000
  C   C1155     1.0  0.69890  0.13117  0.00678  1.0000
  H   H1147     1.0  0.88837  0.16659  0.20751  1.0000
  H   H1148     1.0  0.91586  0.14885  0.21271  1.0000
  H   H1149     1.0  0.65885  0.15857  0.03027  1.0000
  Fe  Fe189     1.0  0.77097  0.00352  0.21385  1.0000
  C   C1156     1.0  0.81565  0.03503  0.27173  1.0000
  C   C1157     1.0  0.80013  0.19824  0.03778  1.0000
  H   H1150     1.0  0.70283  0.00260  0.30612  1.0000
  N   N94       1.0  0.89760  0.13972  0.20438  1.0000
  H   H1151     1.0  0.90041  0.08049  0.29749  1.0000
  H   H1152     1.0  0.93705  0.09508  0.29304  1.0000
  C   C1158     1.0  0.80951  0.20737  0.02224  1.0000
  C   C1159     1.0  0.65025  0.03514  0.03271  1.0000
  C   C1160     1.0  0.92601  0.12207  0.20973  1.0000
  H   H1153     1.0  0.93826  0.12072  0.21372  1.0000
  S   S384      1.0  0.74782  0.02529  0.20720  1.0000
  C   C1161     1.0  0.53726  0.02121  0.05937  1.0000
  Fe  Fe190     1.0  0.64843  0.08915  0.00192  1.0000
  C   C1162     1.0  0.89439  0.12596  0.19991  1.0000
  C   C1163     1.0  0.81134  0.21158  0.05478  1.0000
  H   H1154     1.0  0.98567  0.14969  0.17039  1.0000
  H   H1155     1.0  0.97486  0.17161  0.21674  1.0000
  C   C1164     1.0  0.78253  0.09221  0.26160  1.0000
  H   H1156     1.0  0.98836  0.19718  0.19953  1.0000
  C   C1165     1.0  0.76171  0.13007  0.98656  1.0000
  H   H1157     1.0  0.95474  0.20067  0.06370  1.0000
  C   C1166     1.0  0.98680  0.10668  0.30868  1.0000
  H   H1158     1.0  0.50168  0.00112  0.12255  1.0000
  H   H1159     1.0  0.87847  0.09196  0.30657  1.0000
  C   C1167     1.0  0.96284  0.22164  0.06894  1.0000
  Fe  Fe191     1.0  0.73254  0.01220  0.23280  1.0000
  S   S385      1.0  0.71192  0.02864  0.25035  1.0000
  H   H1160     1.0  0.80031  0.05119  0.25264  1.0000
  S   S386      1.0  0.69727  0.09517  0.98530  1.0000
  H   H1161     1.0  0.74705  0.07270  0.16960  1.0000
  H   H1162     1.0  0.85956  0.05524  0.26440  1.0000
  Fe  Fe192     1.0  0.83945  0.23088  0.06703  1.0000
  S   S387      1.0  0.50562  0.07252  0.98110  1.0000
  H   H1163     1.0  0.68280  0.00164  0.19025  1.0000
  H   H1164     1.0  0.92614  0.21962  0.05717  1.0000
  S   S388      1.0  0.98934  0.21746  0.16423  1.0000
  H   H1165     1.0  0.56041  0.12895  0.99946  1.0000
  H   H1166     1.0  0.99152  0.10446  0.29549  1.0000
  H   H1167     1.0  0.85237  0.08542  0.30271  1.0000
  H   H1168     1.0  0.82774  0.22491  0.01099  1.0000
  N   N95       1.0  0.80586  0.00677  0.26653  1.0000
  H   H1169     1.0  0.98587  0.13181  0.18907  1.0000
  H   H1170     1.0  0.79925  0.99394  0.25028  1.0000
  C   C1168     1.0  0.70663  0.99413  0.29679  1.0000
  C   C1169     1.0  0.99467  0.13925  0.17809  1.0000
  C   C1170     1.0  0.80005  0.99207  0.26418  1.0000
  H   H1171     1.0  0.69448  0.98904  0.26198  1.0000
  H   H1172     1.0  0.66713  0.99159  0.17362  1.0000
  S   S389      1.0  0.77689  0.01907  0.30536  1.0000
  C   C1171     1.0  0.89742  0.12332  0.30352  1.0000
  H   H1173     1.0  0.88460  0.23465  0.15123  1.0000
  C   C1172     1.0  0.70196  0.98651  0.27201  1.0000
  H   H1174     1.0  0.80695  0.10302  0.31223  1.0000
  S   S390      1.0  0.99344  0.09275  0.53949  1.0000
  N   N96       1.0  0.87903  0.04405  0.62185  1.0000
  C   C1173     1.0  0.99064  0.99526  0.52115  1.0000
  Fe  Fe193     1.0  0.79048  0.02495  0.47797  1.0000
  S   S391      1.0  0.76150  0.03829  0.48389  1.0000
  S   S392      1.0  0.81260  0.03918  0.47078  1.0000
  Fe  Fe194     1.0  0.75855  0.01258  0.50324  1.0000
  S   S393      1.0  0.74012  0.00999  0.53018  1.0000
  Fe  Fe195     1.0  0.75925  0.02497  0.46401  1.0000
  S   S394      1.0  0.74724  0.03879  0.44050  1.0000
  H   H1175     1.0  0.98273  0.01732  0.55766  1.0000
  S   S395      1.0  0.78842  0.01384  0.45668  1.0000
  N   N97       1.0  0.92654  0.10299  0.31756  1.0000
  C   C1174     1.0  0.93469  0.10785  0.61081  1.0000
  H   H1176     1.0  0.97017  0.11495  0.35606  1.0000
  Fe  Fe196     1.0  0.75287  0.02122  0.32743  1.0000
  H   H1177     1.0  0.81581  0.02688  0.40399  1.0000
  S   S396      1.0  0.78790  0.00032  0.49883  1.0000
  C   C1175     1.0  0.93415  0.09788  0.38350  1.0000
  S   S397      1.0  0.72607  0.03445  0.32114  1.0000
  N   N98       1.0  0.96406  0.12633  0.48863  1.0000
  S   S398      1.0  0.85156  0.12893  0.32051  1.0000
  S   S399      1.0  0.76509  0.03146  0.34325  1.0000
  Fe  Fe197     1.0  0.82910  0.08863  0.52474  1.0000
  S   S400      1.0  0.83150  0.11507  0.50704  1.0000
  S   S401      1.0  0.80433  0.07832  0.53076  1.0000
  Fe  Fe198     1.0  0.86618  0.08050  0.53108  1.0000
  S   S402      1.0  0.87204  0.10610  0.51388  1.0000
  S   S403      1.0  0.88748  0.06091  0.54335  1.0000
  Fe  Fe199     1.0  0.84435  0.11774  0.52720  1.0000
  Fe  Fe200     1.0  0.85886  0.10081  0.49554  1.0000
  S   S404      1.0  0.87284  0.10261  0.46717  1.0000
  S   S405      1.0  0.83954  0.09242  0.54602  1.0000
  S   S406      1.0  0.85551  0.07404  0.51165  1.0000
  Fe  Fe201     1.0  0.96860  0.08642  0.53805  1.0000
  H   H1178     1.0  0.78130  0.03832  0.63517  1.0000
  S   S407      1.0  0.94159  0.10388  0.54411  1.0000
  Fe  Fe202     1.0  0.87567  0.08657  0.36788  1.0000
  S   S408      1.0  0.86386  0.11556  0.36540  1.0000
  S   S409      1.0  0.90541  0.07780  0.36338  1.0000
  Fe  Fe203     1.0  0.84016  0.07794  0.37196  1.0000
  S   S410      1.0  0.82541  0.10623  0.36905  1.0000
  S   S411      1.0  0.82555  0.05627  0.37854  1.0000
  Fe  Fe204     1.0  0.84925  0.11157  0.34754  1.0000
  Fe  Fe205     1.0  0.84147  0.10723  0.38728  1.0000
  S   S412      1.0  0.82737  0.12032  0.41017  1.0000
  S   S413      1.0  0.86247  0.08307  0.34869  1.0000
  S   S414      1.0  0.85472  0.07842  0.39157  1.0000
  S   S415      1.0  0.92761  0.11319  0.41146  1.0000
  S   S416      1.0  0.96976  0.09760  0.43081  1.0000
  N   N99       1.0  0.82806  0.01601  0.42601  1.0000
  Fe  Fe206     1.0  0.75246  0.01326  0.62037  1.0000
  H   H1179     1.0  0.83643  0.03990  0.41171  1.0000
  N   N100      1.0  0.93450  0.10052  0.59760  1.0000
  H   H1180     1.0  0.91996  0.12567  0.62800  1.0000
  H   H1181     1.0  0.77495  0.01261  0.53214  1.0000
  C   C1176     1.0  0.82664  0.11424  0.31608  1.0000
  N   N101      1.0  0.87773  0.14413  0.41781  1.0000
  S   S417      1.0  0.97962  0.03068  0.52021  1.0000
  S   S418      1.0  0.86375  0.09075  0.62091  1.0000
  C   C1177     1.0  0.84952  0.15117  0.40966  1.0000
  H   H1182     1.0  0.85241  0.04017  0.62843  1.0000
  C   C1178     1.0  0.80792  0.14865  0.58952  1.0000
  H   H1183     1.0  0.95974  0.09633  0.58011  1.0000
  H   H1184     1.0  0.81505  0.14137  0.61470  1.0000
  S   S419      1.0  0.97437  0.05872  0.55365  1.0000
  C   C1179     1.0  0.96310  0.13055  0.45838  1.0000
  H   H1185     1.0  0.95391  0.08933  0.31486  1.0000
  C   C1180     1.0  0.81163  0.13684  0.60493  1.0000
  H   H1186     1.0  0.93821  0.07906  0.33309  1.0000
  C   C1181     1.0  0.88645  0.14460  0.40063  1.0000
  C   C1182     1.0  0.90459  0.12468  0.61043  1.0000
  H   H1187     1.0  0.98306  0.13708  0.46690  1.0000
  H   H1188     1.0  0.84082  0.17067  0.55014  1.0000
  C   C1183     1.0  0.74738  0.05278  0.55443  1.0000
  C   C1184     1.0  0.97489  0.11258  0.34291  1.0000
  C   C1185     1.0  0.81161  0.11906  0.60738  1.0000
  Fe  Fe207     1.0  0.77426  0.00296  0.35576  1.0000
  C   C1186     1.0  0.80801  0.11327  0.59430  1.0000
  C   C1187     1.0  0.81917  0.01535  0.41414  1.0000
  H   H1189     1.0  0.82252  0.11107  0.33027  1.0000
  H   H1190     1.0  0.77507  0.05450  0.57831  1.0000
  C   C1188     1.0  0.90456  0.11724  0.59688  1.0000
  S   S420      1.0  0.74536  0.03779  0.63103  1.0000
  C   C1189     1.0  0.91184  0.08766  0.37649  1.0000
  C   C1190     1.0  0.89897  0.09484  0.38973  1.0000
  C   C1191     1.0  0.90376  0.10293  0.40031  1.0000
  C   C1192     1.0  0.92139  0.10428  0.39735  1.0000
  H   H1191     1.0  0.88539  0.09371  0.39202  1.0000
  H   H1192     1.0  0.89387  0.10791  0.41091  1.0000
  H   H1193     1.0  0.94733  0.07961  0.58395  1.0000
  C   C1193     1.0  0.97116  0.11937  0.31272  1.0000
  C   C1194     1.0  0.87689  0.14792  0.38760  1.0000
  C   C1195     1.0  0.84880  0.15775  0.57469  1.0000
  C   C1196     1.0  0.84474  0.15813  0.55886  1.0000
  C   C1197     1.0  0.85873  0.10508  0.45315  1.0000
  C   C1198     1.0  0.86581  0.09841  0.43791  1.0000
  C   C1199     1.0  0.85576  0.10232  0.42518  1.0000
  C   C1200     1.0  0.83864  0.11303  0.42749  1.0000
  C   C1201     1.0  0.83111  0.11900  0.44318  1.0000
  C   C1202     1.0  0.84113  0.11493  0.45608  1.0000
  H   H1194     1.0  0.87922  0.09040  0.43582  1.0000
  H   H1195     1.0  0.86145  0.09749  0.41331  1.0000
  H   H1196     1.0  0.81777  0.12722  0.44511  1.0000
  H   H1197     1.0  0.83553  0.12009  0.46787  1.0000
  C   C1203     1.0  0.90222  0.07279  0.54419  1.0000
  C   C1204     1.0  0.92047  0.06536  0.54105  1.0000
  C   C1205     1.0  0.93250  0.07521  0.54047  1.0000
  C   C1206     1.0  0.92631  0.09216  0.54394  1.0000
  C   C1207     1.0  0.90799  0.09953  0.54739  1.0000
  C   C1208     1.0  0.89593  0.08990  0.54730  1.0000
  H   H1198     1.0  0.92536  0.05216  0.53855  1.0000
  H   H1199     1.0  0.94656  0.06964  0.53714  1.0000
  H   H1200     1.0  0.90311  0.11271  0.54993  1.0000
  H   H1201     1.0  0.88177  0.09569  0.54973  1.0000
  Fe  Fe208     1.0  0.99110  0.09195  0.38275  1.0000
  C   C1209     1.0  0.85315  0.14165  0.58641  1.0000
  H   H1202     1.0  0.89287  0.12093  0.59126  1.0000
  H   H1203     1.0  0.72465  0.00618  0.56707  1.0000
  N   N102      1.0  0.75305  0.05434  0.56822  1.0000
  H   H1204     1.0  0.74600  0.05615  0.59507  1.0000
  C   C1210     1.0  0.76935  0.99738  0.41681  1.0000
  H   H1205     1.0  0.91275  0.11231  0.34094  1.0000
  H   H1206     1.0  0.84624  0.05617  0.59933  1.0000
  H   H1207     1.0  0.99014  0.11645  0.58712  1.0000
  C   C1211     1.0  0.81244  0.04925  0.33020  1.0000
  C   C1212     1.0  0.82102  0.06268  0.32859  1.0000
  C   C1213     1.0  0.82494  0.06508  0.34345  1.0000
  C   C1214     1.0  0.82036  0.05394  0.35988  1.0000
  C   C1215     1.0  0.81159  0.04068  0.36150  1.0000
  C   C1216     1.0  0.80763  0.03836  0.34670  1.0000
  C   C1217     1.0  0.76739  0.00466  0.39946  1.0000
  H   H1208     1.0  0.83137  0.07560  0.34219  1.0000
  H   H1209     1.0  0.80788  0.03211  0.37416  1.0000
  H   H1210     1.0  0.80095  0.02801  0.34817  1.0000
  C   C1218     1.0  0.74902  0.00935  0.54790  1.0000
  H   H1211     1.0  0.98805  0.04108  0.41055  1.0000
  C   C1219     1.0  0.74464  0.00817  0.57913  1.0000
  C   C1220     1.0  0.76203  0.01030  0.57636  1.0000
  C   C1221     1.0  0.77304  0.01146  0.55943  1.0000
  C   C1222     1.0  0.76651  0.01116  0.54520  1.0000
  C   C1223     1.0  0.87241  0.06189  0.58889  1.0000
  Fe  Fe209     1.0  0.78309  0.99033  0.47786  1.0000
  S   S421      1.0  0.77024  0.01240  0.59347  1.0000
  C   C1224     1.0  0.99388  0.06693  0.61003  1.0000
  C   C1225     1.0  0.80991  0.05047  0.48718  1.0000
  C   C1226     1.0  0.79733  0.04731  0.50297  1.0000
  C   C1227     1.0  0.79542  0.05614  0.51621  1.0000
  C   C1228     1.0  0.80594  0.06823  0.51366  1.0000
  C   C1229     1.0  0.81810  0.07180  0.49763  1.0000
  C   C1230     1.0  0.82021  0.06281  0.48445  1.0000
  H   H1212     1.0  0.78939  0.03775  0.50516  1.0000
  H   H1213     1.0  0.78617  0.05324  0.52855  1.0000
  H   H1214     1.0  0.82591  0.08149  0.49533  1.0000
  H   H1215     1.0  0.82986  0.06539  0.47221  1.0000
  C   C1231     1.0  0.75470  0.02563  0.42475  1.0000
  C   C1232     1.0  0.75262  0.03293  0.40743  1.0000
  C   C1233     1.0  0.75905  0.02248  0.39476  1.0000
  H   H1216     1.0  0.97685  0.99557  0.52185  1.0000
  H   H1217     1.0  0.89289  0.13415  0.61536  1.0000
  C   C1234     1.0  0.99104  0.10264  0.59356  1.0000
  H   H1218     1.0  0.74606  0.04667  0.40379  1.0000
  H   H1219     1.0  0.75739  0.02818  0.38145  1.0000
  C   C1235     1.0  0.89782  0.12299  0.32066  1.0000
  H   H1220     1.0  0.94355  0.11498  0.50778  1.0000
  S   S422      1.0  0.97048  0.07722  0.40073  1.0000
  S   S423      1.0  0.69334  0.05262  0.64015  1.0000
  C   C1236     1.0  0.96533  0.12233  0.32986  1.0000
  H   H1221     1.0  0.82032  0.04114  0.43237  1.0000
  H   H1222     1.0  0.78094  0.04469  0.55988  1.0000
  C   C1237     1.0  0.77154  0.05567  0.56569  1.0000
  C   C1238     1.0  0.95061  0.08853  0.59022  1.0000
  C   C1239     1.0  0.72988  0.05122  0.55658  1.0000
  H   H1223     1.0  0.94468  0.09849  0.33384  1.0000
  H   H1224     1.0  0.88703  0.02004  0.63952  1.0000
  H   H1225     1.0  0.92899  0.11243  0.48584  1.0000
  C   C1240     1.0  0.98544  0.09785  0.61185  1.0000
  H   H1226     1.0  0.95771  0.08006  0.60065  1.0000
  H   H1227     1.0  0.80389  0.05623  0.61949  1.0000
  H   H1228     1.0  0.86966  0.06912  0.57616  1.0000
  S   S424      1.0  0.99152  0.04841  0.44200  1.0000
  C   C1241     1.0  0.94914  0.11941  0.49393  1.0000
  C   C1242     1.0  0.85048  0.12620  0.56579  1.0000
  C   C1243     1.0  0.71813  0.05138  0.57293  1.0000
  H   H1229     1.0  0.89943  0.06532  0.58228  1.0000
  S   S425      1.0  0.97984  0.07933  0.51182  1.0000
  H   H1230     1.0  0.90514  0.04929  0.61169  1.0000
  H   H1231     1.0  0.83508  0.15322  0.41344  1.0000
  H   H1232     1.0  0.73607  0.00723  0.59209  1.0000
  N   N103      1.0  0.78579  0.06955  0.42181  1.0000
  C   C1244     1.0  0.80052  0.07676  0.41524  1.0000
  C   C1245     1.0  0.77778  0.06754  0.43931  1.0000
  C   C1246     1.0  0.80779  0.08185  0.42634  1.0000
  C   C1247     1.0  0.78449  0.07284  0.45070  1.0000
  C   C1248     1.0  0.79966  0.07995  0.44415  1.0000
  C   C1249     1.0  0.77891  0.06318  0.41035  1.0000
  H   H1233     1.0  0.80683  0.07857  0.40139  1.0000
  H   H1234     1.0  0.76618  0.06170  0.44456  1.0000
  H   H1235     1.0  0.81972  0.08712  0.42120  1.0000
  H   H1236     1.0  0.77835  0.07096  0.46463  1.0000
  H   H1237     1.0  0.80529  0.08372  0.45290  1.0000
  H   H1238     1.0  0.78178  0.04850  0.41366  1.0000
  H   H1239     1.0  0.76420  0.06811  0.41222  1.0000
  H   H1240     1.0  0.78502  0.06757  0.39620  1.0000
  C   C1250     1.0  0.91976  0.10518  0.59053  1.0000
  C   C1251     1.0  0.94082  0.11792  0.48154  1.0000
  S   S426      1.0  0.90817  0.06891  0.63515  1.0000
  H   H1241     1.0  0.85102  0.11399  0.56249  1.0000
  H   H1242     1.0  0.88389  0.14757  0.37411  1.0000
  S   S427      1.0  0.97676  0.11839  0.38900  1.0000
  C   C1252     1.0  0.83190  0.00156  0.43909  1.0000
  H   H1243     1.0  0.80870  0.12383  0.55241  1.0000
  S   S428      1.0  0.75342  0.00052  0.48383  1.0000
  H   H1244     1.0  0.78657  0.01296  0.55721  1.0000
  H   H1245     1.0  0.85774  0.11337  0.59051  1.0000
  S   S429      1.0  0.82411  0.07280  0.63108  1.0000
  C   C1253     1.0  0.80013  0.05353  0.63370  1.0000
  C   C1254     1.0  0.88805  0.13868  0.43150  1.0000
  H   H1246     1.0  0.85259  0.14657  0.43609  1.0000
  H   H1247     1.0  0.88023  0.14341  0.44361  1.0000
  H   H1248     1.0  0.89185  0.12400  0.43504  1.0000
  H   H1249     1.0  0.90045  0.14383  0.42680  1.0000
  C   C1255     1.0  0.85829  0.15112  0.39221  1.0000
  C   C1256     1.0  0.86285  0.04557  0.61834  1.0000
  C   C1257     1.0  0.99225  0.00764  0.56469  1.0000
  C   C1258     1.0  0.83224  0.03272  0.42549  1.0000
  C   C1259     1.0  0.92951  0.08908  0.37341  1.0000
  H   H1250     1.0  0.88669  0.13062  0.32858  1.0000
  C   C1260     1.0  0.85951  0.14738  0.42242  1.0000
  C   C1261     1.0  0.76314  0.00786  0.42935  1.0000
  H   H1251     1.0  0.94759  0.09974  0.38048  1.0000
  Fe  Fe210     1.0  0.85565  0.11693  0.62805  1.0000
  H   H1252     1.0  0.84331  0.03053  0.43216  1.0000
  C   C1262     1.0  0.84535  0.14238  0.55448  1.0000
  H   H1253     1.0  0.76465  0.00210  0.44268  1.0000
  Fe  Fe211     1.0  0.78993  0.02654  0.32235  1.0000
  H   H1254     1.0  0.77007  0.07078  0.32152  1.0000
  H   H1255     1.0  0.83826  0.00231  0.44896  1.0000
  Fe  Fe212     1.0  0.98535  0.07300  0.42159  1.0000
  H   H1256     1.0  0.95326  0.13211  0.33311  1.0000
  N   N104      1.0  0.80456  0.12493  0.57913  1.0000
  Fe  Fe213     1.0  0.98763  0.05184  0.52743  1.0000
  H   H1257     1.0  0.74272  0.06214  0.32094  1.0000
  H   H1258     1.0  0.94315  0.07123  0.63586  1.0000
  S   S430      1.0  0.80002  0.99866  0.33574  1.0000
  H   H1259     1.0  0.82441  0.07132  0.31594  1.0000
  H   H1260     1.0  0.93960  0.08344  0.36329  1.0000
  C   C1263     1.0  0.94787  0.12356  0.46365  1.0000
  H   H1261     1.0  0.80334  0.10432  0.56788  1.0000
  H   H1262     1.0  0.72569  0.04932  0.54574  1.0000
  Fe  Fe214     1.0  0.95707  0.10334  0.40806  1.0000
  H   H1263     1.0  0.91972  0.09966  0.57982  1.0000
  S   S431      1.0  0.97659  0.11460  0.62387  1.0000
  Fe  Fe215     1.0  0.78437  0.99154  0.32093  1.0000
  H   H1264     1.0  0.94161  0.12245  0.45387  1.0000
  H   H1265     1.0  0.90092  0.14173  0.39701  1.0000
  C   C1264     1.0  0.89220  0.05074  0.60903  1.0000
  H   H1266     1.0  0.98640  0.11885  0.50037  1.0000
  C   C1265     1.0  0.74152  0.05483  0.58420  1.0000
  N   N105      1.0  0.92493  0.07029  0.46469  1.0000
  C   C1266     1.0  0.91408  0.06988  0.48112  1.0000
  C   C1267     1.0  0.94295  0.06367  0.46274  1.0000
  C   C1268     1.0  0.92118  0.06253  0.49614  1.0000
  C   C1269     1.0  0.95051  0.05628  0.47750  1.0000
  C   C1270     1.0  0.93953  0.05570  0.49430  1.0000
  C   C1271     1.0  0.91707  0.07832  0.44923  1.0000
  H   H1267     1.0  0.89978  0.07516  0.48269  1.0000
  H   H1268     1.0  0.95163  0.06394  0.44975  1.0000
  H   H1269     1.0  0.91245  0.06203  0.50912  1.0000
  H   H1270     1.0  0.96479  0.05088  0.47591  1.0000
  H   H1271     1.0  0.94524  0.04987  0.50584  1.0000
  H   H1272     1.0  0.92666  0.07581  0.43682  1.0000
  H   H1273     1.0  0.90529  0.07294  0.45055  1.0000
  H   H1274     1.0  0.91257  0.09285  0.44796  1.0000
  S   S432      1.0  0.72463  0.00889  0.62896  1.0000
  S   S433      1.0  0.85596  0.14193  0.60710  1.0000
  C   C1272     1.0  0.88906  0.05984  0.59239  1.0000
  H   H1275     1.0  0.77375  0.06846  0.55679  1.0000
  Fe  Fe216     1.0  0.99112  0.10991  0.41113  1.0000
  H   H1276     1.0  0.71495  0.05331  0.59969  1.0000
  H   H1277     1.0  0.94648  0.10441  0.61623  1.0000
  C   C1273     1.0  0.91972  0.11995  0.61750  1.0000
  H   H1278     1.0  0.81462  0.10977  0.61925  1.0000
  C   C1274     1.0  0.72393  0.05326  0.58686  1.0000
  C   C1275     1.0  0.85927  0.05459  0.60187  1.0000
  H   H1279     1.0  0.75652  0.05222  0.54180  1.0000
  C   C1276     1.0  0.85426  0.12586  0.58178  1.0000
  H   H1280     1.0  0.97426  0.14149  0.49949  1.0000
  H   H1281     1.0  0.96889  0.13475  0.44448  1.0000
  C   C1277     1.0  0.99056  0.09994  0.33890  1.0000
  C   C1278     1.0  0.80442  0.14242  0.57666  1.0000
  C   C1279     1.0  0.80046  0.11897  0.56553  1.0000
  H   H1282     1.0  0.80224  0.15156  0.56440  1.0000
  H   H1283     1.0  0.80848  0.16239  0.58722  1.0000
  H   H1284     1.0  0.78616  0.12418  0.56512  1.0000
  H   H1285     1.0  0.85066  0.15319  0.38239  1.0000
  H   H1286     1.0  0.84802  0.17002  0.57810  1.0000
  C   C1280     1.0  0.73819  0.00759  0.56493  1.0000
  C   C1281     1.0  0.97107  0.13184  0.47112  1.0000
  S   S434      1.0  0.83787  0.14340  0.53577  1.0000
  H   H1287     1.0  0.70464  0.04983  0.57486  1.0000
  H   H1288     1.0  0.80822  0.09935  0.59636  1.0000
  C   C1282     1.0  0.91257  0.11266  0.32754  1.0000
  C   C1283     1.0  0.99563  0.98985  0.56428  1.0000
  H   H1289     1.0  0.98195  0.07611  0.63408  1.0000
  H   H1290     1.0  0.96527  0.12390  0.51533  1.0000
  C   C1284     1.0  0.97288  0.12770  0.50161  1.0000
  C   C1285     1.0  0.81396  0.99989  0.41512  1.0000
  C   C1286     1.0  0.98672  0.07995  0.62006  1.0000
  C   C1287     1.0  0.94158  0.09182  0.32519  1.0000
  C   C1288     1.0  0.80819  0.06006  0.64308  1.0000
  S   S435      1.0  0.77547  0.99097  0.38418  1.0000
  H   H1291     1.0  0.80669  0.99951  0.40581  1.0000
  H   H1292     1.0  0.88687  0.06931  0.31691  1.0000
  C   C1289     1.0  0.88249  0.03442  0.63920  1.0000
  Fe  Fe217     1.0  0.84033  0.08403  0.64232  1.0000
  Fe  Fe218     1.0  0.87932  0.08217  0.64172  1.0000
  S   S436      1.0  0.75940  0.99312  0.34215  1.0000
  H   H1293     1.0  0.89288  0.03895  0.64238  1.0000
  Fe  Fe219     1.0  0.71831  0.03152  0.64205  1.0000
  C   C1290     1.0  0.78726  0.04343  0.64256  1.0000
  S   S437      1.0  0.76163  0.99501  0.64425  1.0000
  H   H1294     1.0  0.99483  0.05312  0.61646  1.0000
  C   C1291     1.0  0.99579  0.01095  0.51952  1.0000
  C   C1292     1.0  0.93892  0.16216  0.79197  1.0000
  S   S438      1.0  0.85701  0.07255  0.66276  1.0000
  S   S439      1.0  0.51726  0.03134  0.74608  1.0000
  H   H1295     1.0  0.67285  0.12861  0.93878  1.0000
  C   C1293     1.0  0.79598  0.18622  0.80433  1.0000
  Fe  Fe220     1.0  0.53133  0.06408  0.83745  1.0000
  N   N106      1.0  0.59112  0.03170  0.82114  1.0000
  C   C1294     1.0  0.86140  0.13761  0.71320  1.0000
  S   S440      1.0  0.61572  0.00139  0.73929  1.0000
  C   C1295     1.0  0.67158  0.05009  0.71970  1.0000
  C   C1296     1.0  0.86247  0.15217  0.69903  1.0000
  H   H1296     1.0  0.66057  0.04950  0.71417  1.0000
  H   H1297     1.0  0.72083  0.20865  0.89181  1.0000
  H   H1298     1.0  0.96809  0.11130  0.73113  1.0000
  S   S441      1.0  0.95162  0.14164  0.70235  1.0000
  C   C1297     1.0  0.52070  0.99171  0.85006  1.0000
  Fe  Fe221     1.0  0.64443  0.01826  0.75960  1.0000
  S   S442      1.0  0.61875  0.03484  0.75270  1.0000
  S   S443      1.0  0.65958  0.03247  0.76861  1.0000
  H   H1299     1.0  0.82055  0.11369  0.72930  1.0000
  S   S444      1.0  0.82288  0.19510  0.77649  1.0000
  Fe  Fe222     1.0  0.62877  0.02451  0.72799  1.0000
  S   S445      1.0  0.62568  0.04297  0.70202  1.0000
  C   C1298     1.0  0.75785  0.23326  0.94533  1.0000
  S   S446      1.0  0.65525  0.00963  0.73392  1.0000
  H   H1300     1.0  0.52093  0.01233  0.78117  1.0000
  Fe  Fe223     1.0  0.51920  0.03005  0.85662  1.0000
  H   H1301     1.0  0.66747  0.06195  0.72547  1.0000
  N   N107      1.0  0.75465  0.11936  0.96509  1.0000
  C   C1299     1.0  0.50960  0.10903  0.88312  1.0000
  C   C1300     1.0  0.55062  0.07333  0.88845  1.0000
  H   H1302     1.0  0.59061  0.01495  0.86439  1.0000
  H   H1303     1.0  0.80706  0.14834  0.77391  1.0000
  S   S447      1.0  0.72474  0.01501  0.66749  1.0000
  S   S448      1.0  0.61684  0.06182  0.88079  1.0000
  C   C1301     1.0  0.98689  0.13432  0.75527  1.0000
  Fe  Fe224     1.0  0.64029  0.05413  0.85954  1.0000
  S   S449      1.0  0.64153  0.03000  0.85003  1.0000
  Fe  Fe225     1.0  0.63638  0.06636  0.89313  1.0000
  S   S450      1.0  0.63279  0.05992  0.92244  1.0000
  C   C1302     1.0  0.64968  0.06472  0.92899  1.0000
  C   C1303     1.0  0.64659  0.06739  0.94599  1.0000
  C   C1304     1.0  0.65972  0.07185  0.95123  1.0000
  C   C1305     1.0  0.67620  0.07311  0.93965  1.0000
  C   C1306     1.0  0.67947  0.06994  0.92281  1.0000
  C   C1307     1.0  0.66609  0.06612  0.91735  1.0000
  H   H1304     1.0  0.63399  0.06612  0.95511  1.0000
  H   H1305     1.0  0.51009  0.07755  0.94338  1.0000
  H   H1306     1.0  0.69229  0.07065  0.91392  1.0000
  H   H1307     1.0  0.66861  0.06395  0.90424  1.0000
  H   H1308     1.0  0.57218  0.03054  0.80784  1.0000
  C   C1308     1.0  0.91397  0.21250  0.77939  1.0000
  Fe  Fe226     1.0  0.65689  0.08398  0.85852  1.0000
  S   S451      1.0  0.94170  0.06674  0.69763  1.0000
  H   H1309     1.0  0.96520  0.17549  0.73651  1.0000
  Fe  Fe227     1.0  0.53269  0.06782  0.96339  1.0000
  S   S452      1.0  0.55667  0.07206  0.82131  1.0000
  C   C1309     1.0  0.58654  0.01818  0.85200  1.0000
  H   H1310     1.0  0.61280  0.04462  0.80766  1.0000
  C   C1310     1.0  0.50365  0.99586  0.82826  1.0000
  C   C1311     1.0  0.79237  0.22723  0.83606  1.0000
  C   C1312     1.0  0.65271  0.03243  0.79114  1.0000
  C   C1313     1.0  0.65241  0.04730  0.79696  1.0000
  C   C1314     1.0  0.64829  0.04697  0.81504  1.0000
  C   C1315     1.0  0.64491  0.03159  0.82734  1.0000
  C   C1316     1.0  0.64484  0.01686  0.82148  1.0000
  C   C1317     1.0  0.64854  0.01733  0.80343  1.0000
  H   H1311     1.0  0.65549  0.05906  0.78748  1.0000
  H   H1312     1.0  0.64834  0.05839  0.81940  1.0000
  H   H1313     1.0  0.64219  0.00493  0.83094  1.0000
  H   H1314     1.0  0.64885  0.00576  0.79903  1.0000
  C   C1318     1.0  0.64507  0.04567  0.68567  1.0000
  C   C1319     1.0  0.66111  0.03302  0.68586  1.0000
  C   C1320     1.0  0.67595  0.03488  0.67182  1.0000
  H   H1315     1.0  0.70537  0.22284  0.83767  1.0000
  C   C1321     1.0  0.52712  0.06893  0.75709  1.0000
  C   C1322     1.0  0.64404  0.06031  0.67156  1.0000
  H   H1316     1.0  0.66191  0.02143  0.69645  1.0000
  H   H1317     1.0  0.68804  0.02478  0.67183  1.0000
  H   H1318     1.0  0.92627  0.21604  0.70503  1.0000
  H   H1319     1.0  0.63164  0.07009  0.67127  1.0000
  H   H1320     1.0  0.87025  0.03672  0.64970  1.0000
  C   C1323     1.0  0.52561  0.04402  0.92162  1.0000
  H   H1321     1.0  0.80951  0.06135  0.66880  1.0000
  C   C1324     1.0  0.53458  0.09717  0.90390  1.0000
  S   S453      1.0  0.84485  0.10471  0.69462  1.0000
  N   N108      1.0  0.77749  0.22056  0.87196  1.0000
  C   C1325     1.0  0.76812  0.16440  0.91942  1.0000
  S   S454      1.0  0.76585  0.02745  0.67227  1.0000
  H   H1322     1.0  0.56408  0.00558  0.86261  1.0000
  C   C1326     1.0  0.56664  0.01727  0.83497  1.0000
  H   H1323     1.0  0.71166  0.11149  0.93676  1.0000
  H   H1324     1.0  0.72019  0.12535  0.91607  1.0000
  H   H1325     1.0  0.60680  0.03285  0.79518  1.0000
  S   S455      1.0  0.63445  0.09474  0.87921  1.0000
  H   H1326     1.0  0.72956  0.12393  0.95881  1.0000
  C   C1327     1.0  0.70029  0.11248  0.90445  1.0000
  C   C1328     1.0  0.56548  0.08185  0.83275  1.0000
  H   H1327     1.0  0.97350  0.20434  0.69918  1.0000
  C   C1329     1.0  0.67711  0.12328  0.92703  1.0000
  H   H1328     1.0  0.55394  0.11391  0.85626  1.0000
  C   C1330     1.0  0.53541  0.02482  0.75629  1.0000
  H   H1329     1.0  0.92611  0.20494  0.78449  1.0000
  C   C1331     1.0  0.54092  0.05655  0.78265  1.0000
  H   H1330     1.0  0.75041  0.16993  0.96758  1.0000
  C   C1332     1.0  0.56625  0.02418  0.75522  1.0000
  C   C1333     1.0  0.55177  0.02917  0.74700  1.0000
  C   C1334     1.0  0.66014  0.00282  0.66687  1.0000
  H   H1331     1.0  0.94575  0.16073  0.72911  1.0000
  N   N109      1.0  0.53592  0.08867  0.89104  1.0000
  H   H1332     1.0  0.55331  0.03622  0.73339  1.0000
  N   N110      1.0  0.90923  0.23076  0.78161  1.0000
  C   C1335     1.0  0.68814  0.02072  0.82950  1.0000
  H   H1333     1.0  0.51922  0.11814  0.91736  1.0000
  S   S456      1.0  0.66007  0.05574  0.87362  1.0000
  S   S457      1.0  0.76291  0.16878  0.87203  1.0000
  C   C1336     1.0  0.80335  0.05638  0.66146  1.0000
  C   C1337     1.0  0.68807  0.03112  0.84064  1.0000
  H   H1334     1.0  0.50577  0.01680  0.83839  1.0000
  Fe  Fe228     1.0  0.88301  0.19902  0.74086  1.0000
  C   C1338     1.0  0.85639  0.12286  0.71164  1.0000
  Fe  Fe229     1.0  0.73301  0.99259  0.65376  1.0000
  S   S458      1.0  0.58912  0.10568  0.86339  1.0000
  C   C1339     1.0  0.71937  0.05315  0.68055  1.0000
  H   H1335     1.0  0.54605  0.00437  0.79593  1.0000
  C   C1340     1.0  0.81240  0.17998  0.79363  1.0000
  C   C1341     1.0  0.57642  0.02689  0.82016  1.0000
  C   C1342     1.0  0.66990  0.11197  0.90598  1.0000
  C   C1343     1.0  0.66982  0.12316  0.85921  1.0000
  S   S459      1.0  0.68254  0.09324  0.84556  1.0000
  H   H1336     1.0  0.59265  0.05371  0.79963  1.0000
  C   C1344     1.0  0.90759  0.06515  0.66989  1.0000
  H   H1337     1.0  0.53564  0.03185  0.92120  1.0000
  S   S460      1.0  0.83122  0.11113  0.64838  1.0000
  C   C1345     1.0  0.60139  0.04119  0.80512  1.0000
  C   C1346     1.0  0.57171  0.01294  0.85101  1.0000
  C   C1347     1.0  0.70289  0.06242  0.67666  1.0000
  H   H1338     1.0  0.70901  0.22632  0.91474  1.0000
  N   N111      1.0  0.69477  0.11997  0.91879  1.0000
  H   H1339     1.0  0.65048  0.12175  0.92746  1.0000
  C   C1348     1.0  0.68796  0.10836  0.89787  1.0000
  C   C1349     1.0  0.59619  0.02755  0.83683  1.0000
  H   H1340     1.0  0.69240  0.10217  0.88667  1.0000
  C   C1350     1.0  0.93545  0.16952  0.77514  1.0000
  Fe  Fe230     1.0  0.61665  0.08941  0.86518  1.0000
  Fe  Fe231     1.0  0.96523  0.12011  0.68715  1.0000
  C   C1351     1.0  0.55475  0.09545  0.84107  1.0000
  S   S461      1.0  0.53038  0.04809  0.86492  1.0000
  H   H1341     1.0  0.60768  0.03157  0.83775  1.0000
  C   C1352     1.0  0.72007  0.04266  0.69731  1.0000
  S   S462      1.0  0.63893  0.08156  0.84285  1.0000
  H   H1342     1.0  0.57889  0.02748  0.74796  1.0000
  H   H1343     1.0  0.82314  0.15534  0.70930  1.0000
  H   H1344     1.0  0.91641  0.21238  0.76525  1.0000
  C   C1353     1.0  0.75441  0.22033  0.93924  1.0000
  H   H1345     1.0  0.60441  0.07820  0.84388  1.0000
  N   N112      1.0  0.59624  0.08902  0.93169  1.0000
  C   C1354     1.0  0.59264  0.09228  0.91544  1.0000
  C   C1355     1.0  0.59051  0.07566  0.94486  1.0000
  C   C1356     1.0  0.58366  0.08162  0.91185  1.0000
  C   C1357     1.0  0.58147  0.06474  0.94170  1.0000
  C   C1358     1.0  0.57822  0.06765  0.92503  1.0000
  C   C1359     1.0  0.60628  0.10004  0.93482  1.0000
  H   H1346     1.0  0.59707  0.10293  0.90502  1.0000
  H   H1347     1.0  0.59326  0.07314  0.95777  1.0000
  H   H1348     1.0  0.58138  0.08400  0.89877  1.0000
  C   C1360     1.0  0.80835  0.13754  0.75190  1.0000
  H   H1349     1.0  0.89398  0.06376  0.67260  1.0000
  H   H1350     1.0  0.61831  0.10122  0.92402  1.0000
  H   H1351     1.0  0.59763  0.11332  0.93573  1.0000
  H   H1352     1.0  0.61107  0.09409  0.94721  1.0000
  H   H1353     1.0  0.65802  0.07374  0.64689  1.0000
  H   H1354     1.0  0.81267  0.13029  0.71168  1.0000
  H   H1355     1.0  0.66031  0.10859  0.90104  1.0000
  C   C1361     1.0  0.85259  0.12256  0.69588  1.0000
  C   C1362     1.0  0.56213  0.10320  0.85006  1.0000
  N   N113      1.0  0.68807  0.05075  0.70610  1.0000
  H   H1356     1.0  0.89109  0.09988  0.68670  1.0000
  C   C1363     1.0  0.77120  0.17371  0.94427  1.0000
  H   H1357     1.0  0.99194  0.22148  0.70423  1.0000
  C   C1364     1.0  0.70796  0.12313  0.92626  1.0000
  C   C1365     1.0  0.66440  0.11940  0.92072  1.0000
  S   S463      1.0  0.89458  0.22299  0.73486  1.0000
  C   C1366     1.0  0.74586  0.16159  0.94667  1.0000
  H   H1358     1.0  0.78063  0.21271  0.89829  1.0000
  C   C1367     1.0  0.73684  0.21930  0.94120  1.0000
  C   C1368     1.0  0.58009  0.09697  0.85115  1.0000
  N   N114      1.0  0.64246  0.00950  0.67318  1.0000
  S   S464      1.0  0.63342  0.99406  0.77373  1.0000
  H   H1359     1.0  0.62176  0.03281  0.67061  1.0000
  H   H1360     1.0  0.54164  0.04350  0.79199  1.0000
  S   S465      1.0  0.98678  0.07898  0.66605  1.0000
  C   C1369     1.0  0.94266  0.06913  0.66303  1.0000
  C   C1370     1.0  0.78368  0.20696  0.86335  1.0000
  H   H1361     1.0  0.95614  0.07083  0.66029  1.0000
  S   S466      1.0  0.87517  0.18467  0.76871  1.0000
  C   C1371     1.0  0.77051  0.12179  0.95380  1.0000
  C   C1372     1.0  0.68729  0.06116  0.68971  1.0000
  C   C1373     1.0  0.54778  0.01110  0.78221  1.0000
  H   H1362     1.0  0.91598  0.09836  0.73359  1.0000
  S   S467      1.0  0.97988  0.20700  0.78790  1.0000
  C   C1374     1.0  0.85418  0.13690  0.68158  1.0000
  H   H1363     1.0  0.70922  0.23100  0.95010  1.0000
  C   C1375     1.0  0.69009  0.04853  0.83355  1.0000
  C   C1376     1.0  0.56423  0.01517  0.77284  1.0000
  Fe  Fe232     1.0  0.75250  0.01937  0.65556  1.0000
  C   C1377     1.0  0.85910  0.15165  0.68317  1.0000
  H   H1364     1.0  0.67947  0.08261  0.81295  1.0000
  C   C1378     1.0  0.58346  0.07596  0.83355  1.0000
  H   H1365     1.0  0.54094  0.10032  0.84013  1.0000
  S   S468      1.0  0.95095  0.17147  0.80071  1.0000
  S   S469      1.0  0.58196  0.00917  0.78350  1.0000
  H   H1366     1.0  0.96131  0.13625  0.77339  1.0000
  H   H1367     1.0  0.73160  0.05383  0.67051  1.0000
  H   H1368     1.0  0.67599  0.19091  0.88144  1.0000
  H   H1369     1.0  0.94906  0.12168  0.75770  1.0000
  H   H1370     1.0  0.73813  0.10135  0.96941  1.0000
  H   H1371     1.0  0.67331  0.03821  0.73053  1.0000
  S   S470      1.0  0.74016  0.21725  0.85544  1.0000
  H   H1372     1.0  0.78664  0.04348  0.68456  1.0000
  C   C1379     1.0  0.96699  0.21503  0.70599  1.0000
  H   H1373     1.0  0.91677  0.12984  0.72990  1.0000
  C   C1380     1.0  0.96274  0.12335  0.75301  1.0000
  H   H1374     1.0  0.85537  0.11171  0.72269  1.0000
  N   N115      1.0  0.94888  0.21862  0.71219  1.0000
  H   H1375     1.0  0.91233  0.10322  0.67248  1.0000
  C   C1381     1.0  0.91525  0.06416  0.68381  1.0000
  S   S471      1.0  0.95059  0.11096  0.67274  1.0000
  S   S472      1.0  0.69247  0.07926  0.94593  1.0000
  C   C1382     1.0  0.95895  0.16123  0.72096  1.0000
  H   H1376     1.0  0.70260  0.13512  0.93190  1.0000
  H   H1377     1.0  0.88121  0.23271  0.78624  1.0000
  H   H1378     1.0  0.73379  0.15739  0.95455  1.0000
  Fe  Fe233     1.0  0.60846  0.01011  0.76470  1.0000
  C   C1383     1.0  0.81087  0.14996  0.80968  1.0000
  H   H1379     1.0  0.86423  0.13780  0.72540  1.0000
  C   C1384     1.0  0.59064  0.08323  0.84301  1.0000
  H   H1380     1.0  0.57724  0.05391  0.95201  1.0000
  H   H1381     1.0  0.71342  0.10617  0.84276  1.0000
  H   H1382     1.0  0.69304  0.05085  0.79089  1.0000
  H   H1383     1.0  0.68981  0.01995  0.80276  1.0000
  C   C1385     1.0  0.68477  0.11174  0.85153  1.0000
  C   C1386     1.0  0.69211  0.04529  0.80484  1.0000
  C   C1387     1.0  0.69035  0.02775  0.81146  1.0000
  H   H1384     1.0  0.78280  0.19361  0.87044  1.0000
  H   H1385     1.0  0.61974  0.00698  0.69438  1.0000
  C   C1388     1.0  0.70181  0.11494  0.84874  1.0000
  H   H1386     1.0  0.59186  0.06565  0.82702  1.0000
  H   H1387     1.0  0.65663  0.12100  0.86110  1.0000
  H   H1388     1.0  0.71431  0.10945  0.89813  1.0000
  C   C1389     1.0  0.93272  0.06638  0.68038  1.0000
  S   S473      1.0  0.78386  0.18153  0.95381  1.0000
  H   H1389     1.0  0.78991  0.17533  0.91922  1.0000
  N   N116      1.0  0.69198  0.05542  0.81588  1.0000
  H   H1390     1.0  0.68591  0.02589  0.85474  1.0000
  H   H1391     1.0  0.89251  0.12082  0.67211  1.0000
  N   N117      1.0  0.52559  0.06081  0.77451  1.0000
  C   C1390     1.0  0.70392  0.12928  0.85398  1.0000
  H   H1392     1.0  0.71712  0.13154  0.85199  1.0000
  H   H1393     1.0  0.76536  0.21107  0.93313  1.0000
  S   S474      1.0  0.85742  0.20035  0.73406  1.0000
  C   C1391     1.0  0.90812  0.10306  0.70902  1.0000
  C   C1392     1.0  0.79100  0.21009  0.84525  1.0000
  C   C1393     1.0  0.89983  0.10955  0.68069  1.0000
  H   H1394     1.0  0.91809  0.12781  0.80341  1.0000
  C   C1394     1.0  0.67190  0.13766  0.86417  1.0000
  C   C1395     1.0  0.72289  0.23156  0.94896  1.0000
  C   C1396     1.0  0.77748  0.17174  0.92683  1.0000
  N   N118      1.0  0.90411  0.11525  0.69436  1.0000
  S   S475      1.0  0.52259  0.04474  0.82860  1.0000
  C   C1397     1.0  0.68895  0.14064  0.86174  1.0000
  C   C1398     1.0  0.98224  0.15370  0.69611  1.0000
  H   H1395     1.0  0.81932  0.17410  0.75497  1.0000
  S   S476      1.0  0.54032  0.04827  0.94637  1.0000
  C   C1399     1.0  0.91265  0.10810  0.72207  1.0000
  H   H1396     1.0  0.70237  0.07736  0.81470  1.0000
  H   H1397     1.0  0.66028  0.14647  0.87008  1.0000
  H   H1398     1.0  0.77351  0.16211  0.90627  1.0000
  C   C1400     1.0  0.52446  0.05417  0.93347  1.0000
  Fe  Fe234     1.0  0.96174  0.08377  0.68681  1.0000
  H   H1399     1.0  0.68984  0.05665  0.84229  1.0000
  S   S477      1.0  0.90602  0.13801  0.77117  1.0000
  C   C1401     1.0  0.92293  0.13944  0.79550  1.0000
  H   H1400     1.0  0.93522  0.14139  0.81514  1.0000
  H   H1401     1.0  0.81667  0.13592  0.81176  1.0000
  C   C1402     1.0  0.69285  0.07406  0.80907  1.0000
  C   C1403     1.0  0.91312  0.12571  0.71999  1.0000
  H   H1402     1.0  0.90803  0.08929  0.71060  1.0000
  C   C1404     1.0  0.90493  0.13247  0.69203  1.0000
  C   C1405     1.0  0.72312  0.22178  0.88895  1.0000
  C   C1406     1.0  0.81051  0.14999  0.75970  1.0000
  C   C1407     1.0  0.81736  0.16449  0.74907  1.0000
  H   H1403     1.0  0.69729  0.07735  0.79453  1.0000
  S   S478      1.0  0.74091  0.13816  0.87657  1.0000
  S   S479      1.0  0.78304  0.14104  0.83653  1.0000
  C   C1408     1.0  0.93257  0.14715  0.80214  1.0000
  S   S480      1.0  0.69108  0.15833  0.86905  1.0000
  H   H1404     1.0  0.54412  0.09244  0.91226  1.0000
  S   S481      1.0  0.86153  0.15819  0.75313  1.0000
  C   C1409     1.0  0.91895  0.14714  0.77896  1.0000
  H   H1405     1.0  0.83269  0.15693  0.78839  1.0000
  H   H1406     1.0  0.52455  0.08763  0.87061  1.0000
  S   S482      1.0  0.97437  0.09301  0.70298  1.0000
  C   C1410     1.0  0.79439  0.15619  0.82033  1.0000
  H   H1407     1.0  0.79008  0.20023  0.80220  1.0000
  H   H1408     1.0  0.80329  0.12615  0.76028  1.0000
  H   H1409     1.0  0.64148  0.03358  0.65366  1.0000
  H   H1410     1.0  0.98703  0.14770  0.68482  1.0000
  H   H1411     1.0  0.90204  0.14215  0.68032  1.0000
  H   H1412     1.0  0.82783  0.17732  0.72245  1.0000
  C   C1411     1.0  0.90929  0.13798  0.70485  1.0000
  C   C1412     1.0  0.82194  0.16640  0.73084  1.0000
  H   H1413     1.0  0.73287  0.03520  0.70028  1.0000
  H   H1414     1.0  0.68585  0.00744  0.83494  1.0000
  C   C1413     1.0  0.81994  0.16184  0.79644  1.0000
  C   C1414     1.0  0.81054  0.12617  0.72626  1.0000
  Fe  Fe235     1.0  0.75895  0.15353  0.85477  1.0000
  H   H1415     1.0  0.54895  0.06643  0.87916  1.0000
  H   H1416     1.0  0.50828  0.05082  0.79834  1.0000
  C   C1415     1.0  0.92514  0.16225  0.76880  1.0000
  S   S483      1.0  0.52849  0.00063  0.86304  1.0000
  Fe  Fe236     1.0  0.88724  0.16032  0.75775  1.0000
  H   H1417     1.0  0.90998  0.15163  0.70291  1.0000
  H   H1418     1.0  0.85999  0.16285  0.67213  1.0000
  C   C1416     1.0  0.52374  0.09450  0.88061  1.0000
  S   S484      1.0  0.86753  0.17141  0.70063  1.0000
  H   H1419     1.0  0.69412  0.19534  0.85093  1.0000
  S   S485      1.0  0.50384  0.08108  0.84338  1.0000
  C   C1417     1.0  0.50798  0.11761  0.89638  1.0000
  H   H1420     1.0  0.70218  0.07029  0.66353  1.0000
  Fe  Fe237     1.0  0.71884  0.16039  0.86808  1.0000
  N   N119      1.0  0.81264  0.13963  0.73400  1.0000
  Fe  Fe238     1.0  0.84975  0.10036  0.66717  1.0000
  H   H1421     1.0  0.55375  0.05558  0.77272  1.0000
  C   C1418     1.0  0.81933  0.15385  0.72348  1.0000
  H   H1422     1.0  0.85116  0.13684  0.66942  1.0000
  H   H1423     1.0  0.92214  0.16821  0.75598  1.0000
  H   H1424     1.0  0.77438  0.17928  0.82589  1.0000
  Fe  Fe239     1.0  0.87069  0.17441  0.72633  1.0000
  H   H1425     1.0  0.90750  0.06205  0.69720  1.0000
  Fe  Fe240     1.0  0.74286  0.15556  0.89290  1.0000
  S   S486      1.0  0.53202  0.09628  0.95065  1.0000
  H   H1426     1.0  0.94039  0.18096  0.76712  1.0000
  C   C1419     1.0  0.97752  0.22484  0.70865  1.0000
  H   H1427     1.0  0.92647  0.23487  0.72587  1.0000
  S   S487      1.0  0.73659  0.17438  0.84489  1.0000
  C   C1420     1.0  0.78706  0.17437  0.81774  1.0000
  C   C1421     1.0  0.75249  0.15896  0.92949  1.0000
  H   H1428     1.0  0.62668  0.02003  0.65405  1.0000
  S   S488      1.0  0.71940  0.17660  0.88614  1.0000
  S   S489      1.0  0.74240  0.14677  0.92181  1.0000
  Fe  Fe241     1.0  0.73921  0.18852  0.86385  1.0000
  C   C1422     1.0  0.75519  0.16892  0.95404  1.0000
  S   S490      1.0  0.89723  0.17469  0.73036  1.0000
  H   H1429     1.0  0.79693  0.12352  0.73146  1.0000
  S   S491      1.0  0.96447  0.20364  0.75541  1.0000
  Fe  Fe242     1.0  0.97018  0.18678  0.78109  1.0000
  Fe  Fe243     1.0  0.85034  0.18424  0.76136  1.0000
  H   H1430     1.0  0.73405  0.20913  0.93670  1.0000
  C   C1423     1.0  0.93529  0.06937  0.64919  1.0000
  C   C1424     1.0  0.76983  0.21691  0.89093  1.0000
  N   N120      1.0  0.69336  0.23388  0.86036  1.0000
  H   H1431     1.0  0.49968  0.11318  0.87517  1.0000
  H   H1432     1.0  0.56345  0.07761  0.88296  1.0000
  C   C1425     1.0  0.78236  0.12846  0.95865  1.0000
  C   C1426     1.0  0.97358  0.11751  0.73799  1.0000
  H   H1433     1.0  0.77374  0.11931  0.94068  1.0000
  C   C1427     1.0  0.93805  0.20763  0.71028  1.0000
  C   C1428     1.0  0.96518  0.15306  0.70657  1.0000
  H   H1434     1.0  0.74720  0.10987  0.94659  1.0000
  C   C1429     1.0  0.96997  0.16953  0.72520  1.0000
  H   H1435     1.0  0.55125  0.06361  0.90113  1.0000
  C   C1430     1.0  0.68075  0.20305  0.87552  1.0000
  H   H1436     1.0  0.67451  0.06830  0.68654  1.0000
  H   H1437     1.0  0.76220  0.20634  0.89464  1.0000
  C   C1431     1.0  0.53349  0.01568  0.77388  1.0000
  C   C1432     1.0  0.70419  0.04164  0.71004  1.0000
  Fe  Fe244     1.0  0.97676  0.22268  0.76100  1.0000
  H   H1438     1.0  0.90319  0.20533  0.78682  1.0000
  C   C1433     1.0  0.69094  0.20555  0.85835  1.0000
  C   C1434     1.0  0.67492  0.04960  0.65775  1.0000
  H   H1439     1.0  0.94571  0.19868  0.70119  1.0000
  H   H1440     1.0  0.57162  0.05897  0.92237  1.0000
  H   H1441     1.0  0.65709  0.07417  0.96428  1.0000
  H   H1442     1.0  0.51482  0.04187  0.90103  1.0000
  H   H1443     1.0  0.53971  0.06682  0.78987  1.0000
  H   H1444     1.0  0.59553  0.12361  0.96703  1.0000
  H   H1445     1.0  0.66939  0.21405  0.89857  1.0000
  H   H1446     1.0  0.93320  0.19932  0.72329  1.0000
  H   H1447     1.0  0.53980  0.07159  0.74904  1.0000
  H   H1448     1.0  0.70486  0.03342  0.72305  1.0000
  C   C1435     1.0  0.78228  0.03983  0.66092  1.0000
  C   C1436     1.0  0.96954  0.13169  0.76173  1.0000
  C   C1437     1.0  0.51400  0.04981  0.91004  1.0000
  H   H1449     1.0  0.76025  0.22880  0.89495  1.0000
  C   C1438     1.0  0.73249  0.22893  0.87231  1.0000
  C   C1439     1.0  0.65894  0.06233  0.65772  1.0000
  C   C1440     1.0  0.50983  0.00284  0.83877  1.0000
  C   C1441     1.0  0.50962  0.05723  0.78456  1.0000
  S   S492      1.0  0.50445  0.98662  0.76701  1.0000
  H   H1450     1.0  0.86106  0.22290  0.76013  1.0000
  H   H1451     1.0  0.79458  0.13106  0.94942  1.0000
  S   S493      1.0  0.98991  0.11908  0.66560  1.0000
  C   C1442     1.0  0.79039  0.04629  0.67035  1.0000
  H   H1452     1.0  0.82319  0.22422  0.74530  1.0000
  C   C1443     1.0  0.63260  0.02468  0.66228  1.0000
  C   C1444     1.0  0.69720  0.22112  0.85093  1.0000
  H   H1453     1.0  0.79546  0.19929  0.83841  1.0000
  H   H1454     1.0  0.55521  0.01320  0.83400  1.0000
  C   C1445     1.0  0.63374  0.00166  0.68931  1.0000
  C   C1446     1.0  0.51248  0.07342  0.74928  1.0000
  H   H1455     1.0  0.93637  0.23268  0.77651  1.0000
  C   C1447     1.0  0.94079  0.23208  0.72086  1.0000
  Fe  Fe245     1.0  0.68135  0.08580  0.97246  1.0000
  C   C1448     1.0  0.51122  0.06967  0.93422  1.0000
  C   C1449     1.0  0.98713  0.16996  0.71482  1.0000
  C   C1450     1.0  0.59528  0.11120  0.97656  1.0000
  S   S494      1.0  0.56571  0.11125  0.96618  1.0000
  Fe  Fe246     1.0  0.99257  0.19082  0.74426  1.0000
  H   H1456     1.0  0.51390  0.07920  0.73533  1.0000
  S   S495      1.0  0.87319  0.10898  0.64737  1.0000
  C   C1451     1.0  0.74180  0.11325  0.95972  1.0000
  Fe  Fe247     1.0  0.54404  0.09636  0.97236  1.0000
  Fe  Fe248     1.0  0.50576  0.10108  0.96970  1.0000
  Fe  Fe249     1.0  0.97633  0.10684  0.65282  1.0000
  C   C1452     1.0  0.50139  0.06580  0.91022  1.0000
  S   S496      1.0  0.65700  0.10750  0.97626  1.0000
  C   C1453     1.0  0.67706  0.21602  0.88511  1.0000
  C   C1454     1.0  0.52056  0.11170  0.90683  1.0000
  Fe  Fe250     1.0  0.64156  0.98709  0.74723  1.0000
  C   C1455     1.0  0.77786  0.13269  0.97511  1.0000
  H   H1457     1.0  0.66709  0.00903  0.65410  1.0000
  C   C1456     1.0  0.91768  0.06758  0.65260  1.0000
  C   C1457     1.0  0.49972  0.07549  0.92261  1.0000
  N   N121      1.0  0.99062  0.12015  0.73171  1.0000
  H   H1458     1.0  0.99215  0.14110  0.76179  1.0000
  H   H1459     1.0  0.99423  0.11694  0.70572  1.0000
  C   C1458     1.0  0.99315  0.16218  0.70020  1.0000
  Fe  Fe251     1.0  0.50192  0.06322  0.87029  1.0000
  C   C1459     1.0  0.71639  0.23181  0.90193  1.0000
  H   H1460     1.0  0.78661  0.13853  0.97873  1.0000
  H   H1461     1.0  0.79800  0.22983  0.82202  1.0000
  C   C1460     1.0  0.68342  0.23151  0.87724  1.0000
  H   H1462     1.0  0.77148  0.23395  0.94417  1.0000
  C   C1461     1.0  0.66970  0.98826  0.67706  1.0000
  C   C1462     1.0  0.64284  0.98688  0.69968  1.0000
  C   C1463     1.0  0.86401  0.23580  0.75728  1.0000
  Fe  Fe252     1.0  0.49631  0.01617  0.76186  1.0000
  C   C1464     1.0  0.58197  0.10214  0.97879  1.0000
  H   H1463     1.0  0.49685  0.12863  0.89876  1.0000
  H   H1464     1.0  0.79396  0.23626  0.97095  1.0000
  C   C1465     1.0  0.49619  0.06969  0.75943  1.0000
  S   S497      1.0  0.80732  0.45051  0.05398  1.0000
  Fe  Fe253     1.0  0.76686  0.30849  0.02091  1.0000
  S   S498      1.0  0.79513  0.30897  0.00685  1.0000
  S   S499      1.0  0.76150  0.28169  0.03480  1.0000
  Fe  Fe254     1.0  0.75578  0.34854  0.01451  1.0000
  S   S500      1.0  0.78304  0.35250  0.99983  1.0000
  S   S501      1.0  0.73205  0.37067  0.01920  1.0000
  C   C1466     1.0  0.86815  0.42904  0.14923  1.0000
  H   H1465     1.0  0.90820  0.37855  0.07916  1.0000
  Fe  Fe255     1.0  0.79221  0.32991  0.02100  1.0000
  S   S502      1.0  0.81404  0.32708  0.03420  1.0000
  S   S503      1.0  0.75500  0.32906  0.99983  1.0000
  S   S504      1.0  0.76493  0.32771  0.03695  1.0000
  N   N122      1.0  0.88177  0.45378  0.14295  1.0000
  C   C1467     1.0  0.85969  0.24739  0.14326  1.0000
  S   S505      1.0  0.82067  0.27869  0.10086  1.0000
  H   H1466     1.0  0.83700  0.33006  0.99608  1.0000
  C   C1468     1.0  0.79570  0.25512  0.00263  1.0000
  H   H1467     1.0  0.90966  0.45073  0.14118  1.0000
  H   H1468     1.0  0.90745  0.31861  0.09663  1.0000
  C   C1469     1.0  0.73731  0.42301  0.02619  1.0000
  N   N123      1.0  0.93056  0.24268  0.06168  1.0000
  H   H1469     1.0  0.97884  0.29776  0.13810  1.0000
  H   H1470     1.0  0.77239  0.25549  0.07017  1.0000
  H   H1471     1.0  0.85751  0.41109  0.03823  1.0000
  H   H1472     1.0  0.70639  0.39980  0.03008  1.0000
  H   H1473     1.0  0.90483  0.47083  0.08680  1.0000
  H   H1474     1.0  0.89578  0.47164  0.14520  1.0000
  C   C1470     1.0  0.82235  0.27729  0.03900  1.0000
  Fe  Fe256     1.0  0.83789  0.39145  0.10753  1.0000
  S   S506      1.0  0.83705  0.41053  0.08164  1.0000
  S   S507      1.0  0.82624  0.39944  0.13341  1.0000
  Fe  Fe257     1.0  0.85600  0.35947  0.09115  1.0000
  S   S508      1.0  0.85693  0.37587  0.06379  1.0000
  S   S509      1.0  0.86958  0.33054  0.09412  1.0000
  Fe  Fe258     1.0  0.86487  0.39524  0.07330  1.0000
  S   S510      1.0  0.88751  0.40744  0.05654  1.0000
  Fe  Fe259     1.0  0.82904  0.38943  0.07462  1.0000
  S   S511      1.0  0.80801  0.39580  0.05920  1.0000
  S   S512      1.0  0.86657  0.37781  0.09985  1.0000
  S   S513      1.0  0.82726  0.37147  0.10136  1.0000
  Fe  Fe260     1.0  0.97405  0.40378  0.08171  1.0000
  C   C1471     1.0  0.82296  0.46792  0.06743  1.0000
  C   C1472     1.0  0.80941  0.26384  0.99329  1.0000
  Fe  Fe261     1.0  0.94152  0.42092  0.10555  1.0000
  S   S514      1.0  0.95463  0.41332  0.12836  1.0000
  S   S515      1.0  0.91325  0.43584  0.10744  1.0000
  Fe  Fe262     1.0  0.98618  0.27065  0.11355  1.0000
  H   H1475     1.0  0.83573  0.35478  0.00892  1.0000
  Fe  Fe263     1.0  0.83370  0.25196  0.09454  1.0000
  S   S516      1.0  0.96382  0.43149  0.08571  1.0000
  S   S517      1.0  0.95016  0.39411  0.09932  1.0000
  C   C1473     1.0  0.91611  0.37461  0.08945  1.0000
  H   H1476     1.0  0.90055  0.35094  0.08555  1.0000
  H   H1477     1.0  0.83640  0.26388  0.13389  1.0000
  H   H1478     1.0  0.80854  0.39572  0.00143  1.0000
  C   C1474     1.0  0.91095  0.34507  0.09296  1.0000
  S   S518      1.0  0.85545  0.24792  0.07071  1.0000
  H   H1479     1.0  0.93111  0.30472  0.11383  1.0000
  H   H1480     1.0  0.90056  0.46683  0.12376  1.0000
  H   H1481     1.0  0.83676  0.48104  0.07706  1.0000
  H   H1482     1.0  0.80453  0.48571  0.03169  1.0000
  H   H1483     1.0  0.82144  0.27209  0.02808  1.0000
  N   N124      1.0  0.92019  0.35539  0.09608  1.0000
  H   H1484     1.0  0.81366  0.27178  0.99944  1.0000
  H   H1485     1.0  0.82881  0.38489  0.00882  1.0000
  S   S519      1.0  0.73790  0.44324  0.02976  1.0000
  H   H1486     1.0  0.86400  0.46452  0.04662  1.0000
  C   C1475     1.0  0.88333  0.43600  0.14525  1.0000
  H   H1487     1.0  0.90346  0.24609  0.06048  1.0000
  C   C1476     1.0  0.86533  0.46502  0.14430  1.0000
  C   C1477     1.0  0.85134  0.44036  0.15103  1.0000
  C   C1478     1.0  0.99045  0.47253  0.11471  1.0000
  H   H1488     1.0  0.88383  0.29532  0.14311  1.0000
  C   C1479     1.0  0.85594  0.31687  0.09404  1.0000
  C   C1480     1.0  0.83736  0.32225  0.09839  1.0000
  C   C1481     1.0  0.82664  0.31058  0.09994  1.0000
  C   C1482     1.0  0.83443  0.29355  0.09696  1.0000
  C   C1483     1.0  0.85300  0.28835  0.09197  1.0000
  C   C1484     1.0  0.86375  0.29996  0.09065  1.0000
  H   H1489     1.0  0.83121  0.33520  0.10109  1.0000
  H   H1490     1.0  0.81228  0.31467  0.10380  1.0000
  H   H1491     1.0  0.87812  0.29581  0.08712  1.0000
  C   C1485     1.0  0.89398  0.41733  0.06960  1.0000
  C   C1486     1.0  0.91150  0.41947  0.06558  1.0000
  C   C1487     1.0  0.91731  0.42557  0.07708  1.0000
  C   C1488     1.0  0.90544  0.42997  0.09232  1.0000
  C   C1489     1.0  0.88768  0.42859  0.09595  1.0000
  C   C1490     1.0  0.88202  0.42198  0.08472  1.0000
  H   H1492     1.0  0.92079  0.41579  0.05394  1.0000
  H   H1493     1.0  0.93104  0.42668  0.07419  1.0000
  H   H1494     1.0  0.87849  0.43194  0.10777  1.0000
  H   H1495     1.0  0.86847  0.42029  0.08790  1.0000
  H   H1496     1.0  0.96700  0.24495  0.07355  1.0000
  C   C1491     1.0  0.95603  0.47359  0.13571  1.0000
  H   H1497     1.0  0.78597  0.42443  0.99117  1.0000
  C   C1492     1.0  0.90024  0.25585  0.10512  1.0000
  S   S520      1.0  0.97384  0.26532  0.09462  1.0000
  H   H1498     1.0  0.89282  0.26922  0.10542  1.0000
  C   C1493     1.0  0.93704  0.32963  0.11233  1.0000
  C   C1494     1.0  0.96535  0.45864  0.12872  1.0000
  H   H1499     1.0  0.77741  0.44070  0.11098  1.0000
  S   S521      1.0  0.81673  0.23676  0.08954  1.0000
  H   H1500     1.0  0.78620  0.46603  0.11706  1.0000
  H   H1501     1.0  0.85751  0.43499  0.05316  1.0000
  C   C1495     1.0  0.92796  0.31896  0.10892  1.0000
  C   C1496     1.0  0.84655  0.42124  0.03299  1.0000
  C   C1497     1.0  0.91679  0.24991  0.10988  1.0000
  N   N125      1.0  0.82408  0.37462  0.98920  1.0000
  C   C1498     1.0  0.81171  0.45792  0.13491  1.0000
  C   C1499     1.0  0.80388  0.44559  0.14852  1.0000
  C   C1500     1.0  0.80845  0.42774  0.14779  1.0000
  C   C1501     1.0  0.82061  0.42210  0.13326  1.0000
  C   C1502     1.0  0.82826  0.43446  0.11937  1.0000
  C   C1503     1.0  0.82387  0.45240  0.12023  1.0000
  H   H1502     1.0  0.79437  0.44980  0.15982  1.0000
  H   H1503     1.0  0.80252  0.41825  0.15854  1.0000
  H   H1504     1.0  0.83778  0.43016  0.10816  1.0000
  H   H1505     1.0  0.82977  0.46190  0.10953  1.0000
  C   C1504     1.0  0.72066  0.41885  0.02975  1.0000
  H   H1506     1.0  0.83429  0.26912  0.04403  1.0000
  H   H1507     1.0  0.96677  0.32343  0.15247  1.0000
  Fe  Fe264     1.0  0.97795  0.42186  0.10795  1.0000
  H   H1508     1.0  0.85905  0.27527  0.08956  1.0000
  H   H1509     1.0  0.79889  0.25697  0.04583  1.0000
  N   N126      1.0  0.85043  0.43883  0.02873  1.0000
  C   C1505     1.0  0.95812  0.23938  0.06987  1.0000
  C   C1506     1.0  0.89776  0.46106  0.13811  1.0000
  C   C1507     1.0  0.97933  0.31099  0.13037  1.0000
  H   H1510     1.0  0.86943  0.41499  0.15073  1.0000
  C   C1508     1.0  0.75153  0.39469  0.01797  1.0000
  Fe  Fe265     1.0  0.96548  0.38713  0.12035  1.0000
  C   C1509     1.0  0.75250  0.27128  0.02413  1.0000
  C   C1510     1.0  0.74669  0.28014  0.00860  1.0000
  C   C1511     1.0  0.73995  0.27122  0.00020  1.0000
  C   C1512     1.0  0.73942  0.25337  0.00713  1.0000
  C   C1513     1.0  0.74544  0.24451  0.02254  1.0000
  C   C1514     1.0  0.75181  0.25349  0.03110  1.0000
  H   H1511     1.0  0.74727  0.29383  0.00312  1.0000
  Fe  Fe266     1.0  0.76345  0.45270  0.02003  1.0000
  C   C1515     1.0  0.83192  0.34354  0.98961  1.0000
  H   H1512     1.0  0.75637  0.24656  0.04307  1.0000
  C   C1516     1.0  0.81159  0.34607  0.04162  1.0000
  C   C1517     1.0  0.80010  0.36184  0.03552  1.0000
  C   C1518     1.0  0.79917  0.37728  0.04069  1.0000
  C   C1519     1.0  0.80944  0.37677  0.05227  1.0000
  C   C1520     1.0  0.82043  0.36085  0.05880  1.0000
  C   C1521     1.0  0.82170  0.34556  0.05329  1.0000
  H   H1513     1.0  0.79209  0.36225  0.02667  1.0000
  H   H1514     1.0  0.79044  0.38954  0.03584  1.0000
  H   H1515     1.0  0.82792  0.36019  0.06821  1.0000
  H   H1516     1.0  0.83045  0.33331  0.05819  1.0000
  H   H1517     1.0  0.83948  0.43510  0.15417  1.0000
  C   C1522     1.0  0.85969  0.46061  0.03702  1.0000
  S   S522      1.0  0.76725  0.47314  0.03173  1.0000
  H   H1518     1.0  0.86410  0.47917  0.14201  1.0000
  C   C1523     1.0  0.93295  0.34793  0.10582  1.0000
  N   N127      1.0  0.77986  0.46552  0.09349  1.0000
  H   H1519     1.0  0.82490  0.45592  0.07747  1.0000
  S   S523      1.0  0.73179  0.24203  0.99621  1.0000
  H   H1520     1.0  0.91614  0.26022  0.04304  1.0000
  C   C1524     1.0  0.85092  0.46739  0.00938  1.0000
  C   C1525     1.0  0.98782  0.33080  0.10251  1.0000
  C   C1526     1.0  0.71938  0.40284  0.02730  1.0000
  C   C1527     1.0  0.73474  0.39068  0.02150  1.0000
  H   H1521     1.0  0.82414  0.29105  0.03354  1.0000
  C   C1528     1.0  0.85449  0.27918  0.13421  1.0000
  H   H1522     1.0  0.77921  0.44114  0.08821  1.0000
  H   H1523     1.0  0.84303  0.44652  0.00394  1.0000
  H   H1524     1.0  0.78939  0.25607  0.01613  1.0000
  C   C1529     1.0  0.84889  0.26351  0.13696  1.0000
  H   H1525     1.0  0.76347  0.38533  0.01352  1.0000
  S   S524      1.0  0.78999  0.43462  0.02218  1.0000
  N   N128      1.0  0.75898  0.38885  0.06996  1.0000
  C   C1530     1.0  0.77110  0.37663  0.07865  1.0000
  C   C1531     1.0  0.74887  0.38356  0.06219  1.0000
  C   C1532     1.0  0.77373  0.35861  0.07925  1.0000
  C   C1533     1.0  0.75117  0.36567  0.06246  1.0000
  C   C1534     1.0  0.76379  0.35315  0.07095  1.0000
  C   C1535     1.0  0.75794  0.40775  0.06772  1.0000
  H   H1526     1.0  0.77940  0.38084  0.08451  1.0000
  H   H1527     1.0  0.73910  0.39319  0.05550  1.0000
  H   H1528     1.0  0.78391  0.34905  0.08553  1.0000
  H   H1529     1.0  0.74341  0.36165  0.05581  1.0000
  H   H1530     1.0  0.76605  0.33928  0.07088  1.0000
  H   H1531     1.0  0.76886  0.41190  0.05666  1.0000
  H   H1532     1.0  0.74502  0.41601  0.06469  1.0000
  H   H1533     1.0  0.75942  0.41056  0.07980  1.0000
  Fe  Fe267     1.0  0.79474  0.45632  0.03116  1.0000
  H   H1534     1.0  0.77275  0.46881  0.06914  1.0000
  C   C1536     1.0  0.78234  0.47372  0.10494  1.0000
  H   H1535     1.0  0.76572  0.41398  0.01772  1.0000
  S   S525      1.0  0.80667  0.47029  0.00429  1.0000
  C   C1537     1.0  0.91378  0.47986  0.08116  1.0000
  S   S526      1.0  0.96507  0.26226  0.13701  1.0000
  C   C1538     1.0  0.79020  0.24509  0.99456  1.0000
  H   H1536     1.0  0.94007  0.35611  0.10863  1.0000
  C   C1539     1.0  0.75281  0.41093  0.02027  1.0000
  C   C1540     1.0  0.84782  0.45036  0.01326  1.0000
  C   C1541     1.0  0.81438  0.46895  0.05430  1.0000
  H   H1537     1.0  0.77946  0.23837  0.00171  1.0000
  N   N129      1.0  0.80642  0.27671  0.05328  1.0000
  C   C1542     1.0  0.80273  0.28696  0.06526  1.0000
  C   C1543     1.0  0.79588  0.26530  0.05515  1.0000
  C   C1544     1.0  0.78791  0.28622  0.07934  1.0000
  C   C1545     1.0  0.78092  0.26427  0.06903  1.0000
  C   C1546     1.0  0.77692  0.27484  0.08117  1.0000
  H   H1538     1.0  0.83685  0.46741  0.14982  1.0000
  H   H1539     1.0  0.81143  0.29558  0.06415  1.0000
  H   H1540     1.0  0.89637  0.42710  0.14373  1.0000
  H   H1541     1.0  0.78532  0.29409  0.08900  1.0000
  H   H1542     1.0  0.88063  0.24924  0.09594  1.0000
  H   H1543     1.0  0.76542  0.27408  0.09206  1.0000
  H   H1544     1.0  0.84510  0.41765  0.02131  1.0000
  H   H1545     1.0  0.83385  0.42086  0.04304  1.0000
  S   S527      1.0  0.92530  0.26433  0.11638  1.0000
  H   H1546     1.0  0.93817  0.26349  0.06729  1.0000
  H   H1547     1.0  0.94718  0.32378  0.12000  1.0000
  H   H1548     1.0  0.94274  0.47394  0.14390  1.0000
  C   C1547     1.0  0.88108  0.26306  0.14379  1.0000
  H   H1549     1.0  0.89399  0.26270  0.14594  1.0000
  C   C1548     1.0  0.85692  0.47251  0.02137  1.0000
  H   H1550     1.0  0.92858  0.37954  0.08333  1.0000
  Fe  Fe268     1.0  0.78328  0.33120  0.98709  1.0000
  N   N130      1.0  0.87045  0.27880  0.13754  1.0000
  C   C1549     1.0  0.89332  0.24458  0.09976  1.0000
  H   H1551     1.0  0.98128  0.35853  0.10284  1.0000
  C   C1550     1.0  0.98264  0.45805  0.11829  1.0000
  H   H1552     1.0  0.79852  0.44096  0.09531  1.0000
  S   S528      1.0  0.80535  0.48012  0.13664  1.0000
  H   H1553     1.0  0.86582  0.30707  0.13229  1.0000
  C   C1551     1.0  0.83106  0.35762  0.99689  1.0000
  H   H1554     1.0  0.95928  0.44749  0.13163  1.0000
  H   H1555     1.0  0.84612  0.29162  0.12907  1.0000
  Fe  Fe269     1.0  0.95431  0.25468  0.11806  1.0000
  C   C1552     1.0  0.84987  0.45847  0.14857  1.0000
  H   H1556     1.0  0.88641  0.29612  0.12006  1.0000
  Fe  Fe270     1.0  0.79927  0.45027  0.99523  1.0000
  H   H1557     1.0  0.90831  0.26438  0.06503  1.0000
  C   C1553     1.0  0.78383  0.44614  0.09722  1.0000
  C   C1554     1.0  0.85607  0.44385  0.04063  1.0000
  H   H1558     1.0  0.70866  0.42809  0.03438  1.0000
  H   H1559     1.0  0.90835  0.38134  0.10035  1.0000
  C   C1555     1.0  0.91476  0.32672  0.09924  1.0000
  C   C1556     1.0  0.92884  0.47743  0.08783  1.0000
  C   C1557     1.0  0.87692  0.29513  0.13308  1.0000
  H   H1560     1.0  0.77919  0.30331  0.98028  1.0000
  S   S529      1.0  0.77223  0.46682  0.99213  1.0000
  H   H1561     1.0  0.71414  0.42488  0.98364  1.0000
  H   H1562     1.0  0.82970  0.39934  0.98739  1.0000
  S   S530      1.0  0.96471  0.36071  0.13894  1.0000
  C   C1558     1.0  0.97330  0.34268  0.12861  1.0000
  C   C1559     1.0  0.82277  0.38931  0.99711  1.0000
  H   H1563     1.0  0.93146  0.46632  0.09865  1.0000
  C   C1560     1.0  0.97254  0.32551  0.13849  1.0000
  C   C1561     1.0  0.98079  0.34532  0.11056  1.0000
  S   S531      1.0  0.98532  0.39740  0.05515  1.0000
  C   C1562     1.0  0.87588  0.24713  0.14675  1.0000
  H   H1564     1.0  0.73540  0.27808  0.98822  1.0000
  C   C1563     1.0  0.77463  0.47527  0.07832  1.0000
  C   C1564     1.0  0.98709  0.31363  0.11238  1.0000
  H   H1565     1.0  0.74795  0.44724  0.97963  1.0000
  C   C1565     1.0  0.94184  0.24979  0.06619  1.0000
  H   H1566     1.0  0.85899  0.48580  0.01877  1.0000
  C   C1566     1.0  0.91383  0.25393  0.05727  1.0000
  H   H1567     1.0  0.99375  0.33289  0.08858  1.0000
  C   C1567     1.0  0.72864  0.42463  0.98032  1.0000
  H   H1568     1.0  0.73228  0.42471  0.99248  1.0000
  H   H1569     1.0  0.96191  0.47247  0.09179  1.0000
  H   H1570     1.0  0.76675  0.41252  0.98039  1.0000
  C   C1568     1.0  0.82962  0.48222  0.06726  1.0000
  H   H1571     1.0  0.84838  0.47664  0.99732  1.0000
  Fe  Fe271     1.0  0.99148  0.23834  0.09883  1.0000
  C   C1569     1.0  0.81181  0.48454  0.04143  1.0000
  S   S532      1.0  0.99029  0.39483  0.10224  1.0000
  Fe  Fe272     1.0  0.77868  0.48569  0.00398  1.0000
  S   S533      1.0  0.99455  0.43970  0.10906  1.0000
  S   S534      1.0  0.85782  0.30721  0.79301  1.0000
  S   S535      1.0  0.83926  0.28233  0.77119  1.0000
  Fe  Fe273     1.0  0.83975  0.33412  0.79196  1.0000
  Fe  Fe274     1.0  0.86497  0.43238  0.78254  1.0000
  Fe  Fe275     1.0  0.87748  0.32137  0.77284  1.0000
  S   S536      1.0  0.90649  0.31220  0.77279  1.0000
  S   S537      1.0  0.93814  0.35794  0.80216  1.0000
  Fe  Fe276     1.0  0.76209  0.28949  0.88147  1.0000
  S   S538      1.0  0.77712  0.28474  0.85489  1.0000
  Fe  Fe277     1.0  0.76372  0.28012  0.91976  1.0000
  S   S539      1.0  0.77971  0.26796  0.94039  1.0000
  S   S540      1.0  0.71191  0.26108  0.91478  1.0000
  S   S541      1.0  0.75953  0.26513  0.90259  1.0000
  C   C1570     1.0  0.91819  0.25700  0.78097  1.0000
  S   S542      1.0  0.84646  0.36710  0.72894  1.0000
  H   H1572     1.0  0.84234  0.27153  0.71808  1.0000
  C   C1571     1.0  0.84214  0.42299  0.82266  1.0000
  H   H1573     1.0  0.80150  0.46391  0.80077  1.0000
  C   C1572     1.0  0.82528  0.42166  0.83323  1.0000
  C   C1573     1.0  0.83348  0.26460  0.72879  1.0000
  H   H1574     1.0  0.89687  0.27938  0.78601  1.0000
  S   S543      1.0  0.82192  0.44555  0.87185  1.0000
  Fe  Fe278     1.0  0.79466  0.44043  0.88455  1.0000
  H   H1575     1.0  0.81234  0.39149  0.96816  1.0000
  C   C1574     1.0  0.85307  0.43075  0.82753  1.0000
  H   H1576     1.0  0.81697  0.34797  0.85228  1.0000
  H   H1577     1.0  0.70004  0.25720  0.86184  1.0000
  C   C1575     1.0  0.98051  0.28954  0.76868  1.0000
  C   C1576     1.0  0.84068  0.35836  0.84022  1.0000
  H   H1578     1.0  0.91809  0.45335  0.82062  1.0000
  S   S544      1.0  0.74771  0.43042  0.90380  1.0000
  H   H1579     1.0  0.96245  0.44242  0.76599  1.0000
  H   H1580     1.0  0.90126  0.33753  0.73878  1.0000
  C   C1577     1.0  0.79695  0.31163  0.93628  1.0000
  C   C1578     1.0  0.99323  0.25376  0.76744  1.0000
  S   S545      1.0  0.77399  0.44822  0.86845  1.0000
  C   C1579     1.0  0.81928  0.42818  0.84859  1.0000
  H   H1581     1.0  0.85382  0.39473  0.69904  1.0000
  C   C1580     1.0  0.83384  0.24697  0.72988  1.0000
  H   H1582     1.0  0.71256  0.24821  0.84317  1.0000
  S   S546      1.0  0.76705  0.41051  0.94557  1.0000
  H   H1583     1.0  0.97561  0.30337  0.76908  1.0000
  Fe  Fe279     1.0  0.87462  0.44312  0.74324  1.0000
  S   S547      1.0  0.87306  0.43676  0.71866  1.0000
  H   H1584     1.0  0.78153  0.39665  0.82499  1.0000
  C   C1581     1.0  0.74710  0.46435  0.95418  1.0000
  S   S548      1.0  0.77647  0.45112  0.90747  1.0000
  C   C1582     1.0  0.79483  0.38750  0.82268  1.0000
  H   H1585     1.0  0.84614  0.34905  0.83164  1.0000
  H   H1586     1.0  0.82018  0.43204  0.93964  1.0000
  Fe  Fe280     1.0  0.96759  0.34676  0.79754  1.0000
  C   C1583     1.0  0.72667  0.44320  0.95116  1.0000
  C   C1584     1.0  0.79651  0.47006  0.82615  1.0000
  H   H1587     1.0  0.82236  0.28658  0.74136  1.0000
  S   S549      1.0  0.79092  0.41280  0.89597  1.0000
  S   S550      1.0  0.88841  0.42211  0.76260  1.0000
  Fe  Fe281     1.0  0.89980  0.44371  0.76443  1.0000
  H   H1588     1.0  0.75750  0.34236  0.87902  1.0000
  H   H1589     1.0  0.80376  0.36981  0.87149  1.0000
  H   H1590     1.0  0.81684  0.41551  0.82963  1.0000
  H   H1591     1.0  0.78671  0.27030  0.77402  1.0000
  C   C1585     1.0  0.81684  0.36980  0.86275  1.0000
  H   H1592     1.0  0.74151  0.40001  0.89634  1.0000
  H   H1593     1.0  0.87303  0.26376  0.78947  1.0000
  H   H1594     1.0  0.84292  0.48148  0.81042  1.0000
  H   H1595     1.0  0.79340  0.37388  0.82981  1.0000
  H   H1596     1.0  0.88583  0.35552  0.72872  1.0000
  H   H1597     1.0  0.92514  0.39657  0.74597  1.0000
  H   H1598     1.0  0.85540  0.44356  0.84654  1.0000
  H   H1599     1.0  0.71905  0.43474  0.94968  1.0000
  C   C1586     1.0  0.95266  0.44484  0.77785  1.0000
  C   C1587     1.0  0.86193  0.40657  0.73884  1.0000
  C   C1588     1.0  0.75897  0.38448  0.87802  1.0000
  H   H1600     1.0  0.80015  0.42143  0.92848  1.0000
  C   C1589     1.0  0.90021  0.35036  0.72901  1.0000
  C   C1590     1.0  0.79326  0.29747  0.93219  1.0000
  C   C1591     1.0  0.74513  0.38746  0.89256  1.0000
  H   H1601     1.0  0.74383  0.47910  0.92817  1.0000
  N   N131      1.0  0.84975  0.37068  0.83945  1.0000
  C   C1592     1.0  0.71949  0.24880  0.89842  1.0000
  S   S551      1.0  0.96429  0.25171  0.75694  1.0000
  H   H1602     1.0  0.79724  0.29578  0.91878  1.0000
  H   H1603     1.0  0.77302  0.38201  0.92779  1.0000
  S   S552      1.0  0.97617  0.48171  0.78207  1.0000
  C   C1593     1.0  0.72912  0.25580  0.88188  1.0000
  C   C1594     1.0  0.97683  0.26278  0.76313  1.0000
  H   H1604     1.0  0.68944  0.25962  0.84410  1.0000
  S   S553      1.0  0.98364  0.34248  0.77090  1.0000
  H   H1605     1.0  0.73153  0.26893  0.87905  1.0000
  C   C1595     1.0  0.78459  0.28546  0.94546  1.0000
  H   H1606     1.0  0.97197  0.44706  0.79021  1.0000
  H   H1607     1.0  0.90879  0.44690  0.79685  1.0000
  C   C1596     1.0  0.86683  0.37129  0.82675  1.0000
  C   C1597     1.0  0.78322  0.30174  0.96687  1.0000
  C   C1598     1.0  0.77963  0.28756  0.96279  1.0000
  H   H1608     1.0  0.75373  0.37682  0.95775  1.0000
  H   H1609     1.0  0.79200  0.34175  0.84612  1.0000
  C   C1599     1.0  0.82124  0.25058  0.95015  1.0000
  H   H1610     1.0  0.77268  0.27843  0.97302  1.0000
  C   C1600     1.0  0.85539  0.26587  0.76165  1.0000
  C   C1601     1.0  0.87112  0.26945  0.74986  1.0000
  C   C1602     1.0  0.88329  0.25618  0.74178  1.0000
  C   C1603     1.0  0.73539  0.24599  0.86879  1.0000
  S   S554      1.0  0.95243  0.45647  0.82308  1.0000
  C   C1604     1.0  0.85203  0.24893  0.76555  1.0000
  H   H1611     1.0  0.87383  0.28247  0.74679  1.0000
  H   H1612     1.0  0.89537  0.25905  0.73256  1.0000
  H   H1613     1.0  0.78756  0.25436  0.83812  1.0000
  H   H1614     1.0  0.78343  0.46692  0.83065  1.0000
  C   C1605     1.0  0.78827  0.30173  0.84338  1.0000
  C   C1606     1.0  0.80109  0.29976  0.82792  1.0000
  C   C1607     1.0  0.81090  0.31277  0.81919  1.0000
  C   C1608     1.0  0.80802  0.32771  0.82596  1.0000
  H   H1615     1.0  0.80369  0.28803  0.82285  1.0000
  H   H1616     1.0  0.82082  0.31102  0.80735  1.0000
  C   C1609     1.0  0.91433  0.32387  0.78310  1.0000
  C   C1610     1.0  0.93233  0.31905  0.78376  1.0000
  C   C1611     1.0  0.93951  0.32927  0.79012  1.0000
  C   C1612     1.0  0.92869  0.34439  0.79578  1.0000
  C   C1613     1.0  0.91055  0.34906  0.79553  1.0000
  C   C1614     1.0  0.90334  0.33871  0.78929  1.0000
  H   H1617     1.0  0.94081  0.30752  0.77912  1.0000
  H   H1618     1.0  0.95348  0.32545  0.79045  1.0000
  H   H1619     1.0  0.90221  0.36083  0.79982  1.0000
  H   H1620     1.0  0.88942  0.34240  0.78897  1.0000
  H   H1621     1.0  0.82148  0.26387  0.94137  1.0000
  Fe  Fe282     1.0  0.84772  0.30702  0.77003  1.0000
  Fe  Fe283     1.0  0.73084  0.27884  0.90905  1.0000
  N   N132      1.0  0.80188  0.38833  0.80379  1.0000
  H   H1622     1.0  0.73997  0.35077  0.96826  1.0000
  S   S555      1.0  0.84968  0.41429  0.80382  1.0000
  C   C1615     1.0  0.74864  0.35279  0.95528  1.0000
  H   H1623     1.0  0.80640  0.42674  0.85681  1.0000
  H   H1624     1.0  0.86639  0.43115  0.81981  1.0000
  H   H1625     1.0  0.78813  0.36938  0.80335  1.0000
  H   H1626     1.0  0.86402  0.40992  0.74997  1.0000
  S   S556      1.0  0.72861  0.34147  0.91028  1.0000
  H   H1627     1.0  0.77398  0.36585  0.86182  1.0000
  C   C1616     1.0  0.97050  0.28070  0.76368  1.0000
  Fe  Fe284     1.0  0.76894  0.42103  0.88142  1.0000
  Fe  Fe285     1.0  0.77030  0.42419  0.91720  1.0000
  C   C1617     1.0  0.76337  0.36820  0.87310  1.0000
  H   H1628     1.0  0.80387  0.39113  0.82857  1.0000
  N   N133      1.0  0.95529  0.40208  0.78553  1.0000
  C   C1618     1.0  0.96303  0.40473  0.79733  1.0000
  C   C1619     1.0  0.93809  0.39994  0.79047  1.0000
  C   C1620     1.0  0.95335  0.40584  0.81440  1.0000
  C   C1621     1.0  0.92804  0.40089  0.80745  1.0000
  C   C1622     1.0  0.93572  0.40392  0.81945  1.0000
  C   C1623     1.0  0.96567  0.40111  0.76765  1.0000
  H   H1629     1.0  0.97660  0.40652  0.79343  1.0000
  H   H1630     1.0  0.93202  0.39754  0.78126  1.0000
  H   H1631     1.0  0.95936  0.40856  0.82350  1.0000
  H   H1632     1.0  0.91443  0.39915  0.81123  1.0000
  H   H1633     1.0  0.79936  0.28723  0.76669  1.0000
  C   C1624     1.0  0.80041  0.27269  0.77035  1.0000
  H   H1634     1.0  0.71606  0.26745  0.96564  1.0000
  H   H1635     1.0  0.97429  0.38769  0.76751  1.0000
  C   C1625     1.0  0.74009  0.35799  0.89730  1.0000
  C   C1626     1.0  0.85353  0.38651  0.72672  1.0000
  C   C1627     1.0  0.78196  0.41656  0.95367  1.0000
  C   C1628     1.0  0.93488  0.44455  0.77966  1.0000
  H   H1636     1.0  0.85428  0.38232  0.75391  1.0000
  H   H1637     1.0  0.97420  0.41097  0.76264  1.0000
  S   S557      1.0  0.85023  0.45201  0.76308  1.0000
  Fe  Fe286     1.0  0.86514  0.47092  0.76511  1.0000
  H   H1638     1.0  0.95788  0.28773  0.76022  1.0000
  C   C1629     1.0  0.95805  0.44773  0.79154  1.0000
  C   C1630     1.0  0.90033  0.26575  0.78475  1.0000
  S   S558      1.0  0.87768  0.45197  0.78648  1.0000
  H   H1639     1.0  0.82592  0.33614  0.96871  1.0000
  H   H1640     1.0  0.80661  0.26747  0.78197  1.0000
  H   H1641     1.0  0.86528  0.37194  0.81337  1.0000
  C   C1631     1.0  0.81793  0.37807  0.97421  1.0000
  Fe  Fe287     1.0  0.97771  0.46558  0.80904  1.0000
  H   H1642     1.0  0.77842  0.36094  0.90866  1.0000
  C   C1632     1.0  0.76716  0.37050  0.93257  1.0000
  C   C1633     1.0  0.96939  0.23856  0.71749  1.0000
  C   C1634     1.0  0.92776  0.45088  0.80873  1.0000
  H   H1643     1.0  0.87163  0.38326  0.82578  1.0000
  C   C1635     1.0  0.92550  0.36902  0.74925  1.0000
  S   S559      1.0  0.79532  0.33214  0.95856  1.0000
  C   C1636     1.0  0.90232  0.38063  0.72658  1.0000
  C   C1637     1.0  0.86200  0.41339  0.70786  1.0000
  S   S560      1.0  0.73471  0.29170  0.92839  1.0000
  H   H1644     1.0  0.72485  0.37676  0.91326  1.0000
  C   C1638     1.0  0.86490  0.41776  0.72216  1.0000
  C   C1639     1.0  0.77915  0.23734  0.86312  1.0000
  C   C1640     1.0  0.74068  0.46812  0.93893  1.0000
  Fe  Fe288     1.0  0.75533  0.45682  0.89235  1.0000
  H   H1645     1.0  0.84290  0.24015  0.71992  1.0000
  C   C1641     1.0  0.92024  0.38710  0.74242  1.0000
  C   C1642     1.0  0.79858  0.24381  0.97722  1.0000
  N   N134      1.0  0.73272  0.43978  0.96619  1.0000
  H   H1646     1.0  0.72545  0.46025  0.92554  1.0000
  C   C1643     1.0  0.81295  0.39951  0.79420  1.0000
  C   C1644     1.0  0.79675  0.37840  0.79572  1.0000
  C   C1645     1.0  0.81942  0.40071  0.77609  1.0000
  C   C1646     1.0  0.80309  0.37917  0.77766  1.0000
  C   C1647     1.0  0.81443  0.39045  0.76780  1.0000
  C   C1648     1.0  0.85649  0.39084  0.74105  1.0000
  H   H1647     1.0  0.81692  0.40752  0.80051  1.0000
  H   H1648     1.0  0.95682  0.40430  0.75831  1.0000
  H   H1649     1.0  0.82833  0.40948  0.76855  1.0000
  H   H1650     1.0  0.79938  0.37093  0.77138  1.0000
  H   H1651     1.0  0.81940  0.39114  0.75378  1.0000
  S   S561      1.0  0.76932  0.30333  0.89809  1.0000
  C   C1649     1.0  0.82989  0.47820  0.81502  1.0000
  H   H1652     1.0  0.92852  0.48525  0.75774  1.0000
  S   S562      1.0  0.73297  0.30234  0.88660  1.0000
  C   C1650     1.0  0.92243  0.44750  0.79515  1.0000
  C   C1651     1.0  0.77033  0.35860  0.92190  1.0000
  C   C1652     1.0  0.78478  0.31705  0.84974  1.0000
  C   C1653     1.0  0.82642  0.38201  0.86222  1.0000
  S   S563      1.0  0.82136  0.34321  0.81571  1.0000
  C   C1654     1.0  0.85616  0.39792  0.71017  1.0000
  S   S564      1.0  0.86059  0.34846  0.77414  1.0000
  S   S565      1.0  0.86894  0.31911  0.74973  1.0000
  H   H1653     1.0  0.90778  0.34791  0.71587  1.0000
  C   C1655     1.0  0.79469  0.33003  0.84106  1.0000
  C   C1656     1.0  0.74360  0.32584  0.95109  1.0000
  C   C1657     1.0  0.94561  0.45110  0.80687  1.0000
  H   H1654     1.0  0.85031  0.39181  0.85014  1.0000
  C   C1658     1.0  0.78920  0.42356  0.97757  1.0000
  H   H1655     1.0  0.72992  0.32996  0.94855  1.0000
  H   H1656     1.0  0.82088  0.39151  0.87058  1.0000
  H   H1657     1.0  0.77443  0.31890  0.86132  1.0000
  H   H1658     1.0  0.86423  0.42203  0.69495  1.0000
  S   S566      1.0  0.81773  0.43733  0.97394  1.0000
  C   C1659     1.0  0.93856  0.48567  0.74507  1.0000
  C   C1660     1.0  0.71141  0.25749  0.96202  1.0000
  C   C1661     1.0  0.82413  0.35770  0.85189  1.0000
  C   C1662     1.0  0.82997  0.43638  0.85325  1.0000
  H   H1659     1.0  0.77451  0.24814  0.86993  1.0000
  H   H1660     1.0  0.97741  0.24607  0.71997  1.0000
  C   C1663     1.0  0.91893  0.35706  0.74455  1.0000
  C   C1664     1.0  0.90867  0.39297  0.73091  1.0000
  C   C1665     1.0  0.75625  0.36761  0.94938  1.0000
  S   S567      1.0  0.92908  0.43945  0.76269  1.0000
  Fe  Fe289     1.0  0.73983  0.31407  0.90525  1.0000
  C   C1666     1.0  0.76259  0.34388  0.92826  1.0000
  N   N135      1.0  0.90714  0.36298  0.73370  1.0000
  C   C1667     1.0  0.75405  0.35490  0.88283  1.0000
  H   H1661     1.0  0.89336  0.38529  0.71758  1.0000
  C   C1668     1.0  0.79715  0.42185  0.94222  1.0000
  H   H1662     1.0  0.68051  0.24154  0.88479  1.0000
  S   S568      1.0  0.82796  0.33299  0.77049  1.0000
  H   H1663     1.0  0.94451  0.25283  0.73063  1.0000
  H   H1664     1.0  0.93456  0.36423  0.75816  1.0000
  C   C1669     1.0  0.82208  0.27306  0.74200  1.0000
  C   C1670     1.0  0.69907  0.25058  0.85194  1.0000
  N   N136      1.0  0.81145  0.26412  0.75598  1.0000
  C   C1671     1.0  0.73037  0.45751  0.93741  1.0000
  H   H1665     1.0  0.80357  0.32098  0.92600  1.0000
  Fe  Fe290     1.0  0.85033  0.34524  0.75260  1.0000
  C   C1672     1.0  0.80664  0.46835  0.80941  1.0000
  H   H1666     1.0  0.87714  0.35936  0.83054  1.0000
  C   C1673     1.0  0.88696  0.25693  0.78678  1.0000
  N   N137      1.0  0.72637  0.24453  0.95446  1.0000
  S   S569      1.0  0.88819  0.46400  0.74310  1.0000
  C   C1674     1.0  0.84694  0.43754  0.84279  1.0000
  C   C1675     1.0  0.80850  0.42781  0.94852  1.0000
  C   C1676     1.0  0.84305  0.38215  0.85055  1.0000
  C   C1677     1.0  0.92244  0.23939  0.77943  1.0000
  H   H1667     1.0  0.74251  0.25166  0.85590  1.0000
  C   C1678     1.0  0.73562  0.37432  0.90207  1.0000
  C   C1679     1.0  0.81182  0.24678  0.75720  1.0000
  S   S570      1.0  0.77108  0.40083  0.86607  1.0000
  C   C1680     1.0  0.80342  0.47578  0.83709  1.0000
  H   H1668     1.0  0.92801  0.40490  0.83259  1.0000
  C   C1681     1.0  0.77829  0.41688  0.97146  1.0000
  H   H1669     1.0  0.81421  0.24402  0.94466  1.0000
  C   C1682     1.0  0.79175  0.31387  0.95360  1.0000
  N   N138      1.0  0.81212  0.25232  0.96817  1.0000
  H   H1670     1.0  0.83508  0.24269  0.94986  1.0000
  H   H1671     1.0  0.74640  0.25536  0.95768  1.0000
  H   H1672     1.0  0.75540  0.47230  0.95541  1.0000
  H   H1673     1.0  0.97430  0.47568  0.73652  1.0000
  H   H1674     1.0  0.80385  0.23946  0.76852  1.0000
  H   H1675     1.0  0.79556  0.47686  0.85018  1.0000
  H   H1676     1.0  0.73625  0.41210  0.97621  1.0000
  C   C1683     1.0  0.81859  0.36432  0.96656  1.0000
  C   C1684     1.0  0.74288  0.45010  0.96782  1.0000
  H   H1677     1.0  0.70337  0.25069  0.97424  1.0000
  S   S571      1.0  0.97993  0.32028  0.81250  1.0000
  H   H1678     1.0  0.76485  0.33485  0.91978  1.0000
  H   H1679     1.0  0.90450  0.40700  0.72545  1.0000
  C   C1685     1.0  0.95089  0.24231  0.72354  1.0000
  C   C1686     1.0  0.74359  0.24537  0.95291  1.0000
  S   S572      1.0  0.98539  0.36172  0.80143  1.0000
  H   H1680     1.0  0.92327  0.34302  0.74968  1.0000
  C   C1687     1.0  0.80431  0.42898  0.96612  1.0000
  N   N139      1.0  0.75208  0.34102  0.94484  1.0000
  H   H1681     1.0  0.81326  0.36706  0.95492  1.0000
  H   H1682     1.0  0.82809  0.26922  0.96871  1.0000
  C   C1688     1.0  0.78652  0.24095  0.84504  1.0000
  H   H1683     1.0  0.75126  0.31502  0.94417  1.0000
  H   H1684     1.0  0.83126  0.47151  0.79071  1.0000
  H   H1685     1.0  0.92871  0.26386  0.77916  1.0000
  H   H1686     1.0  0.70290  0.26461  0.95237  1.0000
  H   H1687     1.0  0.94495  0.47171  0.74421  1.0000
  C   C1689     1.0  0.82339  0.47250  0.80378  1.0000
  N   N140      1.0  0.81996  0.47966  0.83149  1.0000
  H   H1688     1.0  0.84005  0.24598  0.77487  1.0000
  C   C1690     1.0  0.87963  0.23940  0.74534  1.0000
  C   C1691     1.0  0.82567  0.34695  0.97433  1.0000
  H   H1689     1.0  0.74294  0.32032  0.96536  1.0000
  S   S573      1.0  0.99061  0.48384  0.81512  1.0000
  S   S574      1.0  0.73548  0.48290  0.89239  1.0000
  C   C1692     1.0  0.82286  0.23802  0.74412  1.0000
  C   C1693     1.0  0.81754  0.26228  0.97596  1.0000
  H   H1690     1.0  0.84027  0.47679  0.84475  1.0000
  C   C1694     1.0  0.89168  0.23937  0.78499  1.0000
  H   H1691     1.0  0.81834  0.48510  0.85635  1.0000
  C   C1695     1.0  0.82718  0.48563  0.84298  1.0000
  H   H1692     1.0  0.89455  0.57748  0.10784  1.0000
  C   C1696     1.0  0.57392  0.71672  0.03634  1.0000
  H   H1693     1.0  0.88410  0.58537  0.06541  1.0000
  C   C1697     1.0  0.81882  0.49873  0.04106  1.0000
  S   S575      1.0  0.80959  0.52103  0.09864  1.0000
  C   C1698     1.0  0.91318  0.51742  0.10707  1.0000
  H   H1694     1.0  0.88814  0.63997  0.15826  1.0000
  C   C1699     1.0  0.89990  0.57471  0.15161  1.0000
  H   H1695     1.0  0.91868  0.51734  0.05001  1.0000
  S   S576      1.0  0.98209  0.70854  0.12392  1.0000
  H   H1696     1.0  0.97779  0.64772  0.09175  1.0000
  H   H1697     1.0  0.93793  0.65642  0.13902  1.0000
  H   H1698     1.0  0.76840  0.60396  0.08963  1.0000
  C   C1700     1.0  0.80993  0.55299  0.04344  1.0000
  H   H1699     1.0  0.91961  0.58314  0.15886  1.0000
  C   C1701     1.0  0.92439  0.52889  0.09711  1.0000
  C   C1702     1.0  0.91017  0.49418  0.06738  1.0000
  H   H1700     1.0  0.79135  0.60502  0.08536  1.0000
  S   S577      1.0  0.83741  0.51476  0.05313  1.0000
  H   H1701     1.0  0.75152  0.63090  0.07684  1.0000
  H   H1702     1.0  0.93663  0.52771  0.10082  1.0000
  H   H1703     1.0  0.93898  0.71736  0.30503  1.0000
  H   H1704     1.0  0.88022  0.57355  0.08787  1.0000
  H   H1705     1.0  0.88181  0.53083  0.08271  1.0000
  Fe  Fe291     1.0  0.76959  0.62271  0.00334  1.0000
  S   S578      1.0  0.74283  0.61786  0.01915  1.0000
  C   C1703     1.0  0.99262  0.61174  0.08683  1.0000
  Fe  Fe292     1.0  0.78556  0.61339  0.03530  1.0000
  S   S579      1.0  0.76016  0.60749  0.05356  1.0000
  S   S580      1.0  0.80936  0.60739  0.04745  1.0000
  Fe  Fe293     1.0  0.75876  0.59363  0.03383  1.0000
  S   S581      1.0  0.75053  0.56743  0.04392  1.0000
  Fe  Fe294     1.0  0.74664  0.63229  0.03725  1.0000
  S   S582      1.0  0.72333  0.65056  0.05098  1.0000
  S   S583      1.0  0.78537  0.59737  0.01675  1.0000
  S   S584      1.0  0.77220  0.63929  0.02029  1.0000
  C   C1704     1.0  0.77770  0.60987  0.09287  1.0000
  Fe  Fe295     1.0  0.85921  0.62641  0.11934  1.0000
  S   S585      1.0  0.86820  0.63638  0.09043  1.0000
  S   S586      1.0  0.86340  0.59694  0.12895  1.0000
  Fe  Fe296     1.0  0.84896  0.66317  0.12695  1.0000
  S   S587      1.0  0.85705  0.67622  0.09853  1.0000
  S   S588      1.0  0.83685  0.67896  0.14803  1.0000
  Fe  Fe297     1.0  0.84344  0.65776  0.09346  1.0000
  S   S589      1.0  0.82501  0.66668  0.07457  1.0000
  Fe  Fe298     1.0  0.88093  0.65352  0.09830  1.0000
  S   S590      1.0  0.90975  0.65423  0.08639  1.0000
  S   S591      1.0  0.83334  0.64655  0.12201  1.0000
  S   S592      1.0  0.87391  0.64181  0.12712  1.0000
  S   S593      1.0  0.93767  0.69956  0.12061  1.0000
  C   C1705     1.0  0.91749  0.66701  0.09566  1.0000
  C   C1706     1.0  0.90553  0.67991  0.10418  1.0000
  C   C1707     1.0  0.91193  0.69015  0.11139  1.0000
  C   C1708     1.0  0.93019  0.68720  0.11057  1.0000
  C   C1709     1.0  0.94213  0.67420  0.10217  1.0000
  C   C1710     1.0  0.93581  0.66421  0.09457  1.0000
  H   H1706     1.0  0.89139  0.68221  0.10491  1.0000
  H   H1707     1.0  0.90274  0.70026  0.11775  1.0000
  H   H1708     1.0  0.95619  0.67198  0.10142  1.0000
  H   H1709     1.0  0.94506  0.65422  0.08798  1.0000
  H   H1710     1.0  0.83071  0.61392  0.11679  1.0000
  C   C1711     1.0  0.99388  0.71217  0.17538  1.0000
  C   C1712     1.0  0.78343  0.55516  0.06667  1.0000
  N   N141      1.0  0.93983  0.71961  0.17163  1.0000
  H   H1711     1.0  0.73262  0.70577  0.00835  1.0000
  H   H1712     1.0  0.89281  0.72432  0.13906  1.0000
  C   C1713     1.0  0.81396  0.62408  0.05445  1.0000
  C   C1714     1.0  0.80661  0.64194  0.04847  1.0000
  C   C1715     1.0  0.81060  0.65494  0.05427  1.0000
  C   C1716     1.0  0.82157  0.65015  0.06638  1.0000
  C   C1717     1.0  0.82881  0.63226  0.07244  1.0000
  C   C1718     1.0  0.82513  0.61928  0.06638  1.0000
  H   H1713     1.0  0.79807  0.64575  0.03922  1.0000
  H   H1714     1.0  0.80497  0.66876  0.04954  1.0000
  H   H1715     1.0  0.83710  0.62842  0.08193  1.0000
  H   H1716     1.0  0.83073  0.60546  0.07116  1.0000
  Fe  Fe299     1.0  0.98900  0.68860  0.14783  1.0000
  S   S594      1.0  0.94379  0.59640  0.12592  1.0000
  C   C1719     1.0  0.82792  0.49747  0.05389  1.0000
  C   C1720     1.0  0.71437  0.65609  0.00181  1.0000
  H   H1717     1.0  0.87405  0.71716  0.11365  1.0000
  C   C1721     1.0  0.75531  0.65652  0.07523  1.0000
  C   C1722     1.0  0.76512  0.66601  0.07935  1.0000
  C   C1723     1.0  0.93533  0.72020  0.15639  1.0000
  C   C1724     1.0  0.79124  0.56345  0.07451  1.0000
  C   C1725     1.0  0.93543  0.70589  0.18728  1.0000
  C   C1726     1.0  0.70526  0.70800  0.02271  1.0000
  C   C1727     1.0  0.72312  0.69902  0.01834  1.0000
  C   C1728     1.0  0.72879  0.68135  0.02683  1.0000
  C   C1729     1.0  0.71667  0.67267  0.04000  1.0000
  C   C1730     1.0  0.69885  0.68170  0.04449  1.0000
  C   C1731     1.0  0.69310  0.69926  0.03574  1.0000
  H   H1718     1.0  0.74259  0.67457  0.02339  1.0000
  H   H1719     1.0  0.68940  0.67504  0.05467  1.0000
  H   H1720     1.0  0.67931  0.70608  0.03923  1.0000
  C   C1732     1.0  0.91983  0.54156  0.08238  1.0000
  H   H1721     1.0  0.93314  0.66622  0.16661  1.0000
  H   H1722     1.0  0.75670  0.60228  0.98865  1.0000
  H   H1723     1.0  0.76997  0.55319  0.07246  1.0000
  H   H1724     1.0  0.69386  0.64193  0.01707  1.0000
  H   H1725     1.0  0.91675  0.50775  0.11851  1.0000
  H   H1726     1.0  0.81717  0.51064  0.03087  1.0000
  S   S595      1.0  0.97272  0.53118  0.09356  1.0000
  C   C1733     1.0  0.84541  0.69446  0.16956  1.0000
  C   C1734     1.0  0.79288  0.54975  0.05111  1.0000
  S   S596      1.0  0.93742  0.55451  0.11611  1.0000
  C   C1735     1.0  0.88102  0.58681  0.07922  1.0000
  C   C1736     1.0  0.85191  0.57057  0.12335  1.0000
  C   C1737     1.0  0.77529  0.50210  0.08546  1.0000
  H   H1727     1.0  0.86374  0.56177  0.12723  1.0000
  C   C1738     1.0  0.76921  0.52914  0.00686  1.0000
  C   C1739     1.0  0.76025  0.52397  0.02427  1.0000
  C   C1740     1.0  0.75446  0.53588  0.03549  1.0000
  C   C1741     1.0  0.75770  0.55298  0.02940  1.0000
  C   C1742     1.0  0.76692  0.55808  0.01207  1.0000
  C   C1743     1.0  0.77260  0.54620  0.00082  1.0000
  H   H1728     1.0  0.75729  0.51100  0.02895  1.0000
  H   H1729     1.0  0.74724  0.53193  0.04885  1.0000
  H   H1730     1.0  0.76954  0.57121  0.00728  1.0000
  C   C1744     1.0  0.92161  0.50588  0.06042  1.0000
  H   H1731     1.0  0.87495  0.67637  0.13664  1.0000
  C   C1745     1.0  0.97606  0.59390  0.13306  1.0000
  C   C1746     1.0  0.86996  0.68291  0.14755  1.0000
  H   H1732     1.0  0.74470  0.66335  0.06823  1.0000
  H   H1733     1.0  0.87483  0.66159  0.19553  1.0000
  H   H1734     1.0  0.90113  0.55157  0.06550  1.0000
  C   C1747     1.0  0.89330  0.53059  0.08710  1.0000
  H   H1735     1.0  0.88291  0.56249  0.14490  1.0000
  C   C1748     1.0  0.75936  0.63805  0.08002  1.0000
  Fe  Fe300     1.0  0.95994  0.53160  0.12176  1.0000
  C   C1749     1.0  0.90119  0.60723  0.06971  1.0000
  H   H1736     1.0  0.89186  0.58796  0.14837  1.0000
  C   C1750     1.0  0.98867  0.71810  0.19108  1.0000
  N   N142      1.0  0.86780  0.73389  0.13178  1.0000
  C   C1751     1.0  0.89688  0.72818  0.26799  1.0000
  H   H1737     1.0  0.81943  0.72809  0.14121  1.0000
  S   S597      1.0  0.77552  0.51491  0.99214  1.0000
  C   C1752     1.0  0.70365  0.64408  0.00479  1.0000
  H   H1738     1.0  0.71266  0.66319  0.01189  1.0000
  C   C1753     1.0  0.91537  0.57199  0.15762  1.0000
  H   H1739     1.0  0.80923  0.60173  0.10954  1.0000
  C   C1754     1.0  0.77243  0.49367  0.07398  1.0000
  C   C1755     1.0  0.92617  0.65459  0.14933  1.0000
  H   H1740     1.0  0.92811  0.71086  0.15591  1.0000
  Fe  Fe301     1.0  0.95519  0.57161  0.11555  1.0000
  S   S598      1.0  0.98471  0.69533  0.17406  1.0000
  H   H1741     1.0  0.81431  0.57299  0.07259  1.0000
  C   C1756     1.0  0.88990  0.72993  0.28544  1.0000
  C   C1757     1.0  0.89812  0.64545  0.16029  1.0000
  H   H1742     1.0  0.83135  0.69673  0.17576  1.0000
  C   C1758     1.0  0.82430  0.57492  0.11423  1.0000
  Fe  Fe302     1.0  0.88008  0.72601  0.18836  1.0000
  C   C1759     1.0  0.82113  0.59304  0.11332  1.0000
  C   C1760     1.0  0.85181  0.68574  0.15558  1.0000
  H   H1743     1.0  0.84256  0.54978  0.11951  1.0000
  S   S599      1.0  0.84711  0.53427  0.08741  1.0000
  N   N143      1.0  0.93997  0.48898  0.08093  1.0000
  C   C1761     1.0  0.59280  0.73360  0.04005  1.0000
  Fe  Fe303     1.0  0.96645  0.68992  0.12278  1.0000
  H   H1744     1.0  0.89574  0.68618  0.14764  1.0000
  C   C1762     1.0  0.58734  0.71773  0.04373  1.0000
  S   S600      1.0  0.98920  0.67488  0.10549  1.0000
  H   H1745     1.0  0.93782  0.72477  0.27423  1.0000
  H   H1746     1.0  0.96950  0.64468  0.12564  1.0000
  S   S601      1.0  0.97163  0.67111  0.14779  1.0000
  N   N144      1.0  0.89471  0.59382  0.08217  1.0000
  Fe  Fe304     1.0  0.85643  0.51151  0.10843  1.0000
  H   H1747     1.0  0.97877  0.71271  0.20183  1.0000
  H   H1748     1.0  0.88015  0.63777  0.19819  1.0000
  Fe  Fe305     1.0  0.82183  0.49903  0.11848  1.0000
  C   C1763     1.0  0.83989  0.56375  0.11892  1.0000
  H   H1749     1.0  0.78697  0.54332  0.04485  1.0000
  H   H1750     1.0  0.89681  0.61218  0.05741  1.0000
  H   H1751     1.0  0.89354  0.53266  0.13919  1.0000
  C   C1764     1.0  0.96379  0.48816  0.13190  1.0000
  C   C1765     1.0  0.94935  0.73108  0.17205  1.0000
  C   C1766     1.0  0.92004  0.54068  0.15979  1.0000
  C   C1767     1.0  0.96045  0.60508  0.12848  1.0000
  C   C1768     1.0  0.88639  0.73495  0.12922  1.0000
  S   S602      1.0  0.89073  0.70224  0.17621  1.0000
  C   C1769     1.0  0.94919  0.72494  0.30147  1.0000
  H   H1752     1.0  0.96524  0.49401  0.07980  1.0000
  C   C1770     1.0  0.89496  0.56024  0.14955  1.0000
  C   C1771     1.0  0.98834  0.64393  0.08042  1.0000
  C   C1772     1.0  0.98692  0.61937  0.13239  1.0000
  H   H1753     1.0  0.91778  0.62620  0.06329  1.0000
  H   H1754     1.0  0.81715  0.54885  0.03128  1.0000
  H   H1755     1.0  0.91506  0.59153  0.11426  1.0000
  H   H1756     1.0  0.98718  0.49869  0.11858  1.0000
  H   H1757     1.0  0.92696  0.61578  0.09191  1.0000
  C   C1773     1.0  0.92349  0.66010  0.16486  1.0000
  S   S603      1.0  0.93324  0.55668  0.07064  1.0000
  H   H1758     1.0  0.93759  0.55261  0.16644  1.0000
  H   H1759     1.0  0.76234  0.68032  0.07545  1.0000
  C   C1774     1.0  0.89740  0.51850  0.10229  1.0000
  H   H1760     1.0  0.56991  0.70431  0.03911  1.0000
  C   C1775     1.0  0.92547  0.55487  0.16187  1.0000
  H   H1761     1.0  0.98194  0.64448  0.06973  1.0000
  H   H1762     1.0  0.77387  0.51632  0.08217  1.0000
  H   H1763     1.0  0.76891  0.50126  0.06163  1.0000
  S   S604      1.0  0.97655  0.54867  0.12428  1.0000
  H   H1764     1.0  0.91200  0.51791  0.14752  1.0000
  C   C1776     1.0  0.97129  0.63053  0.12784  1.0000
  C   C1777     1.0  0.91816  0.60942  0.08902  1.0000
  H   H1765     1.0  0.59358  0.70614  0.05225  1.0000
  N   N145      1.0  0.95239  0.73582  0.28517  1.0000
  C   C1778     1.0  0.87537  0.69696  0.16785  1.0000
  H   H1766     1.0  0.92291  0.70224  0.18769  1.0000
  Fe  Fe306     1.0  0.82152  0.53820  0.10735  1.0000
  N   N146      1.0  0.81758  0.56095  0.05132  1.0000
  C   C1779     1.0  0.78260  0.63848  0.09263  1.0000
  C   C1780     1.0  0.91148  0.59577  0.10160  1.0000
  H   H1767     1.0  0.86776  0.59587  0.08215  1.0000
  H   H1768     1.0  0.94624  0.63203  0.12185  1.0000
  H   H1769     1.0  0.94482  0.51278  0.06253  1.0000
  H   H1770     1.0  0.92798  0.52741  0.16312  1.0000
  C   C1781     1.0  0.89983  0.58796  0.09789  1.0000
  H   H1771     1.0  0.83419  0.57620  0.03164  1.0000
  C   C1782     1.0  0.95810  0.62339  0.12583  1.0000
  H   H1772     1.0  0.89835  0.49636  0.06234  1.0000
  S   S605      1.0  0.80877  0.56623  0.10957  1.0000
  C   C1783     1.0  0.91348  0.64711  0.14702  1.0000
  C   C1784     1.0  0.87863  0.65059  0.18852  1.0000
  N   N147      1.0  0.77299  0.62925  0.08847  1.0000
  C   C1785     1.0  0.77871  0.65697  0.08829  1.0000
  C   C1786     1.0  0.83532  0.56453  0.04280  1.0000
  H   H1773     1.0  0.90568  0.66320  0.18960  1.0000
  C   C1787     1.0  0.84854  0.58866  0.12281  1.0000
  N   N148      1.0  0.89530  0.65148  0.17522  1.0000
  C   C1788     1.0  0.90445  0.54216  0.07717  1.0000
  S   S606      1.0  0.83139  0.51673  0.12902  1.0000
  C   C1789     1.0  0.80844  0.56624  0.06661  1.0000
  S   S607      1.0  0.84798  0.49152  0.10015  1.0000
  Fe  Fe307     1.0  0.83640  0.51482  0.08088  1.0000
  C   C1790     1.0  0.88167  0.68856  0.15369  1.0000
  S   S608      1.0  0.88320  0.50449  0.11537  1.0000
  C   C1791     1.0  0.91306  0.61519  0.07292  1.0000
  S   S609      1.0  0.96684  0.57453  0.08668  1.0000
  H   H1774     1.0  0.91107  0.72360  0.26343  1.0000
  C   C1792     1.0  0.83333  0.59994  0.11742  1.0000
  S   S610      1.0  0.95169  0.50720  0.13988  1.0000
  N   N149      1.0  0.90526  0.54355  0.15318  1.0000
  H   H1775     1.0  0.77746  0.60490  0.10714  1.0000
  H   H1776     1.0  0.79365  0.63159  0.09897  1.0000
  H   H1777     1.0  0.86736  0.65217  0.18231  1.0000
  C   C1793     1.0  0.70606  0.63452  0.99209  1.0000
  Fe  Fe308     1.0  0.95111  0.55508  0.08801  1.0000
  C   C1794     1.0  0.90795  0.65830  0.17782  1.0000
  H   H1778     1.0  0.89077  0.52321  0.16256  1.0000
  H   H1779     1.0  0.99208  0.73528  0.20518  1.0000
  H   H1780     1.0  0.85220  0.70651  0.18669  1.0000
  C   C1795     1.0  0.90009  0.52861  0.15056  1.0000
  H   H1781     1.0  0.84139  0.56751  0.05208  1.0000
  H   H1782     1.0  0.78409  0.56774  0.08661  1.0000
  C   C1796     1.0  0.85717  0.70014  0.17565  1.0000
  H   H1783     1.0  0.84440  0.55285  0.03796  1.0000
  H   H1784     1.0  0.91532  0.64301  0.13485  1.0000
  C   C1797     1.0  0.93644  0.50318  0.06752  1.0000
  C   C1798     1.0  0.86373  0.72396  0.12290  1.0000
  H   H1785     1.0  0.78673  0.66419  0.09121  1.0000
  C   C1799     1.0  0.83290  0.73009  0.13830  1.0000
  H   H1786     1.0  0.97792  0.57975  0.13526  1.0000
  H   H1787     1.0  0.95034  0.49162  0.10109  1.0000
  S   S611      1.0  0.90420  0.72421  0.29999  1.0000
  C   C1800     1.0  0.98926  0.60105  0.13507  1.0000
  H   H1788     1.0  0.98000  0.61338  0.08340  1.0000
  H   H1789     1.0  0.78226  0.49840  0.11031  1.0000
  H   H1790     1.0  0.77968  0.55026  0.98742  1.0000
  H   H1791     1.0  0.94655  0.69400  0.18722  1.0000
  S   S612      1.0  0.89297  0.73021  0.20765  1.0000
  H   H1792     1.0  0.84315  0.71359  0.11934  1.0000
  H   H1793     1.0  0.69816  0.62484  0.99440  1.0000
  Fe  Fe309     1.0  0.98730  0.55048  0.09525  1.0000
  C   C1801     1.0  0.84623  0.72198  0.12595  1.0000
  S   S613      1.0  0.69880  0.73024  0.01194  1.0000
  H   H1794     1.0  0.93336  0.71061  0.19947  1.0000
  H   H1795     1.0  0.89422  0.73338  0.11585  1.0000
  C   C1802     1.0  0.97198  0.73334  0.30945  1.0000
  H   H1796     1.0  0.58452  0.72893  0.99073  1.0000
  H   H1797     1.0  0.95300  0.73060  0.18409  1.0000
  H   H1798     1.0  0.89099  0.73116  0.24291  1.0000
  C   C1803     1.0  0.88550  0.73240  0.25635  1.0000
  H   H1799     1.0  0.74850  0.66389  0.99327  1.0000
  N   N150      1.0  0.72714  0.65851  0.98663  1.0000
  H   H1800     1.0  0.56482  0.71547  0.98368  1.0000
  H   H1801     1.0  0.93653  0.73315  0.12908  1.0000
  C   C1804     1.0  0.94003  0.73280  0.14115  1.0000
  C   C1805     1.0  0.98098  0.48762  0.12134  1.0000
  S   S614      1.0  0.54856  0.72981  0.01695  1.0000
  C   C1806     1.0  0.56548  0.73171  0.02566  1.0000
  C   C1807     1.0  0.95512  0.48666  0.08875  1.0000
  C   C1808     1.0  0.78008  0.49209  0.10115  1.0000
  C   C1809     1.0  0.73901  0.67024  0.98444  1.0000
  H   H1802     1.0  0.73118  0.68312  0.98762  1.0000
  S   S615      1.0  0.60884  0.73476  0.05036  1.0000
  S   S616      1.0  0.64799  0.73520  0.00847  1.0000
  Fe  Fe310     1.0  0.99576  0.65762  0.13072  1.0000
  C   C1810     1.0  0.87153  0.73584  0.29125  1.0000
  C   C1811     1.0  0.89202  0.67480  0.59758  1.0000
  C   C1812     1.0  0.84461  0.68870  0.62120  1.0000
  S   S617      1.0  0.88112  0.71310  0.62296  1.0000
  H   H1803     1.0  0.83637  0.67911  0.62290  1.0000
  H   H1804     1.0  0.90223  0.67913  0.56944  1.0000
  C   C1813     1.0  0.95895  0.72351  0.31384  1.0000
  H   H1805     1.0  0.83651  0.70237  0.61803  1.0000
  C   C1814     1.0  0.87381  0.68886  0.57620  1.0000
  C   C1815     1.0  0.89050  0.68066  0.58006  1.0000
  S   S618      1.0  0.90540  0.72224  0.52477  1.0000
  H   H1806     1.0  0.84604  0.69840  0.58682  1.0000
  H   H1807     1.0  0.94655  0.72208  0.60892  1.0000
  N   N151      1.0  0.86052  0.68590  0.60708  1.0000
  Fe  Fe311     1.0  0.85574  0.73149  0.61728  1.0000
  C   C1816     1.0  0.85887  0.69139  0.58996  1.0000
  H   H1808     1.0  0.90495  0.66846  0.60075  1.0000
  H   H1809     1.0  0.96709  0.71051  0.59682  1.0000
  H   H1810     1.0  0.87255  0.69386  0.56262  1.0000
  H   H1811     1.0  0.93043  0.72856  0.39937  1.0000
  H   H1812     1.0  0.87807  0.67295  0.62463  1.0000
  C   C1817     1.0  0.87677  0.67741  0.61102  1.0000
  C   C1818     1.0  0.86268  0.73308  0.57368  1.0000
  H   H1813     1.0  0.84817  0.68711  0.63393  1.0000
  C   C1819     1.0  0.89380  0.72455  0.55922  1.0000
  C   C1820     1.0  0.88894  0.72740  0.54321  1.0000
  S   S619      1.0  0.84593  0.73441  0.59300  1.0000
  S   S620      1.0  0.83958  0.72348  0.64449  1.0000
  H   H1814     1.0  0.90768  0.71976  0.55994  1.0000
  C   C1821     1.0  0.96909  0.71965  0.42294  1.0000
  H   H1815     1.0  0.96641  0.73030  0.60329  1.0000
  S   S621      1.0  0.88459  0.73214  0.48198  1.0000
  C   C1822     1.0  0.93852  0.73494  0.57802  1.0000
  S   S622      1.0  0.92143  0.73007  0.43593  1.0000
  C   C1823     1.0  0.88073  0.72772  0.57435  1.0000
  H   H1816     1.0  0.86715  0.73566  0.53000  1.0000
  S   S623      1.0  0.98385  0.72488  0.64368  1.0000
  H   H1817     1.0  0.98080  0.71480  0.41293  1.0000
  H   H1818     1.0  0.95262  0.72340  0.45548  1.0000
  H   H1819     1.0  0.95621  0.71506  0.32682  1.0000
  H   H1820     1.0  0.95881  0.72876  0.41594  1.0000
  C   C1824     1.0  0.96397  0.72963  0.45016  1.0000
  N   N152      1.0  0.97392  0.72884  0.43355  1.0000
  H   H1821     1.0  0.92868  0.72838  0.58777  1.0000
  H   H1822     1.0  0.88463  0.72550  0.58658  1.0000
  C   C1825     1.0  0.87097  0.73352  0.54233  1.0000
  H   H1823     1.0  0.97955  0.73253  0.31894  1.0000
  H   H1824     1.0  0.96353  0.70810  0.43128  1.0000
  C   C1826     1.0  0.91616  0.73334  0.40311  1.0000
  C   C1827     1.0  0.90817  0.73473  0.42053  1.0000
  C   C1828     1.0  0.95878  0.72372  0.59849  1.0000
  N   N153      1.0  0.95441  0.73423  0.58171  1.0000
  Fe  Fe312     1.0  0.88563  0.73584  0.63056  1.0000
  C   C1829     1.0  0.85784  0.73612  0.55760  1.0000
  S   S624      1.0  0.50482  0.72235  0.91214  1.0000
  C   C1830     1.0  0.91904  0.54018  0.79299  1.0000
  H   H1825     1.0  0.64880  0.65193  0.92782  1.0000
  C   C1831     1.0  0.74635  0.54857  0.93853  1.0000
  H   H1826     1.0  0.79221  0.57239  0.81398  1.0000
  S   S625      1.0  0.85175  0.49789  0.77085  1.0000
  C   C1832     1.0  0.96825  0.66721  0.71071  1.0000
  C   C1833     1.0  0.95411  0.60550  0.79641  1.0000
  H   H1827     1.0  0.94847  0.67529  0.69502  1.0000
  H   H1828     1.0  0.97569  0.56450  0.77831  1.0000
  N   N154      1.0  0.95161  0.49567  0.74425  1.0000
  H   H1829     1.0  0.95383  0.66934  0.82534  1.0000
  C   C1834     1.0  0.52820  0.72753  0.88016  1.0000
  S   S626      1.0  0.86637  0.67781  0.66347  1.0000
  C   C1835     1.0  0.82119  0.57046  0.82366  1.0000
  H   H1830     1.0  0.74470  0.53826  0.97830  1.0000
  C   C1836     1.0  0.69092  0.64748  0.87172  1.0000
  C   C1837     1.0  0.78252  0.53322  0.93219  1.0000
  C   C1838     1.0  0.56025  0.72328  0.87654  1.0000
  H   H1831     1.0  0.78827  0.57793  0.85870  1.0000
  C   C1839     1.0  0.99582  0.54044  0.77665  1.0000
  S   S627      1.0  0.67153  0.70779  0.86149  1.0000
  S   S628      1.0  0.62063  0.70726  0.88976  1.0000
  C   C1840     1.0  0.76625  0.61934  0.96418  1.0000
  H   H1832     1.0  0.65232  0.67939  0.87275  1.0000
  C   C1841     1.0  0.54131  0.71689  0.90570  1.0000
  C   C1842     1.0  0.71893  0.63727  0.97652  1.0000
  H   H1833     1.0  0.67588  0.63230  0.91083  1.0000
  C   C1843     1.0  0.75076  0.60186  0.94885  1.0000
  C   C1844     1.0  0.88667  0.65294  0.71425  1.0000
  C   C1845     1.0  0.75760  0.60590  0.97464  1.0000
  C   C1846     1.0  0.96273  0.64439  0.73682  1.0000
  H   H1834     1.0  0.94373  0.62092  0.75344  1.0000
  H   H1835     1.0  0.95405  0.53561  0.81064  1.0000
  H   H1836     1.0  0.93201  0.62489  0.73639  1.0000
  S   S629      1.0  0.69797  0.62423  0.87636  1.0000
  H   H1837     1.0  0.94806  0.57965  0.80636  1.0000
  H   H1838     1.0  0.77728  0.58086  0.83218  1.0000
  S   S630      1.0  0.72882  0.58507  0.89986  1.0000
  H   H1839     1.0  0.93161  0.49185  0.73404  1.0000
  H   H1840     1.0  0.71730  0.65262  0.86452  1.0000
  Fe  Fe313     1.0  0.76503  0.61148  0.87361  1.0000
  S   S631      1.0  0.75004  0.60145  0.86031  1.0000
  S   S632      1.0  0.78901  0.62340  0.85944  1.0000
  Fe  Fe314     1.0  0.72595  0.61120  0.88034  1.0000
  Fe  Fe315     1.0  0.75431  0.57646  0.88102  1.0000
  S   S633      1.0  0.76897  0.55017  0.87377  1.0000
  S   S634      1.0  0.87253  0.72787  0.65908  1.0000
  S   S635      1.0  0.77062  0.58603  0.89330  1.0000
  Fe  Fe316     1.0  0.88929  0.57840  0.75658  1.0000
  S   S636      1.0  0.87616  0.57568  0.78516  1.0000
  S   S637      1.0  0.90074  0.55371  0.74579  1.0000
  Fe  Fe317     1.0  0.88720  0.61798  0.75094  1.0000
  S   S638      1.0  0.87423  0.61815  0.77933  1.0000
  Fe  Fe318     1.0  0.89400  0.59264  0.78517  1.0000
  Fe  Fe319     1.0  0.85767  0.60137  0.77642  1.0000
  S   S639      1.0  0.82771  0.60607  0.78478  1.0000
  S   S640      1.0  0.90844  0.59376  0.75714  1.0000
  S   S641      1.0  0.86928  0.60280  0.74754  1.0000
  C   C1847     1.0  0.79930  0.62034  0.83793  1.0000
  C   C1848     1.0  0.78982  0.61709  0.82754  1.0000
  C   C1849     1.0  0.79857  0.61341  0.81094  1.0000
  C   C1850     1.0  0.81690  0.61272  0.80473  1.0000
  C   C1851     1.0  0.82634  0.61647  0.81486  1.0000
  C   C1852     1.0  0.81749  0.62044  0.83136  1.0000
  H   H1841     1.0  0.77571  0.61750  0.83224  1.0000
  H   H1842     1.0  0.79116  0.61076  0.80306  1.0000
  H   H1843     1.0  0.84047  0.61603  0.81016  1.0000
  H   H1844     1.0  0.82485  0.62309  0.83930  1.0000
  H   H1845     1.0  0.65096  0.70669  0.91353  1.0000
  C   C1853     1.0  0.81555  0.57825  0.85622  1.0000
  C   C1854     1.0  0.88066  0.64288  0.70658  1.0000
  H   H1846     1.0  0.79666  0.52721  0.92991  1.0000
  C   C1855     1.0  0.92522  0.59940  0.79933  1.0000
  H   H1847     1.0  0.81292  0.58200  0.86870  1.0000
  H   H1848     1.0  0.88044  0.62921  0.71282  1.0000
  C   C1856     1.0  0.96544  0.66093  0.81808  1.0000
  C   C1857     1.0  0.70314  0.65840  0.86634  1.0000
  Fe  Fe320     1.0  0.86561  0.70671  0.65075  1.0000
  C   C1858     1.0  0.74477  0.50158  0.88747  1.0000
  C   C1859     1.0  0.73360  0.51811  0.88936  1.0000
  C   C1860     1.0  0.74081  0.53315  0.88537  1.0000
  C   C1861     1.0  0.75923  0.53172  0.87932  1.0000
  C   C1862     1.0  0.77038  0.51518  0.87751  1.0000
  C   C1863     1.0  0.76321  0.50013  0.88166  1.0000
  H   H1849     1.0  0.71932  0.51931  0.89378  1.0000
  H   H1850     1.0  0.73208  0.54588  0.88665  1.0000
  H   H1851     1.0  0.78464  0.51398  0.87287  1.0000
  H   H1852     1.0  0.99226  0.60597  0.84654  1.0000
  C   C1864     1.0  0.67576  0.68825  0.90665  1.0000
  C   C1865     1.0  0.93924  0.51429  0.80388  1.0000
  H   H1853     1.0  0.68370  0.63204  0.92984  1.0000
  C   C1866     1.0  0.92965  0.62937  0.78846  1.0000
  C   C1867     1.0  0.76746  0.62378  0.94597  1.0000
  C   C1868     1.0  0.68318  0.63886  0.91603  1.0000
  C   C1869     1.0  0.80156  0.57610  0.85044  1.0000
  C   C1870     1.0  0.98088  0.61405  0.84113  1.0000
  H   H1854     1.0  0.63361  0.68341  0.92716  1.0000
  C   C1871     1.0  0.94290  0.59351  0.80135  1.0000
  C   C1872     1.0  0.77364  0.53831  0.94809  1.0000
  C   C1873     1.0  0.83553  0.57241  0.82907  1.0000
  S   S642      1.0  0.98034  0.52751  0.77992  1.0000
  S   S643      1.0  0.73995  0.59142  0.93992  1.0000
  C   C1874     1.0  0.86543  0.51335  0.76381  1.0000
  C   C1875     1.0  0.88283  0.50935  0.75385  1.0000
  C   C1876     1.0  0.89339  0.52198  0.74802  1.0000
  C   C1877     1.0  0.88680  0.53853  0.75244  1.0000
  C   C1878     1.0  0.86949  0.54249  0.76260  1.0000
  C   C1879     1.0  0.85881  0.52994  0.76819  1.0000
  H   H1855     1.0  0.88802  0.49667  0.75031  1.0000
  H   H1856     1.0  0.90658  0.51901  0.73983  1.0000
  H   H1857     1.0  0.86421  0.55531  0.76590  1.0000
  H   H1858     1.0  0.84532  0.53316  0.77579  1.0000
  C   C1880     1.0  0.75981  0.61498  0.93828  1.0000
  H   H1859     1.0  0.73226  0.55485  0.94075  1.0000
  C   C1881     1.0  0.95260  0.61714  0.83424  1.0000
  H   H1860     1.0  0.98570  0.52221  0.74253  1.0000
  H   H1861     1.0  0.97642  0.67629  0.70204  1.0000
  C   C1882     1.0  0.87511  0.66828  0.68251  1.0000
  N   N155      1.0  0.94755  0.64367  0.73266  1.0000
  S   S644      1.0  0.96072  0.63898  0.78437  1.0000
  H   H1862     1.0  0.89868  0.53636  0.78265  1.0000
  H   H1863     1.0  0.57964  0.71271  0.96267  1.0000
  C   C1883     1.0  0.65757  0.69291  0.91395  1.0000
  C   C1884     1.0  0.64783  0.67978  0.92164  1.0000
  H   H1864     1.0  0.95068  0.50799  0.80981  1.0000
  C   C1885     1.0  0.52620  0.72205  0.89839  1.0000
  H   H1865     1.0  0.70657  0.68528  0.85855  1.0000
  C   C1886     1.0  0.94225  0.65476  0.71800  1.0000
  H   H1866     1.0  0.54667  0.73205  0.85514  1.0000
  H   H1867     1.0  0.94570  0.55393  0.79450  1.0000
  C   C1887     1.0  0.67869  0.68456  0.86533  1.0000
  C   C1888     1.0  0.66647  0.67362  0.87097  1.0000
  H   H1868     1.0  0.78637  0.55741  0.83496  1.0000
  H   H1869     1.0  0.68331  0.69843  0.90007  1.0000
  C   C1889     1.0  0.78940  0.57064  0.82850  1.0000
  Fe  Fe321     1.0  0.64261  0.72002  0.87160  1.0000
  C   C1890     1.0  0.93643  0.63147  0.74423  1.0000
  H   H1870     1.0  0.53982  0.71260  0.91980  1.0000
  C   C1891     1.0  0.55832  0.71774  0.89479  1.0000
  H   H1871     1.0  0.82344  0.56801  0.81065  1.0000
  H   H1872     1.0  0.91444  0.55445  0.79034  1.0000
  H   H1873     1.0  0.93534  0.48946  0.80221  1.0000
  C   C1892     1.0  0.98981  0.55855  0.77640  1.0000
  C   C1893     1.0  0.74672  0.55042  0.96812  1.0000
  N   N156      1.0  0.80442  0.57253  0.83426  1.0000
  C   C1894     1.0  0.96704  0.60658  0.84138  1.0000
  C   C1895     1.0  0.74970  0.59734  0.96702  1.0000
  H   H1874     1.0  0.96784  0.60085  0.79763  1.0000
  C   C1896     1.0  0.94571  0.51215  0.74795  1.0000
  N   N157      1.0  0.96604  0.64221  0.82637  1.0000
  H   H1875     1.0  0.93232  0.54949  0.81659  1.0000
  C   C1897     1.0  0.69704  0.67690  0.86294  1.0000
  C   C1898     1.0  0.91011  0.53001  0.78855  1.0000
  N   N158      1.0  0.75579  0.54589  0.95107  1.0000
  C   C1899     1.0  0.95787  0.52192  0.74739  1.0000
  H   H1876     1.0  0.77191  0.48746  0.88018  1.0000
  C   C1900     1.0  0.91597  0.51166  0.79186  1.0000
  H   H1877     1.0  0.73971  0.65109  0.96206  1.0000
  N   N159      1.0  0.93332  0.53228  0.80067  1.0000
  H   H1878     1.0  0.62379  0.71504  0.96654  1.0000
  H   H1879     1.0  0.56992  0.71402  0.90046  1.0000
  C   C1901     1.0  0.94177  0.54331  0.80592  1.0000
  H   H1880     1.0  0.76070  0.61854  0.92423  1.0000
  C   C1902     1.0  0.75481  0.54367  0.92247  1.0000
  H   H1881     1.0  0.74736  0.54598  0.91247  1.0000
  C   C1903     1.0  0.88125  0.67830  0.69013  1.0000
  C   C1904     1.0  0.95258  0.66661  0.70674  1.0000
  H   H1882     1.0  0.82882  0.49941  0.83720  1.0000
  H   H1883     1.0  0.66307  0.64677  0.87805  1.0000
  H   H1884     1.0  0.69816  0.66692  0.90148  1.0000
  C   C1905     1.0  0.67259  0.65516  0.87395  1.0000
  C   C1906     1.0  0.93066  0.50372  0.79952  1.0000
  C   C1907     1.0  0.94742  0.62347  0.79007  1.0000
  H   H1885     1.0  0.89179  0.67845  0.71176  1.0000
  H   H1886     1.0  0.96677  0.63587  0.74863  1.0000
  C   C1908     1.0  0.68405  0.67040  0.90739  1.0000
  C   C1909     1.0  0.95227  0.63506  0.82685  1.0000
  H   H1887     1.0  0.69705  0.63710  0.90793  1.0000
  H   H1888     1.0  0.87037  0.64266  0.68480  1.0000
  H   H1889     1.0  0.90909  0.50364  0.78852  1.0000
  H   H1890     1.0  0.90501  0.62196  0.79129  1.0000
  N   N160      1.0  0.83897  0.65538  0.74343  1.0000
  C   C1910     1.0  0.84158  0.67015  0.73063  1.0000
  C   C1911     1.0  0.83336  0.64236  0.74010  1.0000
  C   C1912     1.0  0.83825  0.67235  0.71405  1.0000
  C   C1913     1.0  0.83018  0.64399  0.72357  1.0000
  C   C1914     1.0  0.83262  0.65912  0.71049  1.0000
  C   C1915     1.0  0.84252  0.65357  0.76067  1.0000
  H   H1891     1.0  0.84656  0.68020  0.73310  1.0000
  H   H1892     1.0  0.83142  0.63055  0.75019  1.0000
  H   H1893     1.0  0.84061  0.68395  0.70381  1.0000
  H   H1894     1.0  0.82603  0.63351  0.72089  1.0000
  H   H1895     1.0  0.83060  0.66046  0.69747  1.0000
  H   H1896     1.0  0.85694  0.65280  0.75923  1.0000
  H   H1897     1.0  0.83451  0.66509  0.76639  1.0000
  H   H1898     1.0  0.83897  0.64149  0.77017  1.0000
  S   S645      1.0  0.74057  0.62337  0.89207  1.0000
  S   S646      1.0  0.89355  0.64399  0.73433  1.0000
  H   H1899     1.0  0.77415  0.63416  0.93781  1.0000
  S   S647      1.0  0.91137  0.58440  0.80471  1.0000
  H   H1900     1.0  0.97775  0.66492  0.81778  1.0000
  H   H1901     1.0  0.84347  0.57863  0.84951  1.0000
  Fe  Fe322     1.0  0.61609  0.72835  0.90464  1.0000
  H   H1902     1.0  0.88138  0.69199  0.68394  1.0000
  H   H1903     1.0  0.92440  0.64328  0.78368  1.0000
  H   H1904     1.0  0.84864  0.57147  0.82036  1.0000
  H   H1905     1.0  0.92997  0.65445  0.71495  1.0000
  Fe  Fe323     1.0  0.74487  0.59677  0.91038  1.0000
  C   C1916     1.0  0.87504  0.65050  0.69066  1.0000
  C   C1917     1.0  0.65649  0.66207  0.92198  1.0000
  H   H1906     1.0  0.74258  0.58734  0.97533  1.0000
  C   C1918     1.0  0.88712  0.67061  0.70590  1.0000
  N   N161      1.0  0.67439  0.65758  0.91496  1.0000
  C   C1919     1.0  0.97331  0.65613  0.72591  1.0000
  C   C1920     1.0  0.91867  0.61731  0.79275  1.0000
  S   S648      1.0  0.77398  0.63183  0.97391  1.0000
  H   H1907     1.0  0.96417  0.66354  0.80422  1.0000
  C   C1921     1.0  0.83263  0.57643  0.84542  1.0000
  S   S649      1.0  0.61346  0.72006  0.93397  1.0000
  C   C1922     1.0  0.98019  0.63198  0.83349  1.0000
  H   H1908     1.0  0.92436  0.63888  0.75203  1.0000
  H   H1909     1.0  0.55662  0.72465  0.96398  1.0000
  H   H1910     1.0  0.78109  0.53618  0.95805  1.0000
  H   H1911     1.0  0.94190  0.61145  0.83403  1.0000
  H   H1912     1.0  0.98535  0.65665  0.72924  1.0000
  C   C1923     1.0  0.77300  0.53593  0.91932  1.0000
  C   C1924     1.0  0.54520  0.72792  0.86926  1.0000
  Fe  Fe324     1.0  0.99139  0.49829  0.78705  1.0000
  H   H1913     1.0  0.94122  0.64309  0.82089  1.0000
  Fe  Fe325     1.0  0.98999  0.62813  0.78323  1.0000
  Fe  Fe326     1.0  0.60252  0.72799  0.87375  1.0000
  C   C1925     1.0  0.62507  0.72812  0.95888  1.0000
  H   H1914     1.0  0.73362  0.55977  0.96760  1.0000
  H   H1915     1.0  0.96758  0.59262  0.84695  1.0000
  H   H1916     1.0  0.93154  0.51786  0.75139  1.0000
  C   C1926     1.0  0.97613  0.51490  0.74269  1.0000
  S   S650      1.0  0.58110  0.72520  0.86244  1.0000
  C   C1927     1.0  0.96951  0.48876  0.73942  1.0000
  C   C1928     1.0  0.56856  0.72193  0.96954  1.0000
  H   H1917     1.0  0.51665  0.73130  0.87441  1.0000
  C   C1929     1.0  0.72940  0.64939  0.97399  1.0000
  H   H1918     1.0  0.99123  0.63754  0.83307  1.0000
  C   C1930     1.0  0.98202  0.49829  0.73850  1.0000
  H   H1919     1.0  0.74708  0.67288  0.97076  1.0000
  H   H1920     1.0  0.72118  0.62971  0.96664  1.0000
  H   H1921     1.0  0.77969  0.53213  0.90688  1.0000
  H   H1922     1.0  0.95318  0.53485  0.75066  1.0000
  C   C1931     1.0  0.62121  0.73382  0.94212  1.0000
  H   H1923     1.0  0.75488  0.55705  0.97212  1.0000
  H   H1924     1.0  0.63279  0.73511  0.97903  1.0000
  H   H1925     1.0  0.76130  0.83177  0.27902  1.0000
  H   H1926     1.0  0.57896  0.89122  0.07982  1.0000
  C   C1932     1.0  0.61745  0.81719  0.99121  1.0000
  C   C1933     1.0  0.56974  0.83544  0.15558  1.0000
  C   C1934     1.0  0.58167  0.95604  0.03422  1.0000
  H   H1927     1.0  0.95344  0.75443  0.12980  1.0000
  H   H1928     1.0  0.55539  0.88161  0.10245  1.0000
  H   H1929     1.0  0.87427  0.78313  0.28031  1.0000
  S   S651      1.0  0.62239  0.77425  0.01453  1.0000
  C   C1935     1.0  0.55510  0.89087  0.11045  1.0000
  S   S652      1.0  0.85213  0.73662  0.20207  1.0000
  S   S653      1.0  0.66465  0.77056  0.99660  1.0000
  Fe  Fe327     1.0  0.64596  0.77956  0.02025  1.0000
  S   S654      1.0  0.64531  0.80661  0.02358  1.0000
  H   H1930     1.0  0.73534  0.87255  0.30802  1.0000
  H   H1931     1.0  0.54387  0.78913  0.01934  1.0000
  H   H1932     1.0  0.76972  0.79639  0.16535  1.0000
  H   H1933     1.0  0.55303  0.88356  0.12443  1.0000
  H   H1934     1.0  0.89493  0.80324  0.27325  1.0000
  Fe  Fe328     1.0  0.62802  0.86637  0.11986  1.0000
  S   S655      1.0  0.63027  0.86321  0.09278  1.0000
  S   S656      1.0  0.60224  0.86957  0.13981  1.0000
  Fe  Fe329     1.0  0.66755  0.86604  0.11361  1.0000
  S   S657      1.0  0.67317  0.86233  0.08600  1.0000
  S   S658      1.0  0.68791  0.87363  0.12280  1.0000
  Fe  Fe330     1.0  0.64777  0.88283  0.08428  1.0000
  S   S659      1.0  0.64565  0.90679  0.06219  1.0000
  Fe  Fe331     1.0  0.65523  0.84297  0.09736  1.0000
  S   S660      1.0  0.65969  0.81540  0.09309  1.0000
  S   S661      1.0  0.64325  0.88766  0.11104  1.0000
  S   S662      1.0  0.65177  0.84489  0.12534  1.0000
  S   S663      1.0  0.68705  0.95919  0.07030  1.0000
  C   C1936     1.0  0.65709  0.92134  0.06462  1.0000
  C   C1937     1.0  0.65299  0.92700  0.08040  1.0000
  C   C1938     1.0  0.66210  0.93870  0.08219  1.0000
  C   C1939     1.0  0.67534  0.94477  0.06820  1.0000
  C   C1940     1.0  0.67928  0.93931  0.05236  1.0000
  C   C1941     1.0  0.67011  0.92768  0.05055  1.0000
  H   H1935     1.0  0.64261  0.92264  0.09117  1.0000
  H   H1936     1.0  0.65890  0.94296  0.09442  1.0000
  H   H1937     1.0  0.68951  0.94398  0.04151  1.0000
  H   H1938     1.0  0.67333  0.92337  0.03833  1.0000
  C   C1942     1.0  0.81949  0.79350  0.18599  1.0000
  H   H1939     1.0  0.76689  0.89368  0.22984  1.0000
  Fe  Fe332     1.0  0.66957  0.74377  0.01460  1.0000
  C   C1943     1.0  0.57589  0.90449  0.11643  1.0000
  H   H1940     1.0  0.67903  0.84157  0.14719  1.0000
  N   N162      1.0  0.57168  0.89725  0.10520  1.0000
  C   C1944     1.0  0.58677  0.85399  0.12365  1.0000
  C   C1945     1.0  0.64832  0.80900  0.04337  1.0000
  C   C1946     1.0  0.64950  0.79478  0.05783  1.0000
  C   C1947     1.0  0.65265  0.79698  0.07318  1.0000
  C   C1948     1.0  0.65475  0.81335  0.07408  1.0000
  C   C1949     1.0  0.65305  0.82770  0.05981  1.0000
  C   C1950     1.0  0.64987  0.82550  0.04448  1.0000
  H   H1941     1.0  0.64810  0.78207  0.05718  1.0000
  H   H1942     1.0  0.65369  0.78590  0.08430  1.0000
  H   H1943     1.0  0.65456  0.84040  0.06044  1.0000
  H   H1944     1.0  0.64889  0.83658  0.03335  1.0000
  C   C1951     1.0  0.60248  0.91044  0.09496  1.0000
  H   H1945     1.0  0.63148  0.97336  0.04080  1.0000
  Fe  Fe333     1.0  0.86527  0.74360  0.21955  1.0000
  N   N163      1.0  0.54992  0.76209  0.07112  1.0000
  S   S664      1.0  0.50124  0.78833  0.11540  1.0000
  C   C1952     1.0  0.94998  0.77622  0.20745  1.0000
  Fe  Fe334     1.0  0.85617  0.76264  0.18449  1.0000
  S   S665      1.0  0.56051  0.94182  0.13622  1.0000
  H   H1946     1.0  0.76130  0.77560  0.24162  1.0000
  C   C1953     1.0  0.77522  0.88766  0.27012  1.0000
  N   N164      1.0  0.60115  0.82039  0.00243  1.0000
  C   C1954     1.0  0.86258  0.78549  0.24261  1.0000
  Fe  Fe335     1.0  0.54337  0.82253  0.11777  1.0000
  H   H1947     1.0  0.66645  0.87494  0.17267  1.0000
  C   C1955     1.0  0.59138  0.91110  0.11153  1.0000
  C   C1956     1.0  0.74417  0.93702  0.22180  1.0000
  C   C1957     1.0  0.80700  0.80845  0.17990  1.0000
  C   C1958     1.0  0.75082  0.93284  0.19192  1.0000
  H   H1948     1.0  0.70718  0.78726  0.00515  1.0000
  H   H1949     1.0  0.58836  0.79855  0.08481  1.0000
  C   C1959     1.0  0.55493  0.81207  0.04256  1.0000
  H   H1950     1.0  0.60661  0.90260  0.07062  1.0000
  S   S666      1.0  0.91874  0.76721  0.18111  1.0000
  C   C1960     1.0  0.52036  0.77942  0.06957  1.0000
  C   C1961     1.0  0.69477  0.78894  0.05664  1.0000
  H   H1951     1.0  0.53918  0.78675  0.07890  1.0000
  H   H1952     1.0  0.61448  0.91558  0.09098  1.0000
  H   H1953     1.0  0.98444  0.75293  0.28973  1.0000
  C   C1962     1.0  0.94041  0.77333  0.22489  1.0000
  C   C1963     1.0  0.91787  0.76513  0.21581  1.0000
  H   H1954     1.0  0.54187  0.83875  0.04506  1.0000
  C   C1964     1.0  0.59803  0.90316  0.08354  1.0000
  S   S667      1.0  0.70927  0.96145  0.14284  1.0000
  H   H1955     1.0  0.66105  0.92019  0.15214  1.0000
  C   C1965     1.0  0.58248  0.89660  0.08889  1.0000
  S   S668      1.0  0.51360  0.83054  0.12161  1.0000
  N   N165      1.0  0.60969  0.81143  0.11530  1.0000
  H   H1956     1.0  0.57471  0.84111  0.11153  1.0000
  H   H1957     1.0  0.58202  0.78583  0.11708  1.0000
  H   H1958     1.0  0.75879  0.95262  0.19927  1.0000
  C   C1966     1.0  0.61847  0.81564  0.12674  1.0000
  C   C1967     1.0  0.68693  0.84673  0.15254  1.0000
  C   C1968     1.0  0.69595  0.78094  0.01312  1.0000
  H   H1959     1.0  0.62140  0.82902  0.12149  1.0000
  C   C1969     1.0  0.83715  0.74025  0.14725  1.0000
  C   C1970     1.0  0.87468  0.78633  0.26633  1.0000
  C   C1971     1.0  0.87598  0.79334  0.23063  1.0000
  H   H1960     1.0  0.71522  0.86535  0.17192  1.0000
  C   C1972     1.0  0.76656  0.79458  0.17954  1.0000
  N   N166      1.0  0.72732  0.97037  0.28449  1.0000
  C   C1973     1.0  0.62574  0.87768  0.16600  1.0000
  S   S669      1.0  0.55604  0.81772  0.14049  1.0000
  H   H1961     1.0  0.71072  0.94815  0.20573  1.0000
  S   S670      1.0  0.74816  0.85366  0.19051  1.0000
  S   S671      1.0  0.83419  0.78051  0.17149  1.0000
  C   C1974     1.0  0.90104  0.79846  0.26083  1.0000
  C   C1975     1.0  0.53091  0.75214  0.05948  1.0000
  C   C1976     1.0  0.58237  0.73973  0.97955  1.0000
  Fe  Fe336     1.0  0.72062  0.86367  0.23583  1.0000
  H   H1962     1.0  0.55949  0.89157  0.05586  1.0000
  N   N167      1.0  0.50018  0.97679  0.14091  1.0000
  Fe  Fe337     1.0  0.55123  0.94659  0.07691  1.0000
  C   C1977     1.0  0.74641  0.80099  0.20642  1.0000
  S   S672      1.0  0.55818  0.92510  0.06207  1.0000
  H   H1963     1.0  0.91174  0.78645  0.26322  1.0000
  H   H1964     1.0  0.89912  0.80332  0.22744  1.0000
  H   H1965     1.0  0.78523  0.82992  0.18695  1.0000
  S   S673      1.0  0.50807  0.76999  0.01993  1.0000
  C   C1978     1.0  0.96389  0.80919  0.28873  1.0000
  S   S674      1.0  0.54918  0.84141  0.09188  1.0000
  C   C1979     1.0  0.62375  0.89416  0.15441  1.0000
  H   H1966     1.0  0.87693  0.79580  0.21660  1.0000
  H   H1967     1.0  0.71230  0.88356  0.29009  1.0000
  C   C1980     1.0  0.78440  0.86996  0.27200  1.0000
  C   C1981     1.0  0.69514  0.79154  0.03877  1.0000
  C   C1982     1.0  0.69429  0.75834  0.06048  1.0000
  S   S675      1.0  0.54189  0.77855  0.98720  1.0000
  C   C1983     1.0  0.58870  0.85605  0.13953  1.0000
  C   C1984     1.0  0.54245  0.82794  0.03936  1.0000
  C   C1985     1.0  0.53039  0.82980  0.02907  1.0000
  H   H1968     1.0  0.59350  0.86099  0.11130  1.0000
  H   H1969     1.0  0.74173  0.97800  0.17639  1.0000
  C   C1986     1.0  0.69428  0.77224  0.06754  1.0000
  C   C1987     1.0  0.60546  0.81416  0.08641  1.0000
  H   H1970     1.0  0.60832  0.81978  0.07238  1.0000
  C   C1988     1.0  0.69315  0.86198  0.14308  1.0000
  C   C1989     1.0  0.59435  0.80216  0.09337  1.0000
  C   C1990     1.0  0.59887  0.79959  0.12222  1.0000
  C   C1991     1.0  0.56773  0.83336  0.13978  1.0000
  H   H1971     1.0  0.58648  0.83208  0.02435  1.0000
  H   H1972     1.0  0.85293  0.78177  0.23803  1.0000
  C   C1992     1.0  0.76881  0.89623  0.25490  1.0000
  C   C1993     1.0  0.59094  0.79488  0.11141  1.0000
  H   H1973     1.0  0.59591  0.79408  0.13627  1.0000
  H   H1974     1.0  0.84584  0.74345  0.28447  1.0000
  C   C1994     1.0  0.53073  0.81577  0.02202  1.0000
  C   C1995     1.0  0.57990  0.84703  0.15547  1.0000
  C   C1996     1.0  0.75171  0.94206  0.20387  1.0000
  C   C1997     1.0  0.70337  0.86860  0.15011  1.0000
  H   H1975     1.0  0.70796  0.88048  0.14294  1.0000
  C   C1998     1.0  0.86184  0.78207  0.26057  1.0000
  C   C1999     1.0  0.69694  0.93362  0.18840  1.0000
  S   S676      1.0  0.70639  0.83401  0.19651  1.0000
  C   C2000     1.0  0.69109  0.83809  0.16898  1.0000
  C   C2001     1.0  0.57601  0.84287  0.12377  1.0000
  C   C2002     1.0  0.61299  0.81873  0.09766  1.0000
  H   H1976     1.0  0.60977  0.81561  0.14011  1.0000
  S   S677      1.0  0.51942  0.82760  0.08059  1.0000
  H   H1977     1.0  0.58133  0.84860  0.16778  1.0000
  H   H1978     1.0  0.75727  0.93635  0.17819  1.0000
  H   H1979     1.0  0.68637  0.82623  0.17628  1.0000
  H   H1980     1.0  0.63129  0.80589  0.12767  1.0000
  C   C2003     1.0  0.70133  0.84477  0.17597  1.0000
  C   C2004     1.0  0.70739  0.86009  0.16655  1.0000
  H   H1981     1.0  0.80672  0.81229  0.16608  1.0000
  H   H1982     1.0  0.62154  0.82811  0.09219  1.0000
  S   S678      1.0  0.74191  0.90648  0.18308  1.0000
  C   C2005     1.0  0.74215  0.91875  0.19781  1.0000
  C   C2006     1.0  0.58463  0.74859  0.02907  1.0000
  N   N168      1.0  0.88756  0.79433  0.25453  1.0000
  C   C2007     1.0  0.88846  0.79766  0.23686  1.0000
  S   S679      1.0  0.56801  0.80915  0.05756  1.0000
  S   S680      1.0  0.63121  0.94960  0.15100  1.0000
  H   H1983     1.0  0.59499  0.75604  0.98700  1.0000
  H   H1984     1.0  0.74036  0.94471  0.29593  1.0000
  H   H1985     1.0  0.69790  0.76844  0.00887  1.0000
  H   H1986     1.0  0.60359  0.93232  0.17175  1.0000
  C   C2008     1.0  0.79624  0.84232  0.26154  1.0000
  C   C2009     1.0  0.75497  0.78896  0.23492  1.0000
  H   H1987     1.0  0.70861  0.92323  0.08746  1.0000
  H   H1988     1.0  0.90730  0.80894  0.25110  1.0000
  N   N169      1.0  0.78664  0.86089  0.25932  1.0000
  H   H1989     1.0  0.90549  0.76077  0.21910  1.0000
  C   C2010     1.0  0.79483  0.81840  0.19169  1.0000
  Fe  Fe338     1.0  0.72116  0.84854  0.20551  1.0000
  H   H1990     1.0  0.71561  0.89593  0.11019  1.0000
  Fe  Fe339     1.0  0.65027  0.96519  0.13129  1.0000
  Fe  Fe340     1.0  0.73755  0.87973  0.19880  1.0000
  S   S681      1.0  0.74617  0.94752  0.23720  1.0000
  C   C2011     1.0  0.73390  0.91429  0.21561  1.0000
  C   C2012     1.0  0.67628  0.98205  0.18118  1.0000
  C   C2013     1.0  0.73515  0.92320  0.22761  1.0000
  C   C2014     1.0  0.74982  0.85140  0.29474  1.0000
  C   C2015     1.0  0.71548  0.92319  0.09728  1.0000
  C   C2016     1.0  0.97480  0.74477  0.29300  1.0000
  H   H1991     1.0  0.72645  0.90399  0.22021  1.0000
  C   C2017     1.0  0.51743  0.76700  0.06235  1.0000
  C   C2018     1.0  0.75012  0.80322  0.18815  1.0000
  S   S682      1.0  0.70989  0.87558  0.21141  1.0000
  H   H1992     1.0  0.78938  0.86339  0.28386  1.0000
  N   N170      1.0  0.69210  0.95210  0.18993  1.0000
  H   H1993     1.0  0.56338  0.82807  0.16798  1.0000
  H   H1994     1.0  0.73358  0.80778  0.21296  1.0000
  C   C2019     1.0  0.71937  0.90790  0.11008  1.0000
  H   H1995     1.0  0.71708  0.95052  0.08753  1.0000
  C   C2020     1.0  0.94964  0.74463  0.14152  1.0000
  Fe  Fe341     1.0  0.51663  0.79380  0.00128  1.0000
  C   C2021     1.0  0.96755  0.82000  0.25684  1.0000
  N   N171      1.0  0.97454  0.81493  0.27285  1.0000
  Fe  Fe342     1.0  0.75544  0.84324  0.21687  1.0000
  C   C2022     1.0  0.79536  0.81356  0.20952  1.0000
  H   H1996     1.0  0.95992  0.81039  0.25689  1.0000
  C   C2023     1.0  0.81980  0.78860  0.20385  1.0000
  H   H1997     1.0  0.96179  0.75289  0.15759  1.0000
  H   H1998     1.0  0.78273  0.86213  0.23404  1.0000
  H   H1999     1.0  0.56737  0.90506  0.12937  1.0000
  H   H2000     1.0  0.96675  0.75510  0.26838  1.0000
  C   C2024     1.0  0.72023  0.93852  0.09732  1.0000
  C   C2025     1.0  0.98721  0.80632  0.30345  1.0000
  S   S683      1.0  0.99427  0.74795  0.23192  1.0000
  H   H2001     1.0  0.59471  0.91665  0.12058  1.0000
  H   H2002     1.0  0.52370  0.93495  0.15201  1.0000
  S   S684      1.0  0.57297  0.95372  0.08414  1.0000
  S   S685      1.0  0.90502  0.76970  0.30135  1.0000
  H   H2003     1.0  0.82904  0.77685  0.20878  1.0000
  H   H2004     1.0  0.72904  0.91937  0.24141  1.0000
  H   H2005     1.0  0.50009  0.91101  0.09318  1.0000
  C   C2026     1.0  0.74334  0.95605  0.28493  1.0000
  C   C2027     1.0  0.72771  0.97090  0.16113  1.0000
  S   S686      1.0  0.78035  0.82546  0.22477  1.0000
  C   C2028     1.0  0.80792  0.79871  0.21554  1.0000
  H   H2006     1.0  0.69422  0.79995  0.06213  1.0000
  S   S687      1.0  0.86177  0.80552  0.30450  1.0000
  S   S688      1.0  0.67787  0.94954  0.12275  1.0000
  H   H2007     1.0  0.61536  0.87026  0.16973  1.0000
  H   H2008     1.0  0.61180  0.89960  0.14916  1.0000
  Fe  Fe343     1.0  0.54871  0.81947  0.08026  1.0000
  S   S689      1.0  0.54573  0.79995  0.10590  1.0000
  S   S690      1.0  0.74750  0.86963  0.22361  1.0000
  Fe  Fe344     1.0  0.67674  0.96717  0.09622  1.0000
  H   H2009     1.0  0.55742  0.73817  0.06204  1.0000
  C   C2029     1.0  0.64122  0.87074  0.17257  1.0000
  S   S691      1.0  0.72924  0.83615  0.23134  1.0000
  C   C2030     1.0  0.63742  0.90339  0.14938  1.0000
  H   H2010     1.0  0.63597  0.91604  0.14010  1.0000
  H   H2011     1.0  0.69491  0.80469  0.03048  1.0000
  C   C2031     1.0  0.72799  0.90822  0.12278  1.0000
  C   C2032     1.0  0.72862  0.93843  0.11033  1.0000
  N   N172      1.0  0.65248  0.89655  0.15599  1.0000
  H   H2012     1.0  0.80832  0.79484  0.22934  1.0000
  H   H2013     1.0  0.64302  0.85785  0.18144  1.0000
  C   C2033     1.0  0.56739  0.75998  0.07485  1.0000
  H   H2014     1.0  0.73175  0.95058  0.11058  1.0000
  H   H2015     1.0  0.64147  0.95155  0.03702  1.0000
  C   C2034     1.0  0.65448  0.88047  0.16749  1.0000
  C   C2035     1.0  0.55587  0.79824  0.03486  1.0000
  C   C2036     1.0  0.66665  0.90646  0.15021  1.0000
  H   H2016     1.0  0.67274  0.90686  0.13604  1.0000
  C   C2037     1.0  0.85477  0.74198  0.14384  1.0000
  H   H2017     1.0  0.51002  0.79104  0.07193  1.0000
  C   C2038     1.0  0.54655  0.89585  0.06401  1.0000
  N   N173      1.0  0.73249  0.92336  0.12278  1.0000
  H   H2018     1.0  0.67733  0.90037  0.15771  1.0000
  H   H2019     1.0  0.74039  0.79115  0.24070  1.0000
  C   C2039     1.0  0.96473  0.74596  0.28100  1.0000
  C   C2040     1.0  0.72211  0.98071  0.29660  1.0000
  H   H2020     1.0  0.53781  0.87222  0.06644  1.0000
  H   H2021     1.0  0.73100  0.89633  0.13271  1.0000
  S   S692      1.0  0.51463  0.81812  0.01030  1.0000
  H   H2022     1.0  0.54362  0.90223  0.10870  1.0000
  H   H2023     1.0  0.68552  0.92950  0.18672  1.0000
  H   H2024     1.0  0.75439  0.96062  0.28684  1.0000
  H   H2025     1.0  0.69369  0.74534  0.06884  1.0000
  C   C2041     1.0  0.74066  0.92350  0.13678  1.0000
  S   S693      1.0  0.50309  0.87565  0.08973  1.0000
  H   H2026     1.0  0.75145  0.91153  0.13906  1.0000
  H   H2027     1.0  0.73039  0.92389  0.14923  1.0000
  H   H2028     1.0  0.56421  0.75936  0.01395  1.0000
  H   H2029     1.0  0.79145  0.83504  0.25462  1.0000
  C   C2042     1.0  0.54209  0.91226  0.06854  1.0000
  C   C2043     1.0  0.54710  0.74982  0.06412  1.0000
  C   C2044     1.0  0.71734  0.97298  0.27242  1.0000
  H   H2030     1.0  0.77303  0.89462  0.28045  1.0000
  C   C2045     1.0  0.53436  0.88480  0.07016  1.0000
  H   H2031     1.0  0.74650  0.93528  0.13368  1.0000
  H   H2032     1.0  0.52051  0.84201  0.02689  1.0000
  H   H2033     1.0  0.70123  0.92457  0.20032  1.0000
  H   H2034     1.0  0.58823  0.96055  0.11367  1.0000
  C   C2046     1.0  0.59162  0.95435  0.12631  1.0000
  S   S694      1.0  0.86727  0.77053  0.20284  1.0000
  S   S695      1.0  0.70784  0.87151  0.26163  1.0000
  C   C2047     1.0  0.77904  0.78386  0.18927  1.0000
  C   C2048     1.0  0.58026  0.94467  0.13951  1.0000
  H   H2035     1.0  0.61611  0.96362  0.11943  1.0000
  C   C2049     1.0  0.60738  0.95612  0.12957  1.0000
  H   H2036     1.0  0.85789  0.74977  0.15102  1.0000
  S   S696      1.0  0.99352  0.78891  0.20819  1.0000
  H   H2037     1.0  0.76029  0.79894  0.23774  1.0000
  H   H2038     1.0  0.56558  0.78598  0.03723  1.0000
  H   H2039     1.0  0.73293  0.95687  0.16510  1.0000
  C   C2050     1.0  0.61164  0.94828  0.14604  1.0000
  S   S697      1.0  0.50034  0.79568  0.98226  1.0000
  C   C2051     1.0  0.58476  0.93666  0.15578  1.0000
  C   C2052     1.0  0.60033  0.93848  0.15904  1.0000
  N   N174      1.0  0.75876  0.79052  0.21587  1.0000
  C   C2053     1.0  0.77499  0.78217  0.20751  1.0000
  H   H2040     1.0  0.57610  0.92910  0.16599  1.0000
  Fe  Fe345     1.0  0.55367  0.95484  0.11001  1.0000
  H   H2041     1.0  0.78508  0.77442  0.21487  1.0000
  H   H2042     1.0  0.97851  0.82013  0.24481  1.0000
  C   C2054     1.0  0.51299  0.90680  0.08494  1.0000
  H   H2043     1.0  0.70820  0.93196  0.17687  1.0000
  H   H2044     1.0  0.68321  0.78976  0.01022  1.0000
  H   H2045     1.0  0.79207  0.77742  0.18269  1.0000
  S   S698      1.0  0.88317  0.75158  0.16933  1.0000
  S   S699      1.0  0.51685  0.75292  0.98517  1.0000
  H   H2046     1.0  0.74823  0.95133  0.27243  1.0000
  H   H2047     1.0  0.96230  0.78062  0.20405  1.0000
  H   H2048     1.0  0.62117  0.93060  0.04286  1.0000
  C   C2055     1.0  0.75082  0.84325  0.28130  1.0000
  H   H2049     1.0  0.82547  0.82482  0.30733  1.0000
  Fe  Fe346     1.0  0.68706  0.97091  0.12817  1.0000
  H   H2050     1.0  0.95059  0.77675  0.18063  1.0000
  N   N175      1.0  0.69544  0.77778  0.03190  1.0000
  H   H2051     1.0  0.94980  0.74036  0.25869  1.0000
  C   C2056     1.0  0.60018  0.97342  0.03738  1.0000
  C   C2057     1.0  0.53686  0.77682  0.07373  1.0000
  H   H2052     1.0  0.81076  0.84149  0.25621  1.0000
  C   C2058     1.0  0.77171  0.88706  0.24178  1.0000
  S   S700      1.0  0.99291  0.77957  0.25023  1.0000
  C   C2059     1.0  0.94331  0.77404  0.19416  1.0000
  S   S701      1.0  0.53298  0.94537  0.10359  1.0000
  C   C2060     1.0  0.92715  0.76875  0.19826  1.0000
  H   H2053     1.0  0.76164  0.90997  0.25323  1.0000
  C   C2061     1.0  0.72408  0.86408  0.27423  1.0000
  C   C2062     1.0  0.52517  0.91790  0.07871  1.0000
  S   S702      1.0  0.94804  0.77760  0.24127  1.0000
  C   C2063     1.0  0.59508  0.94093  0.03723  1.0000
  C   C2064     1.0  0.69491  0.76135  0.04251  1.0000
  C   C2065     1.0  0.61086  0.94241  0.04037  1.0000
  Fe  Fe347     1.0  0.53182  0.75468  0.00402  1.0000
  C   C2066     1.0  0.54360  0.80002  0.02473  1.0000
  Fe  Fe348     1.0  0.97777  0.77510  0.23318  1.0000
  H   H2054     1.0  0.85157  0.77585  0.26997  1.0000
  C   C2067     1.0  0.73609  0.86610  0.29778  1.0000
  H   H2055     1.0  0.69488  0.75047  0.03714  1.0000
  C   C2068     1.0  0.92449  0.76746  0.22913  1.0000
  H   H2056     1.0  0.56919  0.95499  0.03218  1.0000
  C   C2069     1.0  0.51772  0.89010  0.08092  1.0000
  H   H2057     1.0  0.74030  0.81172  0.18075  1.0000
  C   C2070     1.0  0.99126  0.81679  0.27200  1.0000
  C   C2071     1.0  0.73810  0.84970  0.27095  1.0000
  H   H2058     1.0  0.73895  0.84326  0.26066  1.0000
  H   H2059     1.0  0.67372  0.95993  0.17310  1.0000
  C   C2072     1.0  0.70072  0.95752  0.19913  1.0000
  H   H2060     1.0  0.79399  0.83548  0.27567  1.0000
  H   H2061     1.0  0.91726  0.76472  0.24267  1.0000
  C   C2073     1.0  0.71580  0.97698  0.14985  1.0000
  C   C2074     1.0  0.59990  0.82420  0.01940  1.0000
  H   H2062     1.0  0.52142  0.93080  0.08176  1.0000
  H   H2063     1.0  0.57331  0.82134  0.00727  1.0000
  Fe  Fe349     1.0  0.51939  0.84785  0.09467  1.0000
  C   C2075     1.0  0.68001  0.96410  0.18100  1.0000
  H   H2064     1.0  0.73006  0.97886  0.30602  1.0000
  Fe  Fe350     1.0  0.64168  0.76282  0.99245  1.0000
  S   S703      1.0  0.65244  0.75340  0.03869  1.0000
  H   H2065     1.0  0.88716  0.74794  0.13076  1.0000
  H   H2066     1.0  0.52892  0.74248  0.05360  1.0000
  H   H2067     1.0  0.59309  0.92812  0.03745  1.0000
  C   C2076     1.0  0.78068  0.86927  0.24422  1.0000
  H   H2068     1.0  0.62905  0.95446  0.05874  1.0000
  S   S704      1.0  0.53861  0.97447  0.06590  1.0000
  Fe  Fe351     1.0  0.51646  0.80968  0.10716  1.0000
  C   C2077     1.0  0.72306  0.87232  0.28765  1.0000
  Fe  Fe352     1.0  0.89389  0.75669  0.18964  1.0000
  H   H2069     1.0  0.58865  0.76094  0.02637  1.0000
  H   H2070     1.0  0.72133  0.96474  0.26288  1.0000
  H   H2071     1.0  0.57607  0.76684  0.06322  1.0000
  H   H2072     1.0  0.62935  0.81802  0.99451  1.0000
  C   C2078     1.0  0.57075  0.74772  0.02210  1.0000
  Fe  Fe353     1.0  0.63028  0.74730  0.03096  1.0000
  S   S705      1.0  0.85243  0.74275  0.24812  1.0000
  N   N176      1.0  0.61325  0.95853  0.04038  1.0000
  C   C2079     1.0  0.58623  0.81886  0.99840  1.0000
  H   H2073     1.0  0.80952  0.97926  0.26755  1.0000
  H   H2074     1.0  0.92977  0.74800  0.27406  1.0000
  Fe  Fe354     1.0  0.74896  0.97558  0.22562  1.0000
  H   H2075     1.0  0.60994  0.83176  0.01838  1.0000
  S   S706      1.0  0.76544  0.84228  0.30801  1.0000
  H   H2076     1.0  0.50477  0.76886  0.05893  1.0000
  S   S707      1.0  0.79566  0.96858  0.30777  1.0000
  H   H2077     1.0  0.57554  0.81261  0.97980  1.0000
  H   H2078     1.0  0.60241  0.81158  0.02925  1.0000
  C   C2080     1.0  0.62959  0.95958  0.04443  1.0000
  H   H2079     1.0  0.69351  0.77022  0.08150  1.0000
  H   H2080     1.0  0.57427  0.74580  0.07787  1.0000
  C   C2081     1.0  0.97000  0.80499  0.30425  1.0000
  Fe  Fe355     1.0  0.52191  0.97404  0.09318  1.0000
  C   C2082     1.0  0.86010  0.73939  0.27978  1.0000
  C   C2083     1.0  0.51253  0.94564  0.14888  1.0000
  H   H2081     1.0  0.52652  0.96586  0.14546  1.0000
  C   C2084     1.0  0.73265  0.98285  0.16758  1.0000
  C   C2085     1.0  0.95443  0.74372  0.15703  1.0000
  H   H2082     1.0  0.56602  0.76556  0.08632  1.0000
  C   C2086     1.0  0.69725  0.97534  0.19965  1.0000
  H   H2083     1.0  0.95870  0.83339  0.25590  1.0000
  H   H2084     1.0  0.95062  0.80767  0.28950  1.0000
  S   S708      1.0  0.54079  0.98347  0.10245  1.0000
  C   C2087     1.0  0.58741  0.81396  0.98282  1.0000
  H   H2085     1.0  0.82699  0.74653  0.15702  1.0000
  C   C2088     1.0  0.51406  0.96321  0.14514  1.0000
  C   C2089     1.0  0.58422  0.97241  0.03423  1.0000
  H   H2086     1.0  0.70450  0.97961  0.20653  1.0000
  H   H2087     1.0  0.70852  0.83976  0.30999  1.0000
  Fe  Fe356     1.0  0.55839  0.98172  0.07589  1.0000
  S   S709      1.0  0.64830  0.98101  0.10421  1.0000
  H   H2088     1.0  0.86607  0.73707  0.30475  1.0000
  C   C2090     1.0  0.86706  0.73777  0.26228  1.0000
  C   C2091     1.0  0.94196  0.73731  0.27240  1.0000
  S   S710      1.0  0.76629  0.98547  0.19969  1.0000
  H   H2089     1.0  0.57376  0.98424  0.03221  1.0000
  C   C2092     1.0  0.49672  0.94200  0.14821  1.0000
  S   S711      1.0  0.65947  0.98543  0.13870  1.0000
  H   H2090     1.0  0.60189  0.98618  0.03766  1.0000
  H   H2091     1.0  0.49602  0.95091  0.10189  1.0000
  Fe  Fe357     1.0  0.87132  0.76101  0.47838  1.0000
  C   C2093     1.0  0.88966  0.74044  0.42545  1.0000
  S   S712      1.0  0.84188  0.76880  0.47964  1.0000
  Fe  Fe358     1.0  0.90543  0.77252  0.47375  1.0000
  H   H2092     1.0  0.78054  0.93424  0.60472  1.0000
  S   S713      1.0  0.92001  0.79412  0.46829  1.0000
  H   H2093     1.0  0.88412  0.79256  0.59834  1.0000
  H   H2094     1.0  0.76549  0.97353  0.59906  1.0000
  H   H2095     1.0  0.73612  0.91326  0.60699  1.0000
  H   H2096     1.0  0.78879  0.79014  0.52755  1.0000
  S   S714      1.0  0.89160  0.76994  0.45448  1.0000
  S   S715      1.0  0.88366  0.76659  0.49732  1.0000
  C   C2094     1.0  0.95644  0.79186  0.42736  1.0000
  Fe  Fe359     1.0  0.78351  0.86057  0.46616  1.0000
  S   S716      1.0  0.76638  0.84349  0.48614  1.0000
  S   S717      1.0  0.81117  0.84980  0.45176  1.0000
  Fe  Fe360     1.0  0.75547  0.89401  0.47041  1.0000
  S   S718      1.0  0.73586  0.87969  0.49104  1.0000
  S   S719      1.0  0.74782  0.92320  0.45961  1.0000
  Fe  Fe361     1.0  0.75975  0.86395  0.50213  1.0000
  S   S720      1.0  0.76337  0.85288  0.52990  1.0000
  Fe  Fe362     1.0  0.74433  0.86067  0.47313  1.0000
  S   S721      1.0  0.72580  0.84704  0.46843  1.0000
  S   S722      1.0  0.77872  0.87986  0.48303  1.0000
  S   S723      1.0  0.76205  0.87622  0.45172  1.0000
  Fe  Fe363     1.0  0.78402  0.85986  0.35235  1.0000
  S   S724      1.0  0.76983  0.83896  0.35436  1.0000
  S   S725      1.0  0.81102  0.85074  0.35874  1.0000
  Fe  Fe364     1.0  0.75341  0.88946  0.34270  1.0000
  S   S726      1.0  0.73661  0.87096  0.34383  1.0000
  S   S727      1.0  0.74123  0.91848  0.33749  1.0000
  Fe  Fe365     1.0  0.74609  0.85595  0.36843  1.0000
  S   S728      1.0  0.72807  0.84223  0.39147  1.0000
  Fe  Fe366     1.0  0.76200  0.85594  0.32963  1.0000
  C   C2095     1.0  0.72374  0.82788  0.35373  1.0000
  S   S729      1.0  0.76087  0.87563  0.36855  1.0000
  S   S730      1.0  0.77815  0.87568  0.32631  1.0000
  S   S731      1.0  0.87139  0.75688  0.33140  1.0000
  H   H2097     1.0  0.80409  0.92804  0.46858  1.0000
  H   H2098     1.0  0.84165  0.81627  0.50002  1.0000
  H   H2099     1.0  0.75016  0.97011  0.40888  1.0000
  H   H2100     1.0  0.76262  0.97477  0.52335  1.0000
  C   C2096     1.0  0.77496  0.92496  0.32418  1.0000
  C   C2097     1.0  0.96657  0.80044  0.41207  1.0000
  H   H2101     1.0  0.74808  0.85942  0.59059  1.0000
  S   S732      1.0  0.87356  0.75054  0.38005  1.0000
  C   C2098     1.0  0.76786  0.96174  0.46415  1.0000
  C   C2099     1.0  0.75950  0.94126  0.37248  1.0000
  H   H2102     1.0  0.92868  0.76198  0.35247  1.0000
  C   C2100     1.0  0.95402  0.78902  0.39494  1.0000
  H   H2103     1.0  0.75742  0.97568  0.31787  1.0000
  C   C2101     1.0  0.70887  0.81332  0.64353  1.0000
  C   C2102     1.0  0.72281  0.80826  0.62983  1.0000
  H   H2104     1.0  0.81338  0.97316  0.42972  1.0000
  C   C2103     1.0  0.79091  0.93497  0.46648  1.0000
  C   C2104     1.0  0.78472  0.95279  0.46728  1.0000
  H   H2105     1.0  0.75355  0.91652  0.49944  1.0000
  C   C2105     1.0  0.97185  0.76397  0.33284  1.0000
  C   C2106     1.0  0.73672  0.95248  0.61445  1.0000
  C   C2107     1.0  0.93782  0.75651  0.62232  1.0000
  C   C2108     1.0  0.71266  0.83606  0.32241  1.0000
  C   C2109     1.0  0.74891  0.93031  0.40867  1.0000
  H   H2106     1.0  0.78533  0.82256  0.51808  1.0000
  C   C2110     1.0  0.83002  0.81066  0.50647  1.0000
  H   H2107     1.0  0.76381  0.94565  0.35835  1.0000
  S   S733      1.0  0.94456  0.77339  0.31590  1.0000
  S   S734      1.0  0.76019  0.87220  0.61573  1.0000
  H   H2108     1.0  0.76577  0.96283  0.37832  1.0000
  H   H2109     1.0  0.80070  0.84739  0.51261  1.0000
  C   C2111     1.0  0.76624  0.93579  0.60684  1.0000
  H   H2110     1.0  0.86807  0.81533  0.33350  1.0000
  C   C2112     1.0  0.81782  0.98508  0.42842  1.0000
  C   C2113     1.0  0.87885  0.78736  0.62667  1.0000
  C   C2114     1.0  0.85674  0.80359  0.60961  1.0000
  C   C2115     1.0  0.72859  0.82379  0.32431  1.0000
  S   S735      1.0  0.98717  0.75807  0.50115  1.0000
  H   H2111     1.0  0.99305  0.75743  0.34644  1.0000
  C   C2116     1.0  0.93227  0.77033  0.40886  1.0000
  C   C2117     1.0  0.72973  0.93904  0.61293  1.0000
  H   H2112     1.0  0.83037  0.81224  0.62484  1.0000
  C   C2118     1.0  0.75679  0.95272  0.46117  1.0000
  H   H2113     1.0  0.76433  0.84450  0.56614  1.0000
  H   H2114     1.0  0.95159  0.80652  0.46510  1.0000
  C   C2119     1.0  0.94511  0.78209  0.42610  1.0000
  C   C2120     1.0  0.76195  0.96517  0.61241  1.0000
  C   C2121     1.0  0.75667  0.93203  0.32898  1.0000
  H   H2115     1.0  0.97318  0.80571  0.38382  1.0000
  C   C2122     1.0  0.73430  0.81981  0.33996  1.0000
  H   H2116     1.0  0.97356  0.75796  0.54293  1.0000
  H   H2117     1.0  0.75175  0.91845  0.37070  1.0000
  H   H2118     1.0  0.99250  0.87377  0.46004  1.0000
  C   C2123     1.0  0.69728  0.84821  0.36640  1.0000
  H   H2119     1.0  0.68303  0.85298  0.36563  1.0000
  H   H2120     1.0  0.92201  0.74491  0.55883  1.0000
  H   H2121     1.0  0.74708  0.81090  0.34122  1.0000
  C   C2124     1.0  0.75143  0.86417  0.54681  1.0000
  C   C2125     1.0  0.73889  0.88012  0.54381  1.0000
  C   C2126     1.0  0.72969  0.88867  0.55777  1.0000
  H   H2122     1.0  0.73618  0.88569  0.53084  1.0000
  H   H2123     1.0  0.71991  0.90092  0.55550  1.0000
  C   C2127     1.0  0.72565  0.84732  0.44676  1.0000
  C   C2128     1.0  0.73438  0.85824  0.43218  1.0000
  C   C2129     1.0  0.73487  0.85717  0.41504  1.0000
  C   C2130     1.0  0.72676  0.84507  0.41251  1.0000
  C   C2131     1.0  0.71776  0.83447  0.42709  1.0000
  C   C2132     1.0  0.71715  0.83564  0.44413  1.0000
  H   H2124     1.0  0.74064  0.86755  0.43409  1.0000
  H   H2125     1.0  0.74157  0.86562  0.40388  1.0000
  H   H2126     1.0  0.71135  0.82519  0.42524  1.0000
  H   H2127     1.0  0.71028  0.82725  0.45534  1.0000
  C   C2133     1.0  0.94275  0.76088  0.35112  1.0000
  H   H2128     1.0  0.92618  0.76437  0.49699  1.0000
  H   H2129     1.0  0.78477  0.91227  0.46261  1.0000
  H   H2130     1.0  0.73689  0.81792  0.31339  1.0000
  C   C2134     1.0  0.84414  0.80555  0.62517  1.0000
  C   C2135     1.0  0.81910  0.83665  0.32969  1.0000
  C   C2136     1.0  0.82542  0.83896  0.34312  1.0000
  C   C2137     1.0  0.84315  0.83137  0.34438  1.0000
  H   H2131     1.0  0.94303  0.75767  0.60833  1.0000
  H   H2132     1.0  0.77073  0.95496  0.41279  1.0000
  C   C2138     1.0  0.75041  0.95030  0.32689  1.0000
  H   H2133     1.0  0.84818  0.83340  0.35455  1.0000
  C   C2139     1.0  0.87426  0.79453  0.61031  1.0000
  H   H2134     1.0  0.97537  0.80817  0.41281  1.0000
  C   C2140     1.0  0.74549  0.86532  0.57761  1.0000
  H   H2135     1.0  0.97845  0.79199  0.47756  1.0000
  C   C2141     1.0  0.96781  0.76945  0.49350  1.0000
  C   C2142     1.0  0.92188  0.75085  0.63039  1.0000
  C   C2143     1.0  0.83366  0.79123  0.47148  1.0000
  C   C2144     1.0  0.81525  0.79758  0.47324  1.0000
  C   C2145     1.0  0.80825  0.81557  0.46737  1.0000
  C   C2146     1.0  0.81967  0.82725  0.45941  1.0000
  C   C2147     1.0  0.83814  0.82085  0.45740  1.0000
  C   C2148     1.0  0.84514  0.80288  0.46367  1.0000
  H   H2136     1.0  0.80636  0.78858  0.47938  1.0000
  H   H2137     1.0  0.79405  0.82023  0.46888  1.0000
  H   H2138     1.0  0.84703  0.82987  0.45131  1.0000
  H   H2139     1.0  0.85935  0.79810  0.46257  1.0000
  H   H2140     1.0  0.98861  0.82581  0.64003  1.0000
  C   C2149     1.0  0.70253  0.84405  0.33638  1.0000
  H   H2141     1.0  0.99558  0.73679  0.41329  1.0000
  C   C2150     1.0  0.93749  0.78586  0.47945  1.0000
  C   C2151     1.0  0.93774  0.77015  0.49228  1.0000
  N   N177      1.0  0.77092  0.82669  0.43171  1.0000
  C   C2152     1.0  0.77093  0.82607  0.41504  1.0000
  C   C2153     1.0  0.77892  0.83838  0.43428  1.0000
  C   C2154     1.0  0.77866  0.83770  0.40047  1.0000
  C   C2155     1.0  0.78673  0.85022  0.42001  1.0000
  C   C2156     1.0  0.78643  0.84997  0.40302  1.0000
  C   C2157     1.0  0.76311  0.81419  0.44686  1.0000
  H   H2142     1.0  0.76452  0.81687  0.41294  1.0000
  H   H2143     1.0  0.77906  0.83881  0.44743  1.0000
  H   H2144     1.0  0.77854  0.83730  0.38728  1.0000
  H   H2145     1.0  0.79294  0.85956  0.42217  1.0000
  H   H2146     1.0  0.79236  0.85918  0.39183  1.0000
  H   H2147     1.0  0.77333  0.80193  0.44987  1.0000
  H   H2148     1.0  0.75772  0.82006  0.45869  1.0000
  H   H2149     1.0  0.75163  0.81085  0.44433  1.0000
  H   H2150     1.0  0.70265  0.85958  0.36615  1.0000
  H   H2151     1.0  0.94016  0.75684  0.40777  1.0000
  S   S736      1.0  0.77663  0.82134  0.62158  1.0000
  H   H2152     1.0  0.95340  0.74918  0.50835  1.0000
  C   C2158     1.0  0.75649  0.95595  0.41322  1.0000
  C   C2159     1.0  0.98287  0.74642  0.45374  1.0000
  H   H2153     1.0  0.95352  0.78759  0.38219  1.0000
  H   H2154     1.0  0.72761  0.96423  0.61827  1.0000
  H   H2155     1.0  0.94456  0.75984  0.53626  1.0000
  H   H2156     1.0  0.80168  0.78977  0.61508  1.0000
  C   C2160     1.0  0.95301  0.76176  0.49902  1.0000
  H   H2157     1.0  0.74239  0.90843  0.40323  1.0000
  H   H2158     1.0  0.77570  0.98359  0.42059  1.0000
  C   C2161     1.0  0.77116  0.95055  0.51403  1.0000
  H   H2159     1.0  0.72024  0.80948  0.61706  1.0000
  H   H2160     1.0  0.93720  0.77558  0.43811  1.0000
  S   S737      1.0  0.72894  0.84926  0.63071  1.0000
  H   H2161     1.0  0.82174  0.76714  0.63256  1.0000
  H   H2162     1.0  0.73627  0.95572  0.33084  1.0000
  C   C2162     1.0  0.75971  0.92212  0.60520  1.0000
  H   H2163     1.0  0.92627  0.77627  0.39717  1.0000
  C   C2163     1.0  0.78697  0.93623  0.31722  1.0000
  H   H2164     1.0  0.77992  0.91085  0.32593  1.0000
  C   C2164     1.0  0.76059  0.95093  0.38385  1.0000
  C   C2165     1.0  0.96534  0.79906  0.39575  1.0000
  H   H2165     1.0  0.77404  0.95994  0.61805  1.0000
  S   S738      1.0  0.86130  0.75471  0.62284  1.0000
  H   H2166     1.0  0.82344  0.84494  0.50062  1.0000
  S   S739      1.0  0.72156  0.89195  0.59221  1.0000
  N   N178      1.0  0.75516  0.94551  0.40168  1.0000
  C   C2166     1.0  0.97900  0.75848  0.34783  1.0000
  H   H2167     1.0  0.74355  0.95963  0.45925  1.0000
  C   C2167     1.0  0.83044  0.82667  0.31763  1.0000
  H   H2168     1.0  0.84561  0.78381  0.50971  1.0000
  C   C2168     1.0  0.95367  0.76544  0.33452  1.0000
  Fe  Fe367     1.0  0.73102  0.87707  0.61704  1.0000
  C   C2169     1.0  0.95196  0.79405  0.47458  1.0000
  C   C2170     1.0  0.81751  0.78482  0.51948  1.0000
  H   H2169     1.0  0.71543  0.94032  0.61551  1.0000
  H   H2170     1.0  0.92117  0.76914  0.42065  1.0000
  H   H2171     1.0  0.73357  0.93235  0.49578  1.0000
  H   H2172     1.0  0.94141  0.75233  0.37892  1.0000
  H   H2173     1.0  0.98649  0.75304  0.46177  1.0000
  H   H2174     1.0  0.86482  0.74882  0.41693  1.0000
  Fe  Fe368     1.0  0.75774  0.84497  0.63119  1.0000
  H   H2175     1.0  0.76882  0.91010  0.60202  1.0000
  C   C2171     1.0  0.75282  0.92595  0.37944  1.0000
  H   H2176     1.0  0.74969  0.95147  0.42710  1.0000
  H   H2177     1.0  0.80545  0.84240  0.32862  1.0000
  N   N179      1.0  0.85455  0.79368  0.41047  1.0000
  C   C2172     1.0  0.86072  0.78945  0.39431  1.0000
  C   C2173     1.0  0.83803  0.80430  0.41456  1.0000
  C   C2174     1.0  0.85011  0.79564  0.38185  1.0000
  C   C2175     1.0  0.82719  0.81094  0.40229  1.0000
  C   C2176     1.0  0.83324  0.80646  0.38590  1.0000
  C   C2177     1.0  0.86541  0.78665  0.42374  1.0000
  H   H2178     1.0  0.87383  0.78110  0.39097  1.0000
  H   H2179     1.0  0.83319  0.80769  0.42737  1.0000
  H   H2180     1.0  0.85494  0.79191  0.36918  1.0000
  H   H2181     1.0  0.81423  0.81948  0.40547  1.0000
  H   H2182     1.0  0.82491  0.81142  0.37629  1.0000
  H   H2183     1.0  0.86696  0.79759  0.42858  1.0000
  H   H2184     1.0  0.85888  0.77739  0.43505  1.0000
  H   H2185     1.0  0.87897  0.77929  0.41843  1.0000
  C   C2178     1.0  0.74755  0.92036  0.39766  1.0000
  Fe  Fe369     1.0  0.87998  0.78236  0.31792  1.0000
  C   C2179     1.0  0.76237  0.96155  0.31988  1.0000
  C   C2180     1.0  0.73298  0.88127  0.57470  1.0000
  C   C2181     1.0  0.75850  0.96477  0.51979  1.0000
  H   H2186     1.0  0.89235  0.77988  0.62711  1.0000
  H   H2187     1.0  0.74486  0.92584  0.42283  1.0000
  N   N180      1.0  0.81329  0.82133  0.50892  1.0000
  C   C2182     1.0  0.77987  0.92594  0.46339  1.0000
  Fe  Fe370     1.0  0.89782  0.74411  0.31657  1.0000
  C   C2183     1.0  0.83238  0.79229  0.51192  1.0000
  H   H2188     1.0  0.69040  0.85390  0.33462  1.0000
  H   H2189     1.0  0.75214  0.97365  0.62105  1.0000
  C   C2184     1.0  0.84801  0.81864  0.31920  1.0000
  C   C2185     1.0  0.96800  0.75448  0.36450  1.0000
  H   H2190     1.0  0.69780  0.83883  0.37933  1.0000
  C   C2186     1.0  0.78068  0.95452  0.31527  1.0000
  C   C2187     1.0  0.96716  0.78581  0.48159  1.0000
  Fe  Fe371     1.0  0.91755  0.76740  0.32333  1.0000
  H   H2191     1.0  0.80643  0.84475  0.49018  1.0000
  N   N181      1.0  0.75477  0.95071  0.61146  1.0000
  C   C2188     1.0  0.94995  0.75538  0.36612  1.0000
  C   C2189     1.0  0.81089  0.84054  0.50277  1.0000
  H   H2192     1.0  0.98043  0.76710  0.31998  1.0000
  S   S740      1.0  0.79770  0.96331  0.47334  1.0000
  S   S741      1.0  0.92141  0.74475  0.47666  1.0000
  H   H2193     1.0  0.78525  0.94954  0.51280  1.0000
  H   H2194     1.0  0.72140  0.95467  0.51642  1.0000
  H   H2195     1.0  0.95989  0.76424  0.62606  1.0000
  C   C2190     1.0  0.74134  0.92381  0.60820  1.0000
  H   H2196     1.0  0.73064  0.97747  0.52490  1.0000
  N   N182      1.0  0.74791  0.93947  0.51019  1.0000
  C   C2191     1.0  0.76560  0.93789  0.50933  1.0000
  C   C2192     1.0  0.73541  0.95341  0.51578  1.0000
  C   C2193     1.0  0.85438  0.82106  0.33255  1.0000
  C   C2194     1.0  0.74050  0.96626  0.52066  1.0000
  H   H2197     1.0  0.77558  0.92699  0.50470  1.0000
  C   C2195     1.0  0.74210  0.92602  0.50555  1.0000
  H   H2198     1.0  0.84390  0.74027  0.55700  1.0000
  C   C2196     1.0  0.94728  0.76043  0.63231  1.0000
  C   C2197     1.0  0.80184  0.79116  0.62792  1.0000
  H   H2199     1.0  0.95719  0.79291  0.44012  1.0000
  H   H2200     1.0  0.73446  0.91843  0.51749  1.0000
  C   C2198     1.0  0.79861  0.81412  0.51636  1.0000
  S   S742      1.0  0.91114  0.74502  0.61747  1.0000
  H   H2201     1.0  0.72836  0.82480  0.36580  1.0000
  Fe  Fe372     1.0  0.88673  0.75577  0.35122  1.0000
  H   H2202     1.0  0.76321  0.97556  0.46418  1.0000
  S   S743      1.0  0.89319  0.78244  0.33881  1.0000
  H   H2203     1.0  0.81923  0.77055  0.52322  1.0000
  C   C2199     1.0  0.76263  0.93470  0.46123  1.0000
  H   H2204     1.0  0.85285  0.80883  0.59706  1.0000
  C   C2200     1.0  0.75468  0.85684  0.56372  1.0000
  S   S744      1.0  0.97658  0.75019  0.38320  1.0000
  C   C2201     1.0  0.96354  0.75169  0.55281  1.0000
  N   N183      1.0  0.70794  0.83963  0.35191  1.0000
  N   N184      1.0  0.94387  0.78095  0.41000  1.0000
  Fe  Fe373     1.0  0.90589  0.74154  0.45936  1.0000
  C   C2202     1.0  0.80048  0.79578  0.52177  1.0000
  C   C2203     1.0  0.84923  0.79828  0.64128  1.0000
  H   H2205     1.0  0.80115  0.93074  0.31371  1.0000
  C   C2204     1.0  0.94730  0.75265  0.54902  1.0000
  C   C2205     1.0  0.93467  0.74426  0.56168  1.0000
  H   H2206     1.0  0.88337  0.74126  0.43895  1.0000
  H   H2207     1.0  0.97936  0.74181  0.57233  1.0000
  H   H2208     1.0  0.96150  0.80045  0.31680  1.0000
  C   C2206     1.0  0.81322  0.77832  0.63780  1.0000
  Fe  Fe374     1.0  0.75157  0.87992  0.64176  1.0000
  S   S745      1.0  0.72226  0.88699  0.64208  1.0000
  H   H2209     1.0  0.75127  0.79885  0.62174  1.0000
  S   S746      1.0  0.91254  0.74057  0.33755  1.0000
  C   C2207     1.0  0.87918  0.74472  0.41298  1.0000
  C   C2208     1.0  0.96683  0.74244  0.56936  1.0000
  C   C2209     1.0  0.74019  0.80221  0.63245  1.0000
  H   H2210     1.0  0.99233  0.80254  0.31533  1.0000
  H   H2211     1.0  0.82969  0.97452  0.45101  1.0000
  N   N185      1.0  0.86639  0.78930  0.64187  1.0000
  C   C2210     1.0  0.88718  0.74388  0.39542  1.0000
  C   C2211     1.0  0.79073  0.80575  0.63449  1.0000
  C   C2212     1.0  0.82700  0.98584  0.44038  1.0000
  C   C2213     1.0  0.99271  0.74588  0.43664  1.0000
  H   H2212     1.0  0.96068  0.73868  0.47383  1.0000
  H   H2213     1.0  0.98861  0.98562  0.55713  1.0000
  C   C2214     1.0  0.96837  0.73831  0.46054  1.0000
  Fe  Fe375     1.0  0.89869  0.73843  0.49906  1.0000
  C   C2215     1.0  0.90572  0.73824  0.39046  1.0000
  H   H2214     1.0  0.69536  0.81850  0.64151  1.0000
  H   H2215     1.0  0.99512  0.79967  0.62699  1.0000
  C   C2216     1.0  0.98793  0.73709  0.42662  1.0000
  H   H2216     1.0  0.91197  0.73739  0.37697  1.0000
  H   H2217     1.0  0.57365  0.78149  0.84084  1.0000
  S   S747      1.0  0.65318  0.96038  0.74052  1.0000
  C   C2217     1.0  0.57449  0.93609  0.79003  1.0000
  C   C2218     1.0  0.79088  0.80739  0.65115  1.0000
  S   S748      1.0  0.72058  0.96908  0.66603  1.0000
  S   S749      1.0  0.75191  0.85211  0.65728  1.0000
  C   C2219     1.0  0.65622  0.75514  0.80785  1.0000
  H   H2218     1.0  0.75700  0.79702  0.65055  1.0000
  N   N186      1.0  0.57419  0.73828  0.96748  1.0000
  H   H2219     1.0  0.86298  0.78796  0.66923  1.0000
  H   H2220     1.0  0.65757  0.76744  0.85693  1.0000
  H   H2221     1.0  0.71422  0.89370  0.68936  1.0000
  H   H2222     1.0  0.53774  0.96851  0.79564  1.0000
  S   S750      1.0  0.82884  0.76470  0.66621  1.0000
  C   C2220     1.0  0.72524  0.93590  0.66144  1.0000
  C   C2221     1.0  0.49786  0.88344  0.77425  1.0000
  C   C2222     1.0  0.51787  0.79132  0.93030  1.0000
  C   C2223     1.0  0.65209  0.77277  0.79900  1.0000
  H   H2223     1.0  0.80255  0.79586  0.67388  1.0000
  H   H2224     1.0  0.65502  0.74469  0.80257  1.0000
  H   H2225     1.0  0.55124  0.78821  0.90239  1.0000
  H   H2226     1.0  0.64121  0.93341  0.73316  1.0000
  H   H2227     1.0  0.60533  0.80645  0.95936  1.0000
  H   H2228     1.0  0.74368  0.79417  0.68277  1.0000
  H   H2229     1.0  0.62412  0.92894  0.79762  1.0000
  C   C2224     1.0  0.54132  0.76203  0.89643  1.0000
  C   C2225     1.0  0.94049  0.75940  0.65033  1.0000
  S   S751      1.0  0.53587  0.78471  0.94057  1.0000
  C   C2226     1.0  0.70521  0.89912  0.70029  1.0000
  C   C2227     1.0  0.64114  0.94465  0.75433  1.0000
  Fe  Fe376     1.0  0.61973  0.75751  0.87139  1.0000
  C   C2228     1.0  0.58826  0.75506  0.97754  1.0000
  S   S752      1.0  0.62002  0.78646  0.86070  1.0000
  C   C2229     1.0  0.51858  0.96645  0.84077  1.0000
  C   C2230     1.0  0.52515  0.97349  0.85101  1.0000
  C   C2231     1.0  0.62291  0.75072  0.93227  1.0000
  H   H2230     1.0  0.91894  0.75354  0.67232  1.0000
  H   H2231     1.0  0.86842  0.76704  0.66301  1.0000
  H   H2232     1.0  0.53426  0.75653  0.88995  1.0000
  H   H2233     1.0  0.70175  0.81691  0.67004  1.0000
  Fe  Fe377     1.0  0.57491  0.88144  0.76473  1.0000
  S   S753      1.0  0.58642  0.86842  0.78862  1.0000
  S   S754      1.0  0.54547  0.89489  0.76897  1.0000
  Fe  Fe378     1.0  0.61227  0.87779  0.73978  1.0000
  S   S755      1.0  0.62643  0.86436  0.76185  1.0000
  S   S756      1.0  0.62696  0.88739  0.71187  1.0000
  Fe  Fe379     1.0  0.60452  0.84923  0.77246  1.0000
  S   S757      1.0  0.60910  0.81965  0.78296  1.0000
  Fe  Fe380     1.0  0.60701  0.88476  0.77579  1.0000
  S   S758      1.0  0.59161  0.86114  0.74912  1.0000
  S   S759      1.0  0.59423  0.89928  0.75317  1.0000
  H   H2234     1.0  0.72883  0.90964  0.65799  1.0000
  C   C2232     1.0  0.63137  0.75656  0.95630  1.0000
  C   C2233     1.0  0.81356  0.78000  0.65436  1.0000
  H   H2235     1.0  0.68814  0.88096  0.70636  1.0000
  N   N187      1.0  0.55187  0.77405  0.88357  1.0000
  H   H2236     1.0  0.68082  0.76366  0.84555  1.0000
  S   S760      1.0  0.70495  0.84683  0.68076  1.0000
  C   C2234     1.0  0.57252  0.96693  0.79023  1.0000
  C   C2235     1.0  0.69644  0.92021  0.71880  1.0000
  H   H2237     1.0  0.64988  0.79984  0.79947  1.0000
  C   C2236     1.0  0.70822  0.91333  0.70478  1.0000
  Fe  Fe381     1.0  0.98133  0.74935  0.65276  1.0000
  C   C2237     1.0  0.63024  0.73944  0.96594  1.0000
  H   H2238     1.0  0.64746  0.77622  0.78686  1.0000
  C   C2238     1.0  0.55582  0.78693  0.88881  1.0000
  C   C2239     1.0  0.73539  0.91987  0.65714  1.0000
  H   H2239     1.0  0.63592  0.98062  0.71243  1.0000
  H   H2240     1.0  0.56604  0.75033  0.94319  1.0000
  C   C2240     1.0  0.66788  0.76004  0.84760  1.0000
  C   C2241     1.0  0.52419  0.89793  0.72497  1.0000
  C   C2242     1.0  0.75396  0.91709  0.65202  1.0000
  C   C2243     1.0  0.57195  0.79688  0.85932  1.0000
  C   C2244     1.0  0.57804  0.76705  0.95047  1.0000
  C   C2245     1.0  0.66347  0.89114  0.73355  1.0000
  C   C2246     1.0  0.87106  0.78057  0.65891  1.0000
  C   C2247     1.0  0.50170  0.82813  0.80261  1.0000
  H   H2241     1.0  0.65197  0.89817  0.72726  1.0000
  H   H2242     1.0  0.53857  0.91303  0.73160  1.0000
  N   N188      1.0  0.72967  0.80632  0.66213  1.0000
  H   H2243     1.0  0.77681  0.92812  0.64770  1.0000
  N   N189      1.0  0.56414  0.95243  0.79179  1.0000
  H   H2244     1.0  0.62642  0.90957  0.75272  1.0000
  C   C2248     1.0  0.56668  0.92223  0.79118  1.0000
  H   H2245     1.0  0.50739  0.76811  0.94390  1.0000
  C   C2249     1.0  0.50741  0.89519  0.72612  1.0000
  C   C2250     1.0  0.57218  0.75160  0.95297  1.0000
  C   C2251     1.0  0.74339  0.80131  0.64879  1.0000
  Fe  Fe382     1.0  0.52493  0.77824  0.96962  1.0000
  S   S761      1.0  0.59607  0.74803  0.89021  1.0000
  H   H2246     1.0  0.57959  0.80595  0.84981  1.0000
  N   N190      1.0  0.51041  0.92165  0.74014  1.0000
  H   H2247     1.0  0.53618  0.88929  0.71927  1.0000
  H   H2248     1.0  0.69850  0.93139  0.72232  1.0000
  C   C2252     1.0  0.64849  0.87583  0.70323  1.0000
  C   C2253     1.0  0.65811  0.88340  0.68681  1.0000
  C   C2254     1.0  0.67540  0.87463  0.67966  1.0000
  C   C2255     1.0  0.68314  0.85817  0.68891  1.0000
  C   C2256     1.0  0.67354  0.85061  0.70533  1.0000
  C   C2257     1.0  0.65628  0.85941  0.71249  1.0000
  H   H2249     1.0  0.65212  0.89609  0.67957  1.0000
  H   H2250     1.0  0.68267  0.88056  0.66699  1.0000
  H   H2251     1.0  0.67945  0.83789  0.71258  1.0000
  H   H2252     1.0  0.64895  0.85343  0.72511  1.0000
  C   C2258     1.0  0.61597  0.79594  0.83944  1.0000
  C   C2259     1.0  0.61196  0.78607  0.82999  1.0000
  C   C2260     1.0  0.60934  0.79368  0.81286  1.0000
  C   C2261     1.0  0.61060  0.81125  0.80508  1.0000
  C   C2262     1.0  0.61408  0.82132  0.81470  1.0000
  C   C2263     1.0  0.61682  0.81365  0.83184  1.0000
  H   H2253     1.0  0.61091  0.77256  0.83579  1.0000
  H   H2254     1.0  0.60658  0.78585  0.80549  1.0000
  H   H2255     1.0  0.61507  0.83490  0.80878  1.0000
  H   H2256     1.0  0.61975  0.82143  0.83913  1.0000
  H   H2257     1.0  0.61981  0.75529  0.91940  1.0000
  H   H2258     1.0  0.52177  0.95232  0.84176  1.0000
  N   N191      1.0  0.66252  0.76427  0.83080  1.0000
  H   H2259     1.0  0.52517  0.81567  0.91474  1.0000
  S   S762      1.0  0.62507  0.73869  0.85399  1.0000
  H   H2260     1.0  0.50902  0.83087  0.78903  1.0000
  C   C2264     1.0  0.62774  0.92998  0.78355  1.0000
  H   H2261     1.0  0.75881  0.95655  0.65537  1.0000
  H   H2262     1.0  0.62881  0.77529  0.93184  1.0000
  C   C2265     1.0  0.75224  0.94643  0.65568  1.0000
  H   H2263     1.0  0.54199  0.91454  0.79483  1.0000
  C   C2266     1.0  0.66163  0.75108  0.82375  1.0000
  C   C2267     1.0  0.63594  0.94361  0.77247  1.0000
  H   H2264     1.0  0.52335  0.94441  0.79759  1.0000
  C   C2268     1.0  0.65857  0.78157  0.82217  1.0000
  C   C2269     1.0  0.52545  0.91137  0.73201  1.0000
  H   H2265     1.0  0.57496  0.90926  0.78994  1.0000
  C   C2270     1.0  0.62909  0.91899  0.75827  1.0000
  H   H2266     1.0  0.59113  0.78046  0.96090  1.0000
  C   C2271     1.0  0.69045  0.89193  0.70998  1.0000
  Fe  Fe383     1.0  0.72303  0.85853  0.65581  1.0000
  H   H2267     1.0  0.57634  0.77757  0.93896  1.0000
  H   H2268     1.0  0.55597  0.76113  0.86268  1.0000
  H   H2269     1.0  0.57201  0.97631  0.77733  1.0000
  C   C2272     1.0  0.65348  0.78607  0.80607  1.0000
  H   H2270     1.0  0.58886  0.93366  0.78780  1.0000
  C   C2273     1.0  0.73363  0.80624  0.67872  1.0000
  C   C2274     1.0  0.56846  0.78327  0.85425  1.0000
  C   C2275     1.0  0.51592  0.80717  0.91767  1.0000
  H   H2271     1.0  0.65884  0.79204  0.82798  1.0000
  C   C2276     1.0  0.54819  0.92521  0.79392  1.0000
  C   C2277     1.0  0.62794  0.76207  0.93937  1.0000
  H   H2272     1.0  0.56555  0.97415  0.80093  1.0000
  H   H2273     1.0  0.65968  0.89229  0.74751  1.0000
  C   C2278     1.0  0.50257  0.86905  0.76624  1.0000
  C   C2279     1.0  0.52068  0.86155  0.76047  1.0000
  C   C2280     1.0  0.53405  0.86876  0.76214  1.0000
  C   C2281     1.0  0.52934  0.88363  0.76942  1.0000
  C   C2282     1.0  0.51123  0.89076  0.77574  1.0000
  S   S763      1.0  0.95325  0.76301  0.66283  1.0000
  H   H2274     1.0  0.52440  0.85039  0.75431  1.0000
  H   H2275     1.0  0.54797  0.86321  0.75719  1.0000
  H   H2276     1.0  0.50750  0.90225  0.78141  1.0000
  S   S764      1.0  0.63916  0.73983  0.88753  1.0000
  C   C2283     1.0  0.54598  0.95552  0.79437  1.0000
  C   C2284     1.0  0.61911  0.81232  0.97551  1.0000
  S   S765      1.0  0.63541  0.77196  0.96550  1.0000
  H   H2277     1.0  0.71964  0.91903  0.69742  1.0000
  H   H2278     1.0  0.63878  0.95295  0.77804  1.0000
  C   C2285     1.0  0.63750  0.93247  0.74722  1.0000
  C   C2286     1.0  0.58612  0.76876  0.96287  1.0000
  H   H2279     1.0  0.83924  0.79946  0.65335  1.0000
  H   H2280     1.0  0.66608  0.87686  0.73364  1.0000
  H   H2281     1.0  0.53086  0.76903  0.90591  1.0000
  H   H2282     1.0  0.51642  0.80118  0.80859  1.0000
  S   S766      1.0  0.61433  0.90048  0.79050  1.0000
  H   H2283     1.0  0.56899  0.80879  0.88090  1.0000
  C   C2287     1.0  0.62447  0.91755  0.77647  1.0000
  C   C2288     1.0  0.55842  0.77183  0.86666  1.0000
  H   H2284     1.0  0.52455  0.93165  0.75254  1.0000
  H   H2285     1.0  0.51168  0.94811  0.73775  1.0000
  C   C2289     1.0  0.60401  0.81063  0.97135  1.0000
  C   C2290     1.0  0.56584  0.79859  0.87675  1.0000
  C   C2291     1.0  0.73365  0.94920  0.66064  1.0000
  N   N192      1.0  0.67914  0.89855  0.72390  1.0000
  H   H2286     1.0  0.73889  0.81808  0.67709  1.0000
  C   C2292     1.0  0.53774  0.94196  0.79547  1.0000
  C   C2293     1.0  0.68190  0.91259  0.72828  1.0000
  H   H2287     1.0  0.67292  0.91797  0.73922  1.0000
  C   C2294     1.0  0.91489  0.75000  0.64839  1.0000
  H   H2288     1.0  0.66944  0.74573  0.85387  1.0000
  H   H2289     1.0  0.66476  0.73733  0.83058  1.0000
  C   C2295     1.0  0.50583  0.78042  0.93420  1.0000
  H   H2290     1.0  0.78233  0.81862  0.65630  1.0000
  C   C2296     1.0  0.80229  0.79449  0.66108  1.0000
  C   C2297     1.0  0.92410  0.75452  0.65833  1.0000
  C   C2298     1.0  0.50177  0.81222  0.90905  1.0000
  H   H2291     1.0  0.66822  0.96905  0.70170  1.0000
  H   H2292     1.0  0.50011  0.82459  0.89946  1.0000
  H   H2293     1.0  0.88536  0.77964  0.65825  1.0000
  C   C2299     1.0  0.50589  0.81154  0.81358  1.0000
  C   C2300     1.0  0.71258  0.81237  0.65966  1.0000
  H   H2294     1.0  0.63214  0.80930  0.96687  1.0000
  H   H2295     1.0  0.72146  0.80670  0.68953  1.0000
  H   H2296     1.0  0.71085  0.93800  0.66535  1.0000
  H   H2297     1.0  0.53346  0.96481  0.85983  1.0000
  C   C2301     1.0  0.66097  0.98028  0.69358  1.0000
  C   C2302     1.0  0.76240  0.93032  0.65145  1.0000
  Fe  Fe384     1.0  0.84759  0.74514  0.65063  1.0000
  H   H2298     1.0  0.68381  0.98328  0.67223  1.0000
  H   H2299     1.0  0.55014  0.75101  0.90375  1.0000
  H   H2300     1.0  0.50623  0.88433  0.72142  1.0000
  H   H2301     1.0  0.49889  0.79508  0.83915  1.0000
  C   C2303     1.0  0.50783  0.97767  0.82936  1.0000
  H   H2302     1.0  0.50081  0.93764  0.75923  1.0000
  S   S767      1.0  0.49893  0.96870  0.81730  1.0000
  C   C2304     1.0  0.51198  0.93546  0.74774  1.0000
  H   H2303     1.0  0.90261  0.74560  0.65471  1.0000
  H   H2304     1.0  0.58675  0.96213  0.79119  1.0000
  S   S768      1.0  0.76684  0.89740  0.64588  1.0000
