data_image0
_chemical_formula_structural       SFe2HS2HSCSC3FeHFeHSCNHC2FeS3HS2HSC2SHCH3CHC2FeSH3FeHSC2HSHC6H4C6H2C6H4NFeSCHCH2S2H3CH3C3H2C6H5CSCHCHSCNC8H2C4HC2HCSHFeCH5SCSHCSHCHSFeH2FeH4SNCH4CSCNH3C2H3C3HC5HNH3C2SHC4NC3HNSHCHFeHSCHCHCHFeH6CHCHCHFeCS3HNCFeS2FeSHCSH2NHSHC2H3SFeS2HSHFeSCHSCSC6H4SCHSC6H4C6H4C6H5C2SC7H4C3SCSCNCFe2NC2HC3H2NHFeSFeCNC6H8NC3H5C2HFeCH2C2HCHC5SCHCSHCHCHSCHFeSCFeSHCFeHC3Fe2H3CH2SHC2H3SHS2H8C2H3CHCHC2HCH3CFeCHCH3N2SHFeS2CFeCH2FeSNSCHNHCHCHFeS2CHFeSCHFeS2FeS2FeSFeS3C6H4C6H3C6H3NC6H4CHCHC2H3CH5CH2C6H4CHC5HC3HSHNCHC3SHSC2HSCH4SH2CSH2C2HC2HSCHC3H2SCHCHCSCHC2HCHCFeHCSH3CFeCNC5H2CH3NC3H5CH3SH2NH2SHSHFeHSHS2CSFeS2FeS2FeSFeS4FeS2NHFeSHSFeS2FeSHSFeS2H2FeS2HC6H6SCNCHC6H4C6H4C6H2C6H3FeC6H4C6H3CH3SNC6H9CHCHCH4C2NH6C2HCFeSHCH2CHNH3C2HCH2CHC3HCHC3SH2CNCFeHCHC2H2CH2C2H2CSFeCHS3HFeH2CFeH2FeH2C2HSC2FeC4H2C4H3CHCS2FeS2FeS2H2FeSHSHFeS2FeS2FeSFeS3FeS2NHNH2FeSHSHCSCSFeS2FeS2C6H4CHFeHC2HCH2C6H3C6H4C6H4C6H4C6H4C6H5C2H2CHCHCNH2C3NC2HC3H2SHFeH2CNH3C2HC3SH2C3HNC6H8NHCH2FeH5CSH3C2HCHC2HC3H2C3HCH3NC2FeHCSHNHCH2FeH2CS2H2FeS2HFeS4FeS2FeS2FeSFeS3FeS2FeSFeSC3FeS2FeCFeS3H5NFeC2H6NSHC7H7C6H4C6H4C2SH2C6H4C6H4C7H4C2H2CHCSCHCH3CH2CSHNC6H8CHSHCHFeCHNH2SHSCSH2NC4HNHCH2NC6H3C3HFeCHCNC4HC3HCHCH2CH2FeCH2CH3CH3C2SHCFeSH2CSCH2CHFeS2H2FeHCSFeS2HCH3FeSCSFeS2FeS2FeSFeS3CS3CFeS2C6H4NHC8H5CH2C6H2C7H5CH4C6H3C6H3C2HFeHC2NHC3HCSCSFeCNH2C2HNC6H8C2HCHC2HCSCHCH2CHNCHN2H2C4H2C2H3SFeH4S2CHCH2CH2CH4FeCSHCHS2H2C2FeHSH2CFeSHCFeS2FeSHS2HFeH2FeS2FeSH2SCFeHSHS2HFeS2FeS2FeSFeS3C3H2C6H4C6H4C2NCFeSC6H4C6H5C6H4C6H2SC3HFeH2CFeNHFeH2NC4H5C3H2C3FeHNC3HC4H4CH2CH2CSCHC2SC2HSCH2CH4C2NSH4CSH2SHCH2SCHSH3CH2FeH3CSHC2HFeSHC3NCSCHCHCNHC3H3NH2CHCH2FeH2C2SH3C2FeSCSFeSCSHCFeS2HS3HSFeS2FeSHSNS3FeSH2SHFeS2FeS2FeSFeS3CHFeCHC6H4C6H3FeC6H4C6H4C6HCH2C6H3C6H4C2H2CH2N2CFeC2HCS2FeH3NH2CH2C2HNC6H9Fe2CH3CNCFeH5C2NC6H9SNHC2HSHSH3C2HCH2C3HCH2CHCHCH5CHCH2CSC3NHCSH2CHCFeHSFeS2CH2FeCSHCNHS2CSHSFeS2FeS2FeSFeS3CHC2H3CH2C2H2FeHC7H4C6H4C2FeHC4H3CHC6H4C6H3C6HCH6CH2C2H4FeC2SHNHC2SNHCHCSC2N2C2HSCSHFeSCSCH3CH2CHNHC3HNSHCH2CHSH3CSHCHC2HSC2H3CHC2NCHSC2H2CHCH5CHFe2HCHCSHFeC2H2CHSH3C2HCHCSHCH2Fe2NHCFeS2FeSH2S2HSCS2CFeSFeSH2FeS2CFeSHSHCSHCSHFeSFeSH2SFeCHFeCHCHS2HCSCSHC2FeSH2C3H2C3H2CHCH2C3HC6H3C6H4CHC2NSC6H5SH2CH5CFeH2C2HSCH2C6H4CH3C7H5NCHC3HC2HC2FeHNH4C4HCNH3CFeHFeH3CHSHC2FeC2SC2HFeNC6H2C2H2CHSNCHCHSC2HCHCHC2HCH3CSFeC2HSCN2FeS2H2FeSHS2Fe2SCHFeS2H2FeSH2SCSCHFeC6H3NC3H2C6H4C6H4C2H2C6H4C6H4CFeC2HSC2HCHC2HSHS2HC2SFeC3H3SH2SNH3CHNH2CNH2CHCFeC2HFeNS2FeHSHFeHC3FeHSHCHSH2CHNC5HCH2CHC3HNHSCS2CSH5NCHCHCH2SCH4FeHC2HCSCHFeCHC2H5SH3C2SC2
_chemical_formula_sum              "S384 Fe192 H1152 C1152 N96"
_cell_length_a       64.738
_cell_length_b       65.7096
_cell_length_c       64.609
_cell_angle_alpha    80.1552
_cell_angle_beta     80.1757
_cell_angle_gamma    80.1138

_space_group_name_H-M_alt    "P 1"
_space_group_IT_number       1

loop_
  _space_group_symop_operation_xyz
  'x, y, z'

loop_
  _atom_site_type_symbol
  _atom_site_label
  _atom_site_symmetry_multiplicity
  _atom_site_fract_x
  _atom_site_fract_y
  _atom_site_fract_z
  _atom_site_occupancy
  S   S1        1.0  0.99771  0.36251  0.65475  1.0000
  Fe  Fe1       1.0  0.48139  0.14284  0.64312  1.0000
  Fe  Fe2       1.0  0.38826  0.00975  0.62049  1.0000
  H   H1        1.0  0.06889  0.28873  0.63575  1.0000
  S   S2        1.0  0.26703  0.38406  0.71691  1.0000
  S   S3        1.0  0.47960  0.06510  0.65476  1.0000
  H   H2        1.0  0.25639  0.05653  0.71455  1.0000
  S   S4        1.0  0.32790  0.37896  0.69461  1.0000
  C   C1        1.0  0.22737  0.19469  0.71927  1.0000
  S   S5        1.0  0.03263  0.39990  0.61308  1.0000
  C   C2        1.0  0.23001  0.29530  0.70670  1.0000
  C   C3        1.0  0.20727  0.42217  0.67825  1.0000
  C   C4        1.0  0.99762  0.20495  0.71828  1.0000
  Fe  Fe3       1.0  0.30057  0.38603  0.72010  1.0000
  H   H3        1.0  0.39225  0.33667  0.71186  1.0000
  Fe  Fe4       1.0  0.28208  0.11779  0.70278  1.0000
  H   H4        1.0  0.36586  0.09838  0.65231  1.0000
  S   S6        1.0  0.29084  0.11554  0.66774  1.0000
  C   C5        1.0  0.33509  0.07597  0.58948  1.0000
  N   N1        1.0  0.22046  0.33834  0.70596  1.0000
  H   H5        1.0  0.20869  0.40837  0.67079  1.0000
  C   C6        1.0  0.07423  0.38745  0.69464  1.0000
  C   C7        1.0  0.04787  0.47226  0.60430  1.0000
  Fe  Fe5       1.0  0.34089  0.01297  0.62178  1.0000
  S   S7        1.0  0.36086  0.01145  0.64710  1.0000
  S   S8        1.0  0.31035  0.03545  0.62160  1.0000
  S   S9        1.0  0.01499  0.34845  0.60755  1.0000
  H   H6        1.0  0.39162  0.16328  0.68948  1.0000
  S   S10       1.0  0.36782  0.01255  0.59471  1.0000
  S   S11       1.0  0.12602  0.46137  0.68428  1.0000
  H   H7        1.0  0.36059  0.38698  0.72029  1.0000
  S   S12       1.0  0.45393  0.16848  0.64829  1.0000
  C   C8        1.0  0.43335  0.14304  0.71486  1.0000
  C   C9        1.0  0.22016  0.42249  0.69365  1.0000
  S   S13       1.0  0.37538  0.28651  0.69325  1.0000
  H   H8        1.0  0.08334  0.37534  0.62203  1.0000
  C   C10       1.0  0.06234  0.43234  0.65640  1.0000
  H   H9        1.0  0.33336  0.11899  0.63936  1.0000
  H   H10       1.0  0.21818  0.36880  0.68829  1.0000
  H   H11       1.0  0.18917  0.33489  0.70215  1.0000
  C   C11       1.0  0.19099  0.45759  0.68191  1.0000
  H   H12       1.0  0.23346  0.27844  0.70728  1.0000
  C   C12       1.0  0.38947  0.35356  0.71345  1.0000
  C   C13       1.0  0.18618  0.21527  0.72998  1.0000
  Fe  Fe6       1.0  0.00426  0.33298  0.64040  1.0000
  S   S14       1.0  0.02124  0.30372  0.65781  1.0000
  H   H13       1.0  0.32601  0.01218  0.71839  1.0000
  H   H14       1.0  0.09502  0.28601  0.62015  1.0000
  H   H15       1.0  0.27193  0.03577  0.67050  1.0000
  Fe  Fe7       1.0  0.11938  0.29413  0.71850  1.0000
  H   H16       1.0  0.10448  0.41128  0.68918  1.0000
  S   S15       1.0  0.10042  0.31729  0.69604  1.0000
  C   C14       1.0  0.06998  0.32809  0.61962  1.0000
  C   C15       1.0  0.19258  0.43969  0.67242  1.0000
  H   H17       1.0  0.32221  0.24334  0.70887  1.0000
  S   S16       1.0  0.15246  0.30161  0.71425  1.0000
  H   H18       1.0  0.07755  0.38935  0.67703  1.0000
  C   C16       1.0  0.04140  0.30773  0.67123  1.0000
  C   C17       1.0  0.04689  0.32765  0.66961  1.0000
  C   C18       1.0  0.06431  0.33041  0.67850  1.0000
  C   C19       1.0  0.07655  0.31328  0.68890  1.0000
  C   C20       1.0  0.07065  0.29341  0.69132  1.0000
  C   C21       1.0  0.05304  0.29066  0.68249  1.0000
  H   H19       1.0  0.03831  0.34086  0.66075  1.0000
  H   H20       1.0  0.06884  0.34579  0.67649  1.0000
  H   H21       1.0  0.08005  0.28010  0.69932  1.0000
  H   H22       1.0  0.04887  0.27519  0.68381  1.0000
  C   C22       1.0  0.45279  0.18035  0.67097  1.0000
  C   C23       1.0  0.43616  0.19635  0.67563  1.0000
  C   C24       1.0  0.43418  0.20513  0.69435  1.0000
  C   C25       1.0  0.44871  0.19778  0.70862  1.0000
  C   C26       1.0  0.46565  0.18212  0.70372  1.0000
  C   C27       1.0  0.46771  0.17345  0.68491  1.0000
  H   H23       1.0  0.42468  0.20186  0.66481  1.0000
  H   H24       1.0  0.42128  0.21741  0.69780  1.0000
  C   C28       1.0  0.42794  0.04368  0.62579  1.0000
  C   C29       1.0  0.43532  0.06278  0.61735  1.0000
  C   C30       1.0  0.45028  0.07009  0.62668  1.0000
  C   C31       1.0  0.45835  0.05820  0.64443  1.0000
  C   C32       1.0  0.45058  0.03936  0.65321  1.0000
  C   C33       1.0  0.43537  0.03218  0.64404  1.0000
  H   H25       1.0  0.42966  0.07185  0.60326  1.0000
  H   H26       1.0  0.45607  0.08459  0.61971  1.0000
  H   H27       1.0  0.45670  0.03001  0.66694  1.0000
  H   H28       1.0  0.42991  0.01745  0.65073  1.0000
  N   N2        1.0  0.09415  0.38230  0.70355  1.0000
  Fe  Fe8       1.0  0.00690  0.37846  0.62173  1.0000
  S   S17       1.0  0.25104  0.11052  0.72136  1.0000
  C   C34       1.0  0.40217  0.16074  0.70133  1.0000
  H   H29       1.0  0.32744  0.28589  0.68758  1.0000
  C   C35       1.0  0.20116  0.22616  0.71644  1.0000
  H   H30       1.0  0.15361  0.47308  0.71532  1.0000
  H   H31       1.0  0.06384  0.37517  0.70013  1.0000
  S   S18       1.0  0.23430  0.44143  0.72271  1.0000
  S   S19       1.0  0.41774  0.26491  0.73163  1.0000
  H   H32       1.0  0.41935  0.14316  0.66763  1.0000
  H   H33       1.0  0.29851  0.00477  0.66458  1.0000
  H   H34       1.0  0.47158  0.04637  0.58524  1.0000
  C   C36       1.0  0.24560  0.30681  0.70872  1.0000
  H   H35       1.0  0.08640  0.43707  0.62936  1.0000
  H   H36       1.0  0.19765  0.29663  0.70239  1.0000
  H   H37       1.0  0.05747  0.35984  0.60778  1.0000
  C   C37       1.0  0.24058  0.32849  0.70807  1.0000
  C   C38       1.0  0.12726  0.39200  0.70750  1.0000
  C   C39       1.0  0.20974  0.30554  0.70404  1.0000
  H   H38       1.0  0.31748  0.07910  0.59180  1.0000
  H   H39       1.0  0.35394  0.30847  0.72861  1.0000
  C   C40       1.0  0.29454  0.09138  0.65831  1.0000
  C   C41       1.0  0.28267  0.08934  0.64281  1.0000
  C   C42       1.0  0.28739  0.07180  0.63229  1.0000
  C   C43       1.0  0.30455  0.05639  0.63653  1.0000
  C   C44       1.0  0.31644  0.05823  0.65220  1.0000
  C   C45       1.0  0.31121  0.07556  0.66333  1.0000
  H   H40       1.0  0.27001  0.10164  0.63859  1.0000
  H   H41       1.0  0.27808  0.07052  0.62028  1.0000
  H   H42       1.0  0.32967  0.04646  0.65569  1.0000
  H   H43       1.0  0.32077  0.07726  0.67497  1.0000
  H   H44       1.0  0.11065  0.35201  0.64160  1.0000
  C   C46       1.0  0.03168  0.46695  0.62067  1.0000
  S   S20       1.0  0.41064  0.03452  0.61198  1.0000
  C   C47       1.0  0.26861  0.06010  0.70065  1.0000
  H   H45       1.0  0.11119  0.31380  0.64699  1.0000
  C   C48       1.0  0.08402  0.35849  0.62423  1.0000
  H   H46       1.0  0.07031  0.41913  0.60651  1.0000
  S   S21       1.0  0.07281  0.44551  0.67327  1.0000
  C   C49       1.0  0.09931  0.34545  0.63510  1.0000
  N   N3        1.0  0.08477  0.31543  0.63065  1.0000
  C   C50       1.0  0.34051  0.35301  0.69509  1.0000
  C   C51       1.0  0.34170  0.33924  0.71412  1.0000
  C   C52       1.0  0.35310  0.31897  0.71392  1.0000
  C   C53       1.0  0.36265  0.31224  0.69462  1.0000
  C   C54       1.0  0.36122  0.32598  0.67568  1.0000
  C   C55       1.0  0.35051  0.34637  0.67595  1.0000
  C   C56       1.0  0.21556  0.36109  0.70502  1.0000
  C   C57       1.0  0.29888  0.03482  0.71085  1.0000
  H   H47       1.0  0.36855  0.32090  0.66070  1.0000
  H   H48       1.0  0.34981  0.35698  0.66120  1.0000
  C   C58       1.0  0.04367  0.42352  0.66420  1.0000
  C   C59       1.0  0.03471  0.41300  0.65141  1.0000
  C   C60       1.0  0.04415  0.41145  0.63048  1.0000
  C   C61       1.0  0.06290  0.42016  0.62271  1.0000
  H   H49       1.0  0.03590  0.42501  0.68020  1.0000
  C   C62       1.0  0.21868  0.44048  0.70303  1.0000
  C   C63       1.0  0.20418  0.45808  0.69693  1.0000
  H   H50       1.0  0.36938  0.05708  0.60669  1.0000
  C   C64       1.0  0.06938  0.34978  0.61627  1.0000
  S   S22       1.0  0.17640  0.43895  0.65324  1.0000
  H   H51       1.0  0.34143  0.08470  0.57410  1.0000
  Fe  Fe9       1.0  0.14764  0.46380  0.65325  1.0000
  C   C65       1.0  0.39726  0.17259  0.71803  1.0000
  H   H52       1.0  0.40493  0.35896  0.71279  1.0000
  H   H53       1.0  0.23335  0.22412  0.70040  1.0000
  H   H54       1.0  0.23134  0.40893  0.69808  1.0000
  H   H55       1.0  0.31929  0.10828  0.61034  1.0000
  H   H56       1.0  0.09176  0.28531  0.64867  1.0000
  S   S23       1.0  0.44543  0.20702  0.73318  1.0000
  C   C66       1.0  0.48405  0.05483  0.58697  1.0000
  S   S24       1.0  0.29272  0.41733  0.73140  1.0000
  H   H57       1.0  0.05823  0.32146  0.61379  1.0000
  C   C67       1.0  0.31390  0.00621  0.69130  1.0000
  S   S25       1.0  0.28011  0.14808  0.71544  1.0000
  H   H58       1.0  0.27664  0.07274  0.70368  1.0000
  C   C68       1.0  0.11764  0.35866  0.72472  1.0000
  H   H59       1.0  0.25267  0.33733  0.70996  1.0000
  S   S26       1.0  0.19448  0.25279  0.70664  1.0000
  Fe  Fe10      1.0  0.16280  0.26730  0.72236  1.0000
  H   H60       1.0  0.13831  0.40327  0.70396  1.0000
  H   H61       1.0  0.06534  0.40233  0.69953  1.0000
  Fe  Fe11      1.0  0.10009  0.46497  0.66409  1.0000
  H   H62       1.0  0.32577  0.99266  0.68868  1.0000
  H   H63       1.0  0.00969  0.23223  0.72290  1.0000
  H   H64       1.0  0.14659  0.36933  0.72731  1.0000
  H   H65       1.0  0.47696  0.17636  0.71467  1.0000
  S   S27       1.0  0.48185  0.12069  0.62003  1.0000
  N   N4        1.0  0.32173  0.27200  0.71998  1.0000
  C   C69       1.0  0.33271  0.25144  0.71550  1.0000
  H   H66       1.0  0.33428  0.34427  0.72901  1.0000
  H   H67       1.0  0.26071  0.06643  0.68643  1.0000
  H   H68       1.0  0.02021  0.40654  0.65759  1.0000
  H   H69       1.0  0.16656  0.44938  0.72903  1.0000
  C   C70       1.0  0.22173  0.21579  0.71096  1.0000
  S   S28       1.0  0.12184  0.46535  0.63317  1.0000
  C   C71       1.0  0.09871  0.36357  0.71609  1.0000
  N   N5        1.0  0.28407  0.04140  0.69742  1.0000
  H   H70       1.0  0.33942  0.05893  0.58887  1.0000
  H   H71       1.0  0.29908  0.04340  0.72377  1.0000
  H   H72       1.0  0.24333  0.18687  0.71527  1.0000
  C   C72       1.0  0.07202  0.43043  0.63560  1.0000
  C   C73       1.0  0.20515  0.32717  0.70378  1.0000
  H   H73       1.0  0.44231  0.12949  0.67805  1.0000
  H   H74       1.0  0.38188  0.36190  0.69954  1.0000
  H   H75       1.0  0.19887  0.36581  0.71206  1.0000
  C   C74       1.0  0.48654  0.07372  0.57369  1.0000
  C   C75       1.0  0.35976  0.09394  0.63936  1.0000
  C   C76       1.0  0.34165  0.10561  0.63198  1.0000
  H   H76       1.0  0.38394  0.06721  0.63571  1.0000
  C   C77       1.0  0.08521  0.29274  0.63389  1.0000
  C   C78       1.0  0.99649  0.18382  0.72568  1.0000
  C   C79       1.0  0.42493  0.13397  0.68228  1.0000
  C   C80       1.0  0.15497  0.46371  0.73120  1.0000
  C   C81       1.0  0.10814  0.39643  0.69914  1.0000
  H   H77       1.0  0.48068  0.16126  0.68133  1.0000
  N   N6        1.0  0.42020  0.14642  0.69975  1.0000
  H   H78       1.0  0.41732  0.11963  0.68681  1.0000
  H   H79       1.0  0.22566  0.36694  0.71433  1.0000
  H   H80       1.0  0.26134  0.29898  0.71112  1.0000
  C   C82       1.0  0.09957  0.32380  0.63804  1.0000
  C   C83       1.0  0.30027  0.31096  0.72789  1.0000
  S   S29       1.0  0.30136  0.09872  0.72669  1.0000
  H   H81       1.0  0.02108  0.45651  0.61868  1.0000
  C   C84       1.0  0.42887  0.15456  0.73183  1.0000
  C   C85       1.0  0.31406  0.01720  0.70794  1.0000
  C   C86       1.0  0.29851  0.01286  0.67790  1.0000
  C   C87       1.0  0.13195  0.37300  0.72047  1.0000
  N   N7        1.0  0.34345  0.08200  0.60689  1.0000
  C   C88       1.0  0.36145  0.07071  0.61376  1.0000
  C   C89       1.0  0.33369  0.09940  0.61559  1.0000
  C   C90       1.0  0.36980  0.07642  0.63016  1.0000
  H   H82       1.0  0.44769  0.13175  0.71357  1.0000
  N   N8        1.0  0.37589  0.35730  0.73346  1.0000
  S   S30       1.0  0.13023  0.25926  0.72305  1.0000
  H   H83       1.0  0.30848  0.32070  0.69430  1.0000
  C   C91       1.0  0.30907  0.30776  0.70723  1.0000
  H   H84       1.0  0.46778  0.25779  0.72691  1.0000
  Fe  Fe12      1.0  0.38536  0.26704  0.72296  1.0000
  H   H85       1.0  0.38317  0.18422  0.71903  1.0000
  S   S31       1.0  0.38573  0.23236  0.72815  1.0000
  C   C92       1.0  0.31986  0.28806  0.70355  1.0000
  H   H86       1.0  0.04944  0.46593  0.58958  1.0000
  C   C93       1.0  0.28350  0.03047  0.68133  1.0000
  H   H87       1.0  0.29257  0.32636  0.73107  1.0000
  C   C94       1.0  0.41077  0.16950  0.73331  1.0000
  H   H88       1.0  0.48868  0.21624  0.70677  1.0000
  Fe  Fe13      1.0  0.25870  0.41351  0.73171  1.0000
  H   H89       1.0  0.34745  0.25305  0.70401  1.0000
  H   H90       1.0  0.01791  0.46978  0.65306  1.0000
  H   H91       1.0  0.17996  0.47126  0.67723  1.0000
  H   H92       1.0  0.33751  0.24143  0.73006  1.0000
  H   H93       1.0  0.47816  0.02338  0.61682  1.0000
  H   H94       1.0  0.20328  0.47226  0.70363  1.0000
  C   C95       1.0  0.00889  0.21577  0.72826  1.0000
  H   H95       1.0  0.47615  0.07981  0.56184  1.0000
  C   C96       1.0  0.02989  0.47440  0.63997  1.0000
  H   H96       1.0  0.08776  0.35223  0.71949  1.0000
  C   C97       1.0  0.21237  0.18386  0.73291  1.0000
  H   H97       1.0  0.98996  0.32259  0.69292  1.0000
  Fe  Fe14      1.0  0.36368  0.46445  0.87710  1.0000
  C   C98       1.0  0.32781  0.42391  0.81135  1.0000
  S   S32       1.0  0.37804  0.43370  0.89492  1.0000
  S   S33       1.0  0.40168  0.23265  0.77432  1.0000
  S   S34       1.0  0.33907  0.46512  0.85630  1.0000
  H   H98       1.0  0.21585  0.36791  0.75890  1.0000
  N   N9        1.0  0.16150  0.47633  0.74490  1.0000
  C   C99       1.0  0.43231  0.40466  0.82318  1.0000
  Fe  Fe15      1.0  0.17732  0.00885  0.83705  1.0000
  S   S35       1.0  0.16632  0.01013  0.80598  1.0000
  S   S36       1.0  0.19732  0.03363  0.83845  1.0000
  Fe  Fe16      1.0  0.13445  0.00651  0.82509  1.0000
  S   S37       1.0  0.10670  0.02833  0.81184  1.0000
  H   H99       1.0  0.44706  0.39390  0.82183  1.0000
  C   C100      1.0  0.31304  0.17703  0.75857  1.0000
  S   S38       1.0  0.14498  0.00703  0.85629  1.0000
  H   H100      1.0  0.27719  0.44415  0.78511  1.0000
  H   H101      1.0  0.32343  0.41254  0.82493  1.0000
  N   N10       1.0  0.00606  0.17383  0.74273  1.0000
  H   H102      1.0  0.17790  0.36543  0.75924  1.0000
  S   S39       1.0  0.47119  0.39172  0.86018  1.0000
  H   H103      1.0  0.23032  0.21130  0.75940  1.0000
  C   C101      1.0  0.22619  0.33503  0.75847  1.0000
  C   C102      1.0  0.36523  0.34635  0.77066  1.0000
  H   H104      1.0  0.41470  0.38207  0.84325  1.0000
  H   H105      1.0  0.25744  0.97967  0.78218  1.0000
  H   H106      1.0  0.02758  0.21362  0.75341  1.0000
  S   S40       1.0  0.41035  0.29366  0.77858  1.0000
  Fe  Fe17      1.0  0.02304  0.12930  0.84184  1.0000
  S   S41       1.0  0.02126  0.15973  0.85446  1.0000
  S   S42       1.0  0.04797  0.10317  0.85463  1.0000
  H   H107      1.0  0.34387  0.46480  0.76320  1.0000
  S   S43       1.0  0.15626  0.33121  0.75788  1.0000
  H   H108      1.0  0.32182  0.43833  0.75945  1.0000
  Fe  Fe18      1.0  0.01652  0.17527  0.82142  1.0000
  S   S44       1.0  0.02706  0.20352  0.79908  1.0000
  C   C103      1.0  0.19172  0.19416  0.73799  1.0000
  H   H109      1.0  0.34114  0.36784  0.78661  1.0000
  S   S45       1.0  0.02052  0.14503  0.80833  1.0000
  C   C104      1.0  0.27729  0.02956  0.81417  1.0000
  S   S46       1.0  0.11624  0.23657  0.78411  1.0000
  C   C105      1.0  0.05210  0.21220  0.79512  1.0000
  C   C106      1.0  0.06832  0.20220  0.80668  1.0000
  C   C107      1.0  0.08790  0.20982  0.80309  1.0000
  C   C108      1.0  0.09151  0.22733  0.78778  1.0000
  C   C109      1.0  0.07535  0.23719  0.77608  1.0000
  C   C110      1.0  0.05572  0.22971  0.77984  1.0000
  H   H110      1.0  0.06572  0.18877  0.81853  1.0000
  H   H111      1.0  0.10027  0.20218  0.81228  1.0000
  H   H112      1.0  0.07789  0.25075  0.76438  1.0000
  H   H113      1.0  0.04321  0.23772  0.77099  1.0000
  S   S47       1.0  0.30478  0.40458  0.79106  1.0000
  C   C111      1.0  0.00478  0.15166  0.75023  1.0000
  H   H114      1.0  0.26790  0.04172  0.82342  1.0000
  S   S48       1.0  0.36848  0.27180  0.75519  1.0000
  C   C112      1.0  0.45688  0.28891  0.82636  1.0000
  C   C113      1.0  0.44953  0.27088  0.82318  1.0000
  C   C114      1.0  0.43559  0.27197  0.80834  1.0000
  C   C115      1.0  0.42878  0.29116  0.79660  1.0000
  C   C116      1.0  0.43634  0.30913  0.79958  1.0000
  C   C117      1.0  0.45041  0.30801  0.81429  1.0000
  H   H115      1.0  0.45427  0.25608  0.83262  1.0000
  H   H116      1.0  0.42951  0.25814  0.80654  1.0000
  H   H117      1.0  0.43109  0.32405  0.79064  1.0000
  H   H118      1.0  0.45586  0.32200  0.81660  1.0000
  C   C118      1.0  0.08971  0.04838  0.82438  1.0000
  C   C119      1.0  0.09031  0.05078  0.84536  1.0000
  C   C120      1.0  0.07704  0.06733  0.85446  1.0000
  C   C121      1.0  0.06322  0.08185  0.84267  1.0000
  C   C122      1.0  0.06253  0.07941  0.82172  1.0000
  C   C123      1.0  0.07564  0.06270  0.81269  1.0000
  H   H119      1.0  0.10096  0.03986  0.85460  1.0000
  H   H120      1.0  0.07767  0.06900  0.87070  1.0000
  H   H121      1.0  0.05194  0.09037  0.81246  1.0000
  H   H122      1.0  0.07494  0.06091  0.79650  1.0000
  C   C124      1.0  0.21306  0.04302  0.81466  1.0000
  C   C125      1.0  0.22307  0.06054  0.81387  1.0000
  C   C126      1.0  0.23748  0.06694  0.79594  1.0000
  C   C127      1.0  0.24231  0.05555  0.77887  1.0000
  C   C128      1.0  0.23174  0.03849  0.77936  1.0000
  C   C129      1.0  0.21706  0.03235  0.79708  1.0000
  H   H123      1.0  0.22008  0.06891  0.82737  1.0000
  H   H124      1.0  0.24562  0.08005  0.79579  1.0000
  H   H125      1.0  0.23540  0.02955  0.76627  1.0000
  H   H126      1.0  0.20970  0.01870  0.79751  1.0000
  H   H127      1.0  0.02498  0.17645  0.76597  1.0000
  C   C130      1.0  0.43170  0.42537  0.81343  1.0000
  C   C131      1.0  0.27356  0.45921  0.77553  1.0000
  S   S49       1.0  0.33966  0.22399  0.77266  1.0000
  C   C132      1.0  0.35092  0.16601  0.75501  1.0000
  C   C133      1.0  0.40410  0.42189  0.88576  1.0000
  C   C134      1.0  0.41013  0.40021  0.89089  1.0000
  C   C135      1.0  0.43062  0.39050  0.88331  1.0000
  C   C136      1.0  0.44537  0.40255  0.87091  1.0000
  C   C137      1.0  0.43946  0.42422  0.86630  1.0000
  C   C138      1.0  0.41898  0.43379  0.87350  1.0000
  H   H128      1.0  0.39884  0.39084  0.90057  1.0000
  H   H129      1.0  0.43499  0.37379  0.88710  1.0000
  H   H130      1.0  0.45078  0.43370  0.85684  1.0000
  H   H131      1.0  0.41495  0.45046  0.86978  1.0000
  C   C139      1.0  0.32089  0.42366  0.79202  1.0000
  C   C140      1.0  0.34590  0.45391  0.79633  1.0000
  C   C141      1.0  0.33940  0.45340  0.77671  1.0000
  S   S50       1.0  0.15960  0.26860  0.75709  1.0000
  C   C142      1.0  0.48361  0.21416  0.77185  1.0000
  S   S51       1.0  0.48436  0.32884  0.88106  1.0000
  C   C143      1.0  0.22828  0.19986  0.77415  1.0000
  N   N11       1.0  0.00769  0.13705  0.91389  1.0000
  C   C144      1.0  0.01890  0.20537  0.74538  1.0000
  Fe  Fe19      1.0  0.41644  0.23063  0.74036  1.0000
  Fe  Fe20      1.0  0.40104  0.26745  0.76472  1.0000
  N   N12       1.0  0.26486  0.01291  0.81405  1.0000
  C   C145      1.0  0.26766  0.00293  0.79662  1.0000
  C   C146      1.0  0.25098  0.00701  0.83166  1.0000
  H   H132      1.0  0.45114  0.26042  0.76399  1.0000
  C   C147      1.0  0.46312  0.24723  0.76046  1.0000
  C   C148      1.0  0.18959  0.35154  0.75881  1.0000
  C   C149      1.0  0.18321  0.33227  0.75835  1.0000
  H   H133      1.0  0.27853  0.00773  0.78259  1.0000
  H   H134      1.0  0.25331  0.44835  0.75786  1.0000
  N   N13       1.0  0.20570  0.19946  0.78200  1.0000
  H   H135      1.0  0.36958  0.18813  0.76105  1.0000
  Fe  Fe21      1.0  0.14700  0.30244  0.74908  1.0000
  S   S52       1.0  0.32777  0.13700  0.74856  1.0000
  Fe  Fe22      1.0  0.27011  0.09326  0.74646  1.0000
  C   C150      1.0  0.21105  0.35297  0.75868  1.0000
  N   N14       1.0  0.13308  0.07391  0.80991  1.0000
  C   C151      1.0  0.14797  0.06440  0.82253  1.0000
  C   C152      1.0  0.11721  0.08889  0.81686  1.0000
  C   C153      1.0  0.14667  0.06914  0.84304  1.0000
  C   C154      1.0  0.11550  0.09413  0.83724  1.0000
  C   C155      1.0  0.13023  0.08402  0.85046  1.0000
  C   C156      1.0  0.13465  0.06868  0.78848  1.0000
  H   H136      1.0  0.16087  0.05292  0.81687  1.0000
  H   H137      1.0  0.10535  0.09640  0.80690  1.0000
  H   H138      1.0  0.15831  0.06117  0.85311  1.0000
  H   H139      1.0  0.10237  0.10544  0.84295  1.0000
  H   H140      1.0  0.12883  0.08758  0.86647  1.0000
  H   H141      1.0  0.11863  0.06983  0.78392  1.0000
  H   H142      1.0  0.14411  0.07925  0.77687  1.0000
  H   H143      1.0  0.14214  0.05221  0.78775  1.0000
  N   N15       1.0  0.39567  0.41191  0.83819  1.0000
  C   C157      1.0  0.39489  0.43215  0.82844  1.0000
  C   C158      1.0  0.34025  0.43876  0.81345  1.0000
  C   C159      1.0  0.37649  0.40480  0.85084  1.0000
  H   H144      1.0  0.38041  0.44306  0.83048  1.0000
  H   H145      1.0  0.36667  0.41749  0.85910  1.0000
  H   H146      1.0  0.36689  0.39985  0.84040  1.0000
  H   H147      1.0  0.38047  0.39164  0.86348  1.0000
  H   H148      1.0  0.31414  0.26210  0.75330  1.0000
  C   C160      1.0  0.19836  0.31435  0.75807  1.0000
  C   C161      1.0  0.35107  0.36488  0.77176  1.0000
  H   H149      1.0  0.14586  0.19901  0.80160  1.0000
  Fe  Fe23      1.0  0.25086  0.13879  0.73660  1.0000
  C   C162      1.0  0.26009  0.46160  0.76029  1.0000
  H   H150      1.0  0.19357  0.29942  0.75785  1.0000
  H   H151      1.0  0.15974  0.23248  0.78992  1.0000
  C   C163      1.0  0.46863  0.23130  0.77669  1.0000
  C   C164      1.0  0.19215  0.21788  0.78236  1.0000
  H   H152      1.0  0.01892  0.14186  0.74289  1.0000
  C   C165      1.0  0.32690  0.43838  0.77454  1.0000
  H   H153      1.0  0.34564  0.43809  0.82836  1.0000
  C   C166      1.0  0.41398  0.39811  0.83544  1.0000
  C   C167      1.0  0.17671  0.18032  0.79640  1.0000
  C   C168      1.0  0.28240  0.47629  0.77836  1.0000
  C   C169      1.0  0.16275  0.19903  0.79650  1.0000
  C   C170      1.0  0.30192  0.29442  0.74451  1.0000
  S   S53       1.0  0.36167  0.47293  0.79893  1.0000
  C   C171      1.0  0.17054  0.21792  0.78973  1.0000
  H   H154      1.0  0.17083  0.16551  0.80140  1.0000
  C   C172      1.0  0.41282  0.43920  0.81591  1.0000
  S   S54       1.0  0.26809  0.12102  0.76324  1.0000
  H   H155      1.0  0.48775  0.20147  0.78425  1.0000
  C   C173      1.0  0.21975  0.31570  0.75841  1.0000
  H   H156      1.0  0.01475  0.16139  0.92831  1.0000
  C   C174      1.0  0.01630  0.15658  0.91238  1.0000
  H   H157      1.0  0.44589  0.43072  0.80417  1.0000
  S   S55       1.0  0.11313  0.29675  0.75333  1.0000
  C   C175      1.0  0.33052  0.16179  0.75424  1.0000
  H   H158      1.0  0.30236  0.20758  0.76797  1.0000
  Fe  Fe24      1.0  0.26512  0.36768  0.75044  1.0000
  S   S56       1.0  0.25340  0.33629  0.75711  1.0000
  C   C176      1.0  0.35388  0.18523  0.76006  1.0000
  Fe  Fe25      1.0  0.37069  0.23680  0.76120  1.0000
  S   S57       1.0  0.26377  0.05997  0.75850  1.0000
  H   H159      1.0  0.29193  0.02296  0.82122  1.0000
  C   C177      1.0  0.01761  0.12226  0.90151  1.0000
  Fe  Fe26      1.0  0.12619  0.26239  0.75782  1.0000
  H   H160      1.0  0.23137  0.30175  0.75837  1.0000
  C   C178      1.0  0.33641  0.20026  0.76487  1.0000
  C   C179      1.0  0.23898  0.99118  0.83188  1.0000
  C   C180      1.0  0.31598  0.19610  0.76411  1.0000
  Fe  Fe27      1.0  0.28954  0.39872  0.76385  1.0000
  Fe  Fe28      1.0  0.29755  0.12850  0.74089  1.0000
  H   H161      1.0  0.20902  0.16621  0.78896  1.0000
  H   H162      1.0  0.17997  0.18583  0.74835  1.0000
  H   H163      1.0  0.38869  0.32842  0.75062  1.0000
  C   C181      1.0  0.19832  0.18084  0.78932  1.0000
  H   H164      1.0  0.41197  0.45533  0.80830  1.0000
  H   H165      1.0  0.23622  0.20406  0.78643  1.0000
  S   S58       1.0  0.25472  0.39699  0.76540  1.0000
  H   H166      1.0  0.29503  0.29684  0.76062  1.0000
  C   C182      1.0  0.34960  0.37964  0.75358  1.0000
  C   C183      1.0  0.01736  0.18427  0.75243  1.0000
  H   H167      1.0  0.40751  0.17897  0.74604  1.0000
  H   H168      1.0  0.23636  0.18445  0.76987  1.0000
  H   H169      1.0  0.19794  0.23266  0.77655  1.0000
  S   S59       1.0  0.29942  0.36757  0.75247  1.0000
  H   H170      1.0  0.00745  0.16917  0.90205  1.0000
  S   S60       1.0  0.21908  0.15811  0.74548  1.0000
  S   S61       1.0  0.47406  0.28678  0.84554  1.0000
  H   H171      1.0  0.46101  0.23206  0.79291  1.0000
  H   H172      1.0  0.28170  0.03770  0.79782  1.0000
  H   H173      1.0  0.24849  0.01508  0.84540  1.0000
  H   H174      1.0  0.29726  0.17390  0.75815  1.0000
  H   H175      1.0  0.03336  0.15501  0.90554  1.0000
  H   H176      1.0  0.36661  0.33471  0.78467  1.0000
  H   H177      1.0  0.00381  0.14826  0.76779  1.0000
  H   H178      1.0  0.03217  0.12458  0.89086  1.0000
  C   C184      1.0  0.24127  0.98129  0.81397  1.0000
  C   C185      1.0  0.00897  0.10404  0.90207  1.0000
  H   H179      1.0  0.36445  0.15418  0.75201  1.0000
  H   H180      1.0  0.01677  0.09253  0.89193  1.0000
  H   H181      1.0  0.33856  0.39405  0.75429  1.0000
  C   C186      1.0  0.31274  0.27487  0.74025  1.0000
  H   H182      1.0  0.19364  0.46134  0.74191  1.0000
  C   C187      1.0  0.25579  0.98709  0.79625  1.0000
  H   H183      1.0  0.22749  0.98715  0.84566  1.0000
  C   C188      1.0  0.18212  0.47348  0.74846  1.0000
  C   C189      1.0  0.99006  0.10100  0.91541  1.0000
  H   H184      1.0  0.37278  0.46009  0.93144  1.0000
  C   C190      1.0  0.37768  0.34285  0.75129  1.0000
  H   H185      1.0  0.29302  0.47460  0.79009  1.0000
  H   H186      1.0  0.39756  0.47094  0.89937  1.0000
  H   H187      1.0  0.43970  0.15243  0.74337  1.0000
  C   C191      1.0  0.37988  0.47416  0.93032  1.0000
  Fe  Fe29      1.0  0.48803  0.35849  0.85830  1.0000
  C   C192      1.0  0.47269  0.24572  0.73953  1.0000
  H   H188      1.0  0.13931  0.45887  0.73804  1.0000
  C   C193      1.0  0.36218  0.37558  0.73444  1.0000
  H   H189      1.0  0.17025  0.22308  0.73419  1.0000
  H   H190      1.0  0.12113  0.34380  0.73468  1.0000
  H   H191      1.0  0.99020  0.14713  0.74650  1.0000
  N   N16       1.0  0.48752  0.22895  0.73496  1.0000
  N   N17       1.0  0.12352  0.85408  0.07551  1.0000
  S   S62       1.0  0.46449  0.71654  0.22205  1.0000
  H   H192      1.0  0.06582  0.76378  0.19321  1.0000
  Fe  Fe30      1.0  0.01151  0.82434  0.17707  1.0000
  S   S63       1.0  0.02124  0.79780  0.15830  1.0000
  S   S64       1.0  0.01962  0.81852  0.21046  1.0000
  C   C194      1.0  0.06107  0.79349  0.04765  1.0000
  Fe  Fe31      1.0  0.39037  0.62003  0.99883  1.0000
  C   C195      1.0  0.05040  0.78699  0.06781  1.0000
  H   H193      1.0  0.47892  0.75021  0.16429  1.0000
  H   H194      1.0  0.37092  0.69816  0.10718  1.0000
  Fe  Fe32      1.0  0.02878  0.82254  0.13056  1.0000
  S   S65       1.0  0.06044  0.81253  0.11068  1.0000
  N   N18       1.0  0.05370  0.81187  0.03592  1.0000
  S   S66       1.0  0.02092  0.84906  0.14991  1.0000
  C   C196      1.0  0.03004  0.76439  0.21880  1.0000
  H   H195      1.0  0.21723  0.74103  0.04751  1.0000
  N   N19       1.0  0.04923  0.75442  0.22398  1.0000
  H   H196      1.0  0.40201  0.68927  0.07986  1.0000
  C   C197      1.0  0.26672  0.74911  0.02601  1.0000
  H   H197      1.0  0.41947  0.72676  0.17732  1.0000
  C   C198      1.0  0.22532  0.75981  0.01756  1.0000
  H   H198      1.0  0.41291  0.71503  0.13782  1.0000
  Fe  Fe33      1.0  0.13438  0.84087  0.00415  1.0000
  S   S67       1.0  0.16144  0.85394  0.01201  1.0000
  S   S68       1.0  0.10073  0.85206  0.01899  1.0000
  C   C199      1.0  0.31559  0.73820  0.22758  1.0000
  H   H199      1.0  0.26899  0.73187  0.06548  1.0000
  Fe  Fe34      1.0  0.17807  0.82077  0.01437  1.0000
  S   S69       1.0  0.18789  0.80379  0.04575  1.0000
  C   C200      1.0  0.12085  0.87297  0.05986  1.0000
  H   H200      1.0  0.28290  0.74535  0.02944  1.0000
  Fe  Fe35      1.0  0.28548  0.74909  0.10079  1.0000
  S   S70       1.0  0.26253  0.72679  0.11543  1.0000
  S   S71       1.0  0.28008  0.77199  0.07086  1.0000
  Fe  Fe36      1.0  0.31767  0.72942  0.13177  1.0000
  S   S72       1.0  0.29687  0.70573  0.14805  1.0000
  S   S73       1.0  0.34996  0.72446  0.14287  1.0000
  Fe  Fe37      1.0  0.29178  0.70261  0.11524  1.0000
  S   S74       1.0  0.29593  0.67084  0.10492  1.0000
  Fe  Fe38      1.0  0.27011  0.73232  0.14661  1.0000
  S   S75       1.0  0.24810  0.74192  0.17564  1.0000
  S   S76       1.0  0.31434  0.72444  0.09895  1.0000
  S   S77       1.0  0.29124  0.75649  0.13197  1.0000
  C   C201      1.0  0.21369  0.79594  0.05257  1.0000
  C   C202      1.0  0.23168  0.80202  0.03928  1.0000
  C   C203      1.0  0.25192  0.79497  0.04532  1.0000
  C   C204      1.0  0.25432  0.78172  0.06456  1.0000
  C   C205      1.0  0.23628  0.77581  0.07790  1.0000
  C   C206      1.0  0.21608  0.78293  0.07193  1.0000
  H   H201      1.0  0.23002  0.81217  0.02441  1.0000
  H   H202      1.0  0.26580  0.79970  0.03497  1.0000
  H   H203      1.0  0.23791  0.76577  0.09281  1.0000
  H   H204      1.0  0.20223  0.77824  0.08235  1.0000
  C   C207      1.0  0.31345  0.66617  0.03390  1.0000
  C   C208      1.0  0.30777  0.68581  0.04072  1.0000
  C   C209      1.0  0.30280  0.68742  0.06249  1.0000
  C   C210      1.0  0.30266  0.66938  0.07751  1.0000
  C   C211      1.0  0.30820  0.64974  0.07067  1.0000
  C   C212      1.0  0.31394  0.64814  0.04895  1.0000
  H   H205      1.0  0.30735  0.69981  0.02914  1.0000
  H   H206      1.0  0.29884  0.70259  0.06764  1.0000
  H   H207      1.0  0.30798  0.63572  0.08220  1.0000
  C   C213      1.0  0.19539  0.70745  0.21484  1.0000
  C   C214      1.0  0.20775  0.69918  0.19726  1.0000
  C   C215      1.0  0.22466  0.70903  0.18543  1.0000
  C   C216      1.0  0.22928  0.72711  0.19128  1.0000
  C   C217      1.0  0.21756  0.73474  0.20939  1.0000
  C   C218      1.0  0.47587  0.67900  0.17645  1.0000
  H   H208      1.0  0.20386  0.68549  0.19243  1.0000
  H   H209      1.0  0.23370  0.70296  0.17153  1.0000
  H   H210      1.0  0.05667  0.77284  0.07745  1.0000
  N   N20       1.0  0.25054  0.74172  0.04025  1.0000
  C   C219      1.0  0.07129  0.82410  0.08529  1.0000
  C   C220      1.0  0.09017  0.81384  0.07510  1.0000
  C   C221      1.0  0.09956  0.82243  0.05496  1.0000
  C   C222      1.0  0.09000  0.84129  0.04473  1.0000
  C   C223      1.0  0.07109  0.85155  0.05487  1.0000
  C   C224      1.0  0.06181  0.84306  0.07515  1.0000
  H   H211      1.0  0.09762  0.79917  0.08286  1.0000
  H   H212      1.0  0.11410  0.81437  0.04730  1.0000
  H   H213      1.0  0.06360  0.86615  0.04702  1.0000
  H   H214      1.0  0.04731  0.85113  0.08289  1.0000
  C   C225      1.0  0.04623  0.80952  0.21423  1.0000
  H   H215      1.0  0.40196  0.66114  0.05875  1.0000
  C   C226      1.0  0.03544  0.82387  0.04351  1.0000
  H   H216      1.0  0.34150  0.64984  0.09243  1.0000
  C   C227      1.0  0.08375  0.80244  0.20064  1.0000
  C   C228      1.0  0.06272  0.80989  0.19714  1.0000
  H   H217      1.0  0.09648  0.80319  0.18743  1.0000
  H   H218      1.0  0.05931  0.81627  0.18129  1.0000
  H   H219      1.0  0.09901  0.83136  0.12213  1.0000
  C   C229      1.0  0.35469  0.65863  0.08933  1.0000
  H   H220      1.0  0.12978  0.88481  0.06306  1.0000
  H   H221      1.0  0.20744  0.75007  0.14958  1.0000
  H   H222      1.0  0.43412  0.69330  0.13467  1.0000
  H   H223      1.0  0.31889  0.70041  0.18716  1.0000
  H   H224      1.0  0.01029  0.82770  0.06991  1.0000
  C   C230      1.0  0.38855  0.68084  0.08255  1.0000
  H   H225      1.0  0.15381  0.72423  0.18681  1.0000
  H   H226      1.0  0.13068  0.80436  0.11683  1.0000
  C   C231      1.0  0.36097  0.75457  0.19859  1.0000
  C   C232      1.0  0.34447  0.76355  0.18684  1.0000
  C   C233      1.0  0.34083  0.75440  0.16985  1.0000
  C   C234      1.0  0.35390  0.73633  0.16425  1.0000
  C   C235      1.0  0.37057  0.72744  0.17585  1.0000
  C   C236      1.0  0.37399  0.73641  0.19307  1.0000
  H   H227      1.0  0.33433  0.77760  0.19098  1.0000
  H   H228      1.0  0.32804  0.76147  0.16095  1.0000
  H   H229      1.0  0.38060  0.71335  0.17175  1.0000
  H   H230      1.0  0.38654  0.72921  0.20220  1.0000
  C   C237      1.0  0.45087  0.65109  0.03061  1.0000
  H   H231      1.0  0.45761  0.66405  0.02069  1.0000
  C   C238      1.0  0.45723  0.67013  0.17941  1.0000
  C   C239      1.0  0.42777  0.62448  0.03537  1.0000
  C   C240      1.0  0.46190  0.69790  0.20639  1.0000
  C   C241      1.0  0.45751  0.64349  0.05052  1.0000
  C   C242      1.0  0.43598  0.64179  0.02314  1.0000
  H   H232      1.0  0.20900  0.76429  0.01469  1.0000
  C   C243      1.0  0.08833  0.79392  0.22110  1.0000
  C   C244      1.0  0.43462  0.72793  0.16739  1.0000
  C   C245      1.0  0.45972  0.71862  0.13795  1.0000
  H   H233      1.0  0.15786  0.80966  0.08476  1.0000
  S   S78       1.0  0.36402  0.76585  0.22070  1.0000
  H   H234      1.0  0.02963  0.83847  0.03425  1.0000
  N   N21       1.0  0.44054  0.71720  0.15044  1.0000
  C   C246      1.0  0.33170  0.70717  0.21358  1.0000
  H   H235      1.0  0.41890  0.69523  0.16005  1.0000
  C   C247      1.0  0.20077  0.72493  0.22113  1.0000
  C   C248      1.0  0.26254  0.76215  0.00721  1.0000
  C   C249      1.0  0.25534  0.72766  0.05958  1.0000
  S   S79       1.0  0.15024  0.80769  0.00783  1.0000
  H   H236      1.0  0.06889  0.73591  0.20239  1.0000
  S   S80       1.0  0.11486  0.78466  0.22497  1.0000
  C   C250      1.0  0.46801  0.74124  0.16016  1.0000
  C   C251      1.0  0.18055  0.73566  0.16618  1.0000
  H   H237      1.0  0.18397  0.72258  0.15729  1.0000
  S   S81       1.0  0.31813  0.66460  0.00649  1.0000
  C   C252      1.0  0.37121  0.68575  0.09790  1.0000
  H   H238      1.0  0.10386  0.87972  0.06003  1.0000
  H   H239      1.0  0.43139  0.64761  0.00762  1.0000
  H   H240      1.0  0.35580  0.63306  0.06251  1.0000
  H   H241      1.0  0.34062  0.67812  0.11330  1.0000
  S   S82       1.0  0.47792  0.65446  0.05815  1.0000
  H   H242      1.0  0.05919  0.81156  0.00262  1.0000
  H   H243      1.0  0.37659  0.64339  0.04398  1.0000
  C   C253      1.0  0.14114  0.83943  0.07261  1.0000
  S   S83       1.0  0.99611  0.82668  0.12166  1.0000
  H   H244      1.0  0.12663  0.86934  0.04350  1.0000
  H   H245      1.0  0.44374  0.74797  0.18643  1.0000
  C   C254      1.0  0.14401  0.82136  0.08742  1.0000
  C   C255      1.0  0.44824  0.74006  0.17254  1.0000
  H   H246      1.0  0.31794  0.63294  0.04379  1.0000
  C   C256      1.0  0.44114  0.67488  0.19605  1.0000
  C   C257      1.0  0.02438  0.81784  0.06361  1.0000
  H   H247      1.0  0.22119  0.74861  0.21410  1.0000
  S   S84       1.0  0.45310  0.65409  0.16184  1.0000
  C   C258      1.0  0.24169  0.76752  0.00300  1.0000
  H   H248      1.0  0.42679  0.66788  0.19851  1.0000
  C   C259      1.0  0.23008  0.74674  0.03616  1.0000
  C   C260      1.0  0.10879  0.85155  0.09331  1.0000
  C   C261      1.0  0.03198  0.79931  0.07582  1.0000
  H   H249      1.0  0.09476  0.86308  0.09562  1.0000
  H   H250      1.0  0.42778  0.60382  0.06514  1.0000
  S   S85       1.0  0.41038  0.61090  0.02610  1.0000
  C   C262      1.0  0.43406  0.61715  0.05549  1.0000
  H   H251      1.0  0.46437  0.71027  0.12441  1.0000
  C   C263      1.0  0.11117  0.83367  0.10846  1.0000
  H   H252      1.0  0.25928  0.71126  0.05633  1.0000
  C   C264      1.0  0.47818  0.69286  0.18994  1.0000
  S   S86       1.0  0.35852  0.60849  0.00642  1.0000
  C   C265      1.0  0.06501  0.81832  0.01476  1.0000
  H   H253      1.0  0.15302  0.84148  0.05868  1.0000
  C   C266      1.0  0.12886  0.81846  0.10540  1.0000
  C   C267      1.0  0.44863  0.62670  0.06313  1.0000
  H   H254      1.0  0.45348  0.62069  0.07850  1.0000
  C   C268      1.0  0.44350  0.68868  0.20952  1.0000
  H   H255      1.0  0.27535  0.76835  0.99619  1.0000
  C   C269      1.0  0.42587  0.70469  0.14538  1.0000
  Fe  Fe39      1.0  0.34543  0.64135  0.99401  1.0000
  H   H256      1.0  0.38306  0.62391  0.06612  1.0000
  C   C270      1.0  0.30111  0.74233  0.21303  1.0000
  S   S87       1.0  0.37671  0.65312  0.98781  1.0000
  H   H257      1.0  0.07557  0.78401  0.04168  1.0000
  H   H258      1.0  0.34377  0.69351  0.21348  1.0000
  H   H259      1.0  0.43112  0.69197  0.22242  1.0000
  C   C271      1.0  0.47378  0.73057  0.14266  1.0000
  Fe  Fe40      1.0  0.48094  0.64674  0.13694  1.0000
  C   C272      1.0  0.37169  0.63786  0.06110  1.0000
  N   N22       1.0  0.17327  0.76783  0.19061  1.0000
  C   C273      1.0  0.18981  0.76715  0.17429  1.0000
  C   C274      1.0  0.16010  0.75297  0.19473  1.0000
  C   C275      1.0  0.19370  0.75108  0.16183  1.0000
  C   C276      1.0  0.16362  0.73658  0.18271  1.0000
  C   C277      1.0  0.16910  0.78493  0.20336  1.0000
  H   H260      1.0  0.20056  0.77866  0.17119  1.0000
  H   H261      1.0  0.14706  0.75343  0.20772  1.0000
  C   C278      1.0  0.35419  0.67452  0.10138  1.0000
  H   H262      1.0  0.15610  0.79688  0.19776  1.0000
  H   H263      1.0  0.16405  0.77908  0.22034  1.0000
  H   H264      1.0  0.18343  0.79238  0.20256  1.0000
  N   N23       1.0  0.37144  0.65433  0.07388  1.0000
  C   C279      1.0  0.38842  0.66495  0.07063  1.0000
  C   C280      1.0  0.30216  0.72857  0.19853  1.0000
  C   C281      1.0  0.31757  0.71090  0.19874  1.0000
  H   H265      1.0  0.29130  0.73182  0.18689  1.0000
  H   H266      1.0  0.02398  0.79476  0.09173  1.0000
  H   H267      1.0  0.24178  0.72884  0.07263  1.0000
  H   H268      1.0  0.02826  0.77078  0.20247  1.0000
  H   H269      1.0  0.28946  0.75633  0.21262  1.0000
  C   C282      1.0  0.06744  0.75154  0.20728  1.0000
  H   H270      1.0  0.23815  0.77788  0.98865  1.0000
  H   H271      1.0  0.08239  0.81325  0.01410  1.0000
  H   H272      1.0  0.06290  0.83564  0.01067  1.0000
  S   S88       1.0  0.48134  0.62257  0.11607  1.0000
  H   H273      1.0  0.48288  0.60828  0.03111  1.0000
  H   H274      1.0  0.08231  0.75297  0.21301  1.0000
  N   N24       1.0  0.33069  0.72083  0.22764  1.0000
  H   H275      1.0  0.47678  0.58090  0.06192  1.0000
  H   H276      1.0  0.99777  0.77637  0.23046  1.0000
  S   S89       1.0  0.17260  0.69653  0.22781  1.0000
  H   H277      1.0  0.48828  0.67548  0.16353  1.0000
  S   S90       1.0  0.48944  0.67181  0.11019  1.0000
  H   H278      1.0  0.48914  0.73134  0.13295  1.0000
  Fe  Fe41      1.0  0.14840  0.71497  0.24993  1.0000
  H   H279      1.0  0.06613  0.59438  0.34719  1.0000
  S   S91       1.0  0.30264  0.84876  0.46123  1.0000
  H   H280      1.0  0.33358  0.77106  0.36478  1.0000
  S   S92       1.0  0.41136  0.84737  0.45610  1.0000
  S   S93       1.0  0.35222  0.87967  0.46466  1.0000
  C   C283      1.0  0.40217  0.90026  0.47067  1.0000
  S   S94       1.0  0.17231  0.64808  0.44121  1.0000
  Fe  Fe42      1.0  0.27772  0.72525  0.37495  1.0000
  S   S95       1.0  0.27738  0.75920  0.36302  1.0000
  S   S96       1.0  0.29528  0.69957  0.35707  1.0000
  Fe  Fe43      1.0  0.24489  0.73300  0.41383  1.0000
  S   S97       1.0  0.24221  0.76791  0.40486  1.0000
  S   S98       1.0  0.22507  0.72020  0.44404  1.0000
  Fe  Fe44      1.0  0.24192  0.76112  0.37176  1.0000
  S   S99       1.0  0.21959  0.77790  0.34862  1.0000
  Fe  Fe45      1.0  0.27789  0.76243  0.39721  1.0000
  S   S100      1.0  0.30472  0.77600  0.40636  1.0000
  S   S101      1.0  0.24247  0.72679  0.38149  1.0000
  S   S102      1.0  0.28041  0.72785  0.40850  1.0000
  S   S103      1.0  0.45377  0.88614  0.36465  1.0000
  Fe  Fe46      1.0  0.41853  0.76280  0.27090  1.0000
  S   S104      1.0  0.43305  0.72940  0.27750  1.0000
  S   S105      1.0  0.42529  0.78862  0.28707  1.0000
  N   N25       1.0  0.39045  0.91912  0.47402  1.0000
  H   H281      1.0  0.38518  0.83116  0.43118  1.0000
  Fe  Fe47      1.0  0.39973  0.72263  0.28004  1.0000
  S   S106      1.0  0.38816  0.69856  0.30655  1.0000
  H   H282      1.0  0.34778  0.73087  0.24869  1.0000
  S   S107      1.0  0.38494  0.75604  0.27562  1.0000
  Fe  Fe48      1.0  0.10354  0.71857  0.27570  1.0000
  S   S108      1.0  0.10658  0.74948  0.28454  1.0000
  S   S109      1.0  0.07079  0.70992  0.28836  1.0000
  Fe  Fe49      1.0  0.13943  0.73446  0.29055  1.0000
  S   S110      1.0  0.15299  0.73057  0.32143  1.0000
  H   H283      1.0  0.26982  0.83448  0.44506  1.0000
  S   S111      1.0  0.13548  0.70303  0.28359  1.0000
  Fe  Fe50      1.0  0.00739  0.60434  0.38575  1.0000
  S   S112      1.0  0.01995  0.58317  0.36102  1.0000
  S   S113      1.0  0.02784  0.59629  0.41273  1.0000
  H   H284      1.0  0.06040  0.59464  0.37537  1.0000
  H   H285      1.0  0.26992  0.80628  0.42377  1.0000
  Fe  Fe51      1.0  0.01823  0.61254  0.33756  1.0000
  S   S114      1.0  0.04612  0.61848  0.31205  1.0000
  S   S115      1.0  0.00688  0.63372  0.36209  1.0000
  H   H286      1.0  0.04969  0.66661  0.37469  1.0000
  C   C284      1.0  0.06449  0.68431  0.29457  1.0000
  C   C285      1.0  0.07763  0.66742  0.28642  1.0000
  C   C286      1.0  0.07165  0.64732  0.29155  1.0000
  C   C287      1.0  0.05275  0.64397  0.30513  1.0000
  C   C288      1.0  0.03970  0.66089  0.31328  1.0000
  C   C289      1.0  0.04544  0.68100  0.30784  1.0000
  H   H287      1.0  0.09224  0.66986  0.27601  1.0000
  H   H288      1.0  0.08178  0.63430  0.28510  1.0000
  H   H289      1.0  0.02518  0.65850  0.32374  1.0000
  H   H290      1.0  0.03521  0.69401  0.31417  1.0000
  H   H291      1.0  0.46673  0.81382  0.26365  1.0000
  H   H292      1.0  0.07081  0.55966  0.47589  1.0000
  S   S116      1.0  0.42240  0.76332  0.23545  1.0000
  C   C290      1.0  0.44493  0.78840  0.30328  1.0000
  N   N26       1.0  0.07297  0.62138  0.35695  1.0000
  C   C291      1.0  0.38491  0.83428  0.41374  1.0000
  H   H293      1.0  0.15719  0.75524  0.37618  1.0000
  C   C292      1.0  0.32087  0.70074  0.34282  1.0000
  C   C293      1.0  0.33550  0.68247  0.34403  1.0000
  C   C294      1.0  0.35589  0.68219  0.33261  1.0000
  C   C295      1.0  0.36176  0.69999  0.31927  1.0000
  C   C296      1.0  0.34702  0.71836  0.31757  1.0000
  C   C297      1.0  0.32660  0.71882  0.32962  1.0000
  H   H294      1.0  0.33111  0.66841  0.35399  1.0000
  H   H295      1.0  0.36717  0.66798  0.33402  1.0000
  H   H296      1.0  0.35150  0.73223  0.30736  1.0000
  H   H297      1.0  0.31523  0.73294  0.32839  1.0000
  C   C298      1.0  0.20160  0.76450  0.34037  1.0000
  C   C299      1.0  0.19874  0.74422  0.34984  1.0000
  C   C300      1.0  0.18432  0.73391  0.34324  1.0000
  C   C301      1.0  0.17239  0.74375  0.32720  1.0000
  C   C302      1.0  0.17546  0.76388  0.31726  1.0000
  C   C303      1.0  0.18998  0.77426  0.32393  1.0000
  H   H298      1.0  0.20724  0.73653  0.36258  1.0000
  H   H299      1.0  0.18211  0.71829  0.35094  1.0000
  H   H300      1.0  0.16621  0.77169  0.30496  1.0000
  H   H301      1.0  0.19203  0.78999  0.31651  1.0000
  C   C304      1.0  0.06044  0.63185  0.45036  1.0000
  C   C305      1.0  0.07116  0.61368  0.44261  1.0000
  C   C306      1.0  0.06155  0.60369  0.42987  1.0000
  C   C307      1.0  0.04133  0.61193  0.42434  1.0000
  C   C308      1.0  0.06055  0.65613  0.36517  1.0000
  C   C309      1.0  0.04066  0.64058  0.44402  1.0000
  H   H302      1.0  0.08644  0.60681  0.44719  1.0000
  H   H303      1.0  0.06949  0.58904  0.42496  1.0000
  C   C310      1.0  0.18788  0.66711  0.44287  1.0000
  C   C311      1.0  0.20231  0.67352  0.42514  1.0000
  C   C312      1.0  0.21418  0.68943  0.42554  1.0000
  C   C313      1.0  0.21169  0.69904  0.44369  1.0000
  C   C314      1.0  0.19748  0.69242  0.46157  1.0000
  C   C315      1.0  0.18552  0.67655  0.46113  1.0000
  H   H304      1.0  0.20424  0.66621  0.41100  1.0000
  H   H305      1.0  0.22526  0.69415  0.41180  1.0000
  H   H306      1.0  0.19543  0.69977  0.47570  1.0000
  Fe  Fe52      1.0  0.39024  0.75302  0.24080  1.0000
  C   C316      1.0  0.42282  0.85970  0.43124  1.0000
  C   C317      1.0  0.44419  0.85298  0.42403  1.0000
  C   C318      1.0  0.45387  0.86127  0.40392  1.0000
  C   C319      1.0  0.44234  0.87646  0.39071  1.0000
  C   C320      1.0  0.42104  0.88363  0.39813  1.0000
  C   C321      1.0  0.41124  0.87523  0.41829  1.0000
  H   H307      1.0  0.45331  0.84108  0.43396  1.0000
  H   H308      1.0  0.47030  0.85585  0.39870  1.0000
  H   H309      1.0  0.41199  0.89546  0.38806  1.0000
  H   H310      1.0  0.39473  0.88052  0.42359  1.0000
  C   C322      1.0  0.30336  0.82797  0.44663  1.0000
  C   C323      1.0  0.32223  0.81504  0.44070  1.0000
  C   C324      1.0  0.32227  0.79916  0.42851  1.0000
  C   C325      1.0  0.30346  0.79586  0.42227  1.0000
  C   C326      1.0  0.28449  0.80848  0.42860  1.0000
  C   C327      1.0  0.28448  0.82449  0.44065  1.0000
  H   H311      1.0  0.33684  0.81746  0.44524  1.0000
  H   H312      1.0  0.33701  0.78944  0.42377  1.0000
  H   H313      1.0  0.10041  0.65623  0.32351  1.0000
  C   C328      1.0  0.33689  0.73029  0.37773  1.0000
  H   H314      1.0  0.09763  0.61847  0.33071  1.0000
  H   H315      1.0  0.13456  0.73141  0.36878  1.0000
  H   H316      1.0  0.14869  0.68970  0.42531  1.0000
  S   S117      1.0  0.40256  0.71886  0.24575  1.0000
  N   N27       1.0  0.22200  0.71650  0.30541  1.0000
  C   C329      1.0  0.22712  0.73631  0.30132  1.0000
  C   C330      1.0  0.23272  0.70129  0.31855  1.0000
  C   C331      1.0  0.24305  0.74140  0.31084  1.0000
  C   C332      1.0  0.24885  0.70582  0.32821  1.0000
  C   C333      1.0  0.25398  0.72602  0.32432  1.0000
  C   C334      1.0  0.20532  0.71125  0.29532  1.0000
  H   H317      1.0  0.21847  0.74848  0.29116  1.0000
  H   H318      1.0  0.22873  0.68557  0.32175  1.0000
  H   H319      1.0  0.24647  0.75733  0.30831  1.0000
  H   H320      1.0  0.25729  0.69382  0.33879  1.0000
  H   H321      1.0  0.26627  0.72977  0.33194  1.0000
  H   H322      1.0  0.19514  0.72545  0.28868  1.0000
  H   H323      1.0  0.21244  0.70205  0.28228  1.0000
  H   H324      1.0  0.19455  0.70209  0.30718  1.0000
  H   H325      1.0  0.17193  0.75941  0.41983  1.0000
  C   C335      1.0  0.26880  0.75820  0.46009  1.0000
  H   H326      1.0  0.39840  0.73184  0.32950  1.0000
  C   C336      1.0  0.07542  0.66393  0.34878  1.0000
  H   H327      1.0  0.30007  0.76344  0.46296  1.0000
  C   C337      1.0  0.41119  0.84090  0.38208  1.0000
  H   H328      1.0  0.37796  0.85094  0.41007  1.0000
  H   H329      1.0  0.48773  0.80359  0.27936  1.0000
  H   H330      1.0  0.35841  0.79012  0.33790  1.0000
  H   H331      1.0  0.34194  0.71311  0.38028  1.0000
  C   C338      1.0  0.08911  0.65025  0.33659  1.0000
  C   C339      1.0  0.44443  0.80631  0.31251  1.0000
  N   N28       1.0  0.16614  0.73559  0.40411  1.0000
  H   H332      1.0  0.13031  0.69828  0.39341  1.0000
  H   H333      1.0  0.04781  0.62880  0.38168  1.0000
  H   H334      1.0  0.08742  0.58981  0.36305  1.0000
  H   H335      1.0  0.32129  0.73304  0.37197  1.0000
  H   H336      1.0  0.33477  0.73615  0.39323  1.0000
  H   H337      1.0  0.17117  0.71398  0.43203  1.0000
  C   C340      1.0  0.05955  0.63468  0.36907  1.0000
  C   C341      1.0  0.07166  0.59896  0.36087  1.0000
  H   H338      1.0  0.23753  0.75069  0.46192  1.0000
  C   C342      1.0  0.08751  0.62892  0.34078  1.0000
  Fe  Fe53      1.0  0.14871  0.63864  0.46981  1.0000
  S   S118      1.0  0.12921  0.61342  0.46946  1.0000
  H   H339      1.0  0.03219  0.65462  0.44992  1.0000
  C   C343      1.0  0.03122  0.63081  0.43095  1.0000
  H   H340      1.0  0.07610  0.68059  0.34522  1.0000
  H   H341      1.0  0.39111  0.77048  0.32017  1.0000
  C   C344      1.0  0.38024  0.76230  0.33212  1.0000
  H   H342      1.0  0.01556  0.63723  0.42712  1.0000
  N   N29       1.0  0.35213  0.74121  0.36223  1.0000
  H   H343      1.0  0.37447  0.82426  0.40966  1.0000
  H   H344      1.0  0.03820  0.80100  0.24802  1.0000
  H   H345      1.0  0.36122  0.70900  0.23647  1.0000
  C   C345      1.0  0.46114  0.77158  0.30672  1.0000
  C   C346      1.0  0.36188  0.77330  0.34205  1.0000
  H   H346      1.0  0.43192  0.81934  0.31014  1.0000
  C   C347      1.0  0.34791  0.76244  0.35717  1.0000
  H   H347      1.0  0.41734  0.80683  0.42649  1.0000
  H   H348      1.0  0.45867  0.82131  0.33219  1.0000
  C   C348      1.0  0.37020  0.73031  0.35272  1.0000
  H   H349      1.0  0.03922  0.56011  0.45876  1.0000
  C   C349      1.0  0.14239  0.72753  0.38285  1.0000
  C   C350      1.0  0.25121  0.74868  0.47006  1.0000
  C   C351      1.0  0.47927  0.77744  0.25012  1.0000
  H   H350      1.0  0.37422  0.94689  0.45816  1.0000
  C   C352      1.0  0.42109  0.81513  0.41061  1.0000
  H   H351      1.0  0.46357  0.77833  0.25932  1.0000
  C   C353      1.0  0.44664  0.82177  0.37927  1.0000
  C   C354      1.0  0.47689  0.77304  0.31895  1.0000
  C   C355      1.0  0.44145  0.81069  0.39940  1.0000
  S   S119      1.0  0.11591  0.72719  0.24122  1.0000
  H   H352      1.0  0.03638  0.74347  0.27726  1.0000
  H   H353      1.0  0.45327  0.79904  0.40642  1.0000
  C   C356      1.0  0.43145  0.83700  0.37053  1.0000
  N   N30       1.0  0.40632  0.83018  0.40197  1.0000
  C   C357      1.0  0.01489  0.76010  0.25580  1.0000
  Fe  Fe54      1.0  0.37809  0.85400  0.47413  1.0000
  H   H354      1.0  0.37343  0.71341  0.35634  1.0000
  C   C358      1.0  0.45994  0.80765  0.32477  1.0000
  H   H355      1.0  0.19199  0.73100  0.23498  1.0000
  C   C359      1.0  0.38444  0.74066  0.33747  1.0000
  C   C360      1.0  0.15535  0.74090  0.38705  1.0000
  H   H356      1.0  0.19461  0.73993  0.41404  1.0000
  H   H357      1.0  0.17436  0.67176  0.47484  1.0000
  C   C361      1.0  0.15042  0.70410  0.41444  1.0000
  H   H358      1.0  0.18602  0.75935  0.39310  1.0000
  H   H359      1.0  0.39961  0.85299  0.37526  1.0000
  C   C362      1.0  0.14008  0.70894  0.39658  1.0000
  C   C363      1.0  0.18029  0.74931  0.40795  1.0000
  H   H360      1.0  0.46250  0.81880  0.37059  1.0000
  H   H361      1.0  0.43553  0.84620  0.35517  1.0000
  C   C364      1.0  0.47656  0.79129  0.32779  1.0000
  S   S120      1.0  0.15426  0.74534  0.25736  1.0000
  Fe  Fe55      1.0  0.10173  0.63581  0.48222  1.0000
  C   C365      1.0  0.16330  0.71779  0.41808  1.0000
  H   H362      1.0  0.35966  0.92508  0.46532  1.0000
  S   S121      1.0  0.35707  0.82888  0.48216  1.0000
  S   S122      1.0  0.12099  0.66179  0.48068  1.0000
  S   S123      1.0  0.48402  0.85105  0.32353  1.0000
  H   H363      1.0  0.46168  0.75757  0.29984  1.0000
  Fe  Fe56      1.0  0.12098  0.75704  0.25045  1.0000
  H   H364      1.0  0.07517  0.78676  0.25396  1.0000
  H   H365      1.0  0.26886  0.76712  0.44430  1.0000
  C   C366      1.0  0.48416  0.80906  0.26293  1.0000
  Fe  Fe57      1.0  0.43451  0.72904  0.24252  1.0000
  H   H366      1.0  0.38090  0.92549  0.44317  1.0000
  H   H367      1.0  0.42488  0.87455  0.48219  1.0000
  Fe  Fe58      1.0  0.33078  0.85479  0.47511  1.0000
  H   H368      1.0  0.06655  0.73844  0.24877  1.0000
  H   H369      1.0  0.40082  0.89316  0.45711  1.0000
  C   C367      1.0  0.05720  0.57158  0.47853  1.0000
  C   C368      1.0  0.28637  0.75606  0.47054  1.0000
  H   H370      1.0  0.00875  0.58830  0.46303  1.0000
  S   S124      1.0  0.06963  0.64275  0.46996  1.0000
  C   C369      1.0  0.03939  0.57166  0.46888  1.0000
  C   C370      1.0  0.05143  0.74659  0.24465  1.0000
  Fe  Fe59      1.0  0.48525  0.87015  0.34889  1.0000
  C   C371      1.0  0.37561  0.92965  0.45941  1.0000
  C   C372      1.0  0.34534  0.71633  0.24338  1.0000
  C   C373      1.0  0.03435  0.74940  0.26087  1.0000
  C   C374      1.0  0.48648  0.76090  0.23842  1.0000
  H   H371      1.0  0.33911  0.70568  0.25745  1.0000
  H   H372      1.0  0.00164  0.76281  0.26826  1.0000
  C   C375      1.0  0.05087  0.80125  0.23472  1.0000
  C   C376      1.0  0.02296  0.60300  0.48337  1.0000
  C   C377      1.0  0.02221  0.58752  0.47130  1.0000
  C   C378      1.0  0.07179  0.79312  0.23810  1.0000
  H   H373      1.0  0.31509  0.74926  0.23841  1.0000
  H   H374      1.0  0.47648  0.74919  0.23864  1.0000
  H   H375      1.0  0.99549  0.68530  0.30134  1.0000
  C   C379      1.0  0.01265  0.76757  0.23463  1.0000
  H   H376      1.0  0.48945  0.76009  0.32136  1.0000
  C   C380      1.0  0.39165  0.92768  0.49158  1.0000
  S   S125      1.0  0.37434  0.86020  0.50799  1.0000
  S   S126      1.0  0.34111  0.91739  0.50906  1.0000
  Fe  Fe60      1.0  0.35047  0.83779  0.51490  1.0000
  S   S127      1.0  0.34437  0.81546  0.54523  1.0000
  S   S128      1.0  0.32328  0.86273  0.50834  1.0000
  Fe  Fe61      1.0  0.12772  0.64753  0.51355  1.0000
  S   S129      1.0  0.15673  0.62601  0.50244  1.0000
  S   S130      1.0  0.12790  0.66440  0.54149  1.0000
  H   H377      1.0  0.22181  0.63486  0.65706  1.0000
  H   H378      1.0  0.11891  0.62849  0.57463  1.0000
  Fe  Fe62      1.0  0.13421  0.60316  0.50362  1.0000
  S   S131      1.0  0.14372  0.56926  0.51733  1.0000
  H   H379      1.0  0.23949  0.66577  0.57246  1.0000
  S   S132      1.0  0.10544  0.62390  0.51661  1.0000
  H   H380      1.0  0.28590  0.95000  0.66675  1.0000
  Fe  Fe63      1.0  0.25819  0.74082  0.57103  1.0000
  S   S133      1.0  0.22305  0.75035  0.57282  1.0000
  S   S134      1.0  0.27782  0.75614  0.54208  1.0000
  Fe  Fe64      1.0  0.25295  0.70432  0.60749  1.0000
  S   S135      1.0  0.21757  0.71090  0.61121  1.0000
  S   S136      1.0  0.26990  0.67630  0.62664  1.0000
  Fe  Fe65      1.0  0.22114  0.71607  0.57545  1.0000
  S   S137      1.0  0.21057  0.70091  0.55061  1.0000
  Fe  Fe66      1.0  0.22312  0.74441  0.60824  1.0000
  S   S138      1.0  0.20527  0.76443  0.63268  1.0000
  S   S139      1.0  0.25645  0.70699  0.57213  1.0000
  S   S140      1.0  0.25852  0.73738  0.60620  1.0000
  Fe  Fe67      1.0  0.11856  0.50025  0.63242  1.0000
  S   S141      1.0  0.09532  0.49985  0.66265  1.0000
  S   S142      1.0  0.10450  0.52571  0.60783  1.0000
  N   N31       1.0  0.16118  0.59230  0.56225  1.0000
  H   H381      1.0  0.24940  0.63668  0.62543  1.0000
  N   N32       1.0  0.06176  0.48478  0.60706  1.0000
  H   H382      1.0  0.07937  0.48239  0.57597  1.0000
  H   H383      1.0  0.25902  0.65904  0.59003  1.0000
  Fe  Fe68      1.0  0.12376  0.49637  0.67936  1.0000
  S   S143      1.0  0.12341  0.51597  0.70537  1.0000
  H   H384      1.0  0.26724  0.71111  0.65297  1.0000
  S   S144      1.0  0.14677  0.49874  0.64923  1.0000
  H   H385      1.0  0.21615  0.97284  0.72461  1.0000
  C   C381      1.0  0.07708  0.58736  0.49919  1.0000
  S   S145      1.0  0.37837  0.95032  0.58081  1.0000
  C   C382      1.0  0.26546  0.81289  0.50281  1.0000
  S   S146      1.0  0.35795  0.95347  0.67853  1.0000
  Fe  Fe69      1.0  0.26766  0.87904  0.70364  1.0000
  S   S147      1.0  0.23662  0.87559  0.69448  1.0000
  S   S148      1.0  0.27534  0.91090  0.68758  1.0000
  Fe  Fe70      1.0  0.25058  0.84227  0.69173  1.0000
  S   S149      1.0  0.25492  0.82789  0.66136  1.0000
  S   S150      1.0  0.28238  0.84635  0.69883  1.0000
  C   C383      1.0  0.33462  0.94188  0.68237  1.0000
  C   C384      1.0  0.33342  0.92239  0.69513  1.0000
  C   C385      1.0  0.31519  0.91265  0.69737  1.0000
  C   C386      1.0  0.29809  0.92251  0.68692  1.0000
  C   C387      1.0  0.29911  0.94222  0.67476  1.0000
  C   C388      1.0  0.31720  0.95188  0.67259  1.0000
  H   H386      1.0  0.34674  0.91467  0.70301  1.0000
  H   H387      1.0  0.31448  0.89749  0.70691  1.0000
  H   H388      1.0  0.38071  0.91030  0.62502  1.0000
  H   H389      1.0  0.28023  0.81503  0.49150  1.0000
  C   C389      1.0  0.12448  0.59715  0.59153  1.0000
  H   H390      1.0  0.20353  0.66980  0.58715  1.0000
  Fe  Fe71      1.0  0.34738  0.88470  0.49917  1.0000
  H   H391      1.0  0.11004  0.59893  0.60280  1.0000
  C   C390      1.0  0.12940  0.61366  0.57576  1.0000
  C   C391      1.0  0.29356  0.75132  0.65383  1.0000
  H   H392      1.0  0.22997  0.92116  0.68929  1.0000
  C   C392      1.0  0.16661  0.51576  0.70348  1.0000
  H   H393      1.0  0.16896  0.50360  0.69361  1.0000
  H   H394      1.0  0.15158  0.62386  0.54898  1.0000
  C   C393      1.0  0.25714  0.66700  0.65204  1.0000
  C   C394      1.0  0.26559  0.64794  0.66312  1.0000
  C   C395      1.0  0.25525  0.63996  0.68312  1.0000
  C   C396      1.0  0.23659  0.65125  0.69224  1.0000
  C   C397      1.0  0.22825  0.67036  0.68117  1.0000
  C   C398      1.0  0.23835  0.67811  0.66108  1.0000
  H   H395      1.0  0.28013  0.63924  0.65620  1.0000
  H   H396      1.0  0.26184  0.62526  0.69158  1.0000
  H   H397      1.0  0.23154  0.69261  0.65258  1.0000
  C   C399      1.0  0.21862  0.78266  0.64031  1.0000
  C   C400      1.0  0.21025  0.79182  0.65868  1.0000
  C   C401      1.0  0.22106  0.80582  0.66544  1.0000
  C   C402      1.0  0.24017  0.81092  0.65364  1.0000
  C   C403      1.0  0.24830  0.80201  0.63510  1.0000
  C   C404      1.0  0.23769  0.78783  0.62854  1.0000
  H   H398      1.0  0.19541  0.78799  0.66777  1.0000
  H   H399      1.0  0.21460  0.81271  0.67966  1.0000
  H   H400      1.0  0.26306  0.80594  0.62588  1.0000
  H   H401      1.0  0.24419  0.78106  0.61430  1.0000
  C   C405      1.0  0.13282  0.55750  0.54264  1.0000
  C   C406      1.0  0.11346  0.56612  0.55319  1.0000
  C   C407      1.0  0.10499  0.55601  0.57305  1.0000
  C   C408      1.0  0.11604  0.53753  0.58282  1.0000
  C   C409      1.0  0.13555  0.52905  0.57243  1.0000
  C   C410      1.0  0.14376  0.53888  0.55228  1.0000
  H   H402      1.0  0.10489  0.58042  0.54595  1.0000
  H   H403      1.0  0.08987  0.56267  0.58099  1.0000
  H   H404      1.0  0.14415  0.51478  0.57973  1.0000
  H   H405      1.0  0.15869  0.53204  0.54414  1.0000
  C   C411      1.0  0.15088  0.67457  0.54403  1.0000
  C   C412      1.0  0.15117  0.68413  0.56186  1.0000
  C   C413      1.0  0.16925  0.69238  0.56422  1.0000
  C   C414      1.0  0.18719  0.69110  0.54870  1.0000
  C   C415      1.0  0.18691  0.68142  0.53098  1.0000
  C   C416      1.0  0.16890  0.67316  0.52866  1.0000
  H   H406      1.0  0.13725  0.68539  0.57377  1.0000
  H   H407      1.0  0.16918  0.69995  0.57784  1.0000
  H   H408      1.0  0.20067  0.68037  0.51885  1.0000
  H   H409      1.0  0.16890  0.66594  0.51484  1.0000
  C   C417      1.0  0.34991  0.92559  0.53061  1.0000
  C   C418      1.0  0.36425  0.91254  0.54276  1.0000
  C   C419      1.0  0.37244  0.92032  0.55826  1.0000
  C   C420      1.0  0.36611  0.94108  0.56220  1.0000
  C   C421      1.0  0.35120  0.95392  0.55058  1.0000
  C   C422      1.0  0.34333  0.94626  0.53476  1.0000
  H   H410      1.0  0.36946  0.89660  0.53984  1.0000
  H   H411      1.0  0.38394  0.91021  0.56714  1.0000
  H   H412      1.0  0.29403  0.84485  0.54718  1.0000
  H   H413      1.0  0.33225  0.95652  0.52549  1.0000
  C   C423      1.0  0.29736  0.77120  0.54368  1.0000
  C   C424      1.0  0.30773  0.78103  0.52473  1.0000
  C   C425      1.0  0.32223  0.79448  0.52515  1.0000
  C   C426      1.0  0.32684  0.79789  0.54453  1.0000
  C   C427      1.0  0.31688  0.78762  0.56354  1.0000
  C   C428      1.0  0.30201  0.77441  0.56314  1.0000
  H   H414      1.0  0.30427  0.77860  0.50963  1.0000
  H   H415      1.0  0.32983  0.80223  0.51045  1.0000
  H   H416      1.0  0.32042  0.79020  0.57857  1.0000
  H   H417      1.0  0.29407  0.76688  0.57782  1.0000
  H   H418      1.0  0.16639  0.56090  0.57789  1.0000
  C   C429      1.0  0.18140  0.53663  0.72376  1.0000
  C   C430      1.0  0.27131  0.82508  0.56386  1.0000
  H   H419      1.0  0.40585  0.92429  0.52012  1.0000
  H   H420      1.0  0.04193  0.61513  0.50124  1.0000
  C   C431      1.0  0.26835  0.73499  0.50022  1.0000
  H   H421      1.0  0.24139  0.95121  0.70025  1.0000
  C   C432      1.0  0.04100  0.60243  0.49282  1.0000
  H   H422      1.0  0.24527  0.79706  0.54013  1.0000
  C   C433      1.0  0.27729  0.76389  0.66487  1.0000
  N   N33       1.0  0.26729  0.81726  0.52388  1.0000
  H   H423      1.0  0.26820  0.72621  0.51609  1.0000
  H   H424      1.0  0.34622  0.96994  0.55329  1.0000
  C   C434      1.0  0.14609  0.52538  0.71007  1.0000
  C   C435      1.0  0.24469  0.65424  0.58600  1.0000
  C   C436      1.0  0.15634  0.57594  0.57750  1.0000
  N   N34       1.0  0.25399  0.73857  0.66688  1.0000
  C   C437      1.0  0.25753  0.75716  0.67144  1.0000
  C   C438      1.0  0.26999  0.72593  0.65649  1.0000
  H   H425      1.0  0.16452  0.91443  0.73244  1.0000
  C   C439      1.0  0.28997  0.73213  0.64972  1.0000
  C   C440      1.0  0.41733  0.89837  0.50267  1.0000
  C   C441      1.0  0.23300  0.73200  0.67297  1.0000
  H   H426      1.0  0.27975  0.77898  0.66800  1.0000
  H   H427      1.0  0.22718  0.72899  0.65871  1.0000
  S   S151      1.0  0.24168  0.57764  0.72992  1.0000
  H   H428      1.0  0.24860  0.80386  0.57580  1.0000
  Fe  Fe72      1.0  0.22737  0.86503  0.72918  1.0000
  H   H429      1.0  0.22104  0.74432  0.67975  1.0000
  H   H430      1.0  0.19328  0.57894  0.55335  1.0000
  C   C442      1.0  0.19683  0.65169  0.63987  1.0000
  N   N35       1.0  0.05776  0.58677  0.49044  1.0000
  H   H431      1.0  0.07320  0.59331  0.51470  1.0000
  H   H432      1.0  0.23378  0.71756  0.68478  1.0000
  H   H433      1.0  0.30887  0.75649  0.64841  1.0000
  C   C443      1.0  0.25557  0.80800  0.54155  1.0000
  C   C444      1.0  0.07886  0.49021  0.59002  1.0000
  H   H434      1.0  0.15305  0.93858  0.71779  1.0000
  C   C445      1.0  0.25744  0.81172  0.56180  1.0000
  C   C446      1.0  0.28039  0.83091  0.52571  1.0000
  C   C447      1.0  0.28613  0.74448  0.49080  1.0000
  S   S152      1.0  0.23774  0.83107  0.72568  1.0000
  H   H435      1.0  0.08693  0.59793  0.48801  1.0000
  H   H436      1.0  0.12763  0.54883  0.72800  1.0000
  C   C448      1.0  0.13807  0.57818  0.59252  1.0000
  C   C449      1.0  0.21908  0.93058  0.69984  1.0000
  C   C450      1.0  0.28282  0.83482  0.54572  1.0000
  H   H437      1.0  0.18581  0.60460  0.53960  1.0000
  N   N36       1.0  0.34746  0.91467  0.63467  1.0000
  C   C451      1.0  0.33579  0.92388  0.61888  1.0000
  C   C452      1.0  0.34010  0.89949  0.65005  1.0000
  C   C453      1.0  0.31584  0.91850  0.61868  1.0000
  C   C454      1.0  0.32025  0.89367  0.65029  1.0000
  C   C455      1.0  0.30798  0.90341  0.63463  1.0000
  C   C456      1.0  0.36844  0.92031  0.63451  1.0000
  H   H438      1.0  0.34183  0.93556  0.60639  1.0000
  H   H439      1.0  0.34938  0.89211  0.66252  1.0000
  H   H440      1.0  0.30656  0.92603  0.60626  1.0000
  H   H441      1.0  0.31412  0.88212  0.66291  1.0000
  H   H442      1.0  0.29235  0.89932  0.63499  1.0000
  H   H443      1.0  0.36911  0.93684  0.62738  1.0000
  H   H444      1.0  0.37226  0.91879  0.65091  1.0000
  H   H445      1.0  0.31748  0.96720  0.66353  1.0000
  N   N37       1.0  0.22809  0.65348  0.60452  1.0000
  H   H446      1.0  0.30246  0.72221  0.64109  1.0000
  C   C457      1.0  0.23315  0.64348  0.62377  1.0000
  H   H447      1.0  0.21375  0.67911  0.68811  1.0000
  H   H448      1.0  0.19429  0.91176  0.70359  1.0000
  Fe  Fe73      1.0  0.26881  0.83667  0.73289  1.0000
  H   H449      1.0  0.26299  0.79643  0.50357  1.0000
  H   H450      1.0  0.19978  0.51286  0.70618  1.0000
  H   H451      1.0  0.24902  0.63864  0.58075  1.0000
  H   H452      1.0  0.24495  0.76715  0.67982  1.0000
  H   H453      1.0  0.13414  0.56507  0.60444  1.0000
  C   C458      1.0  0.21762  0.64244  0.64172  1.0000
  S   S153      1.0  0.22317  0.64254  0.71748  1.0000
  H   H454      1.0  0.25146  0.51787  0.72491  1.0000
  H   H455      1.0  0.27339  0.82765  0.57949  1.0000
  H   H456      1.0  0.18475  0.65129  0.65378  1.0000
  C   C459      1.0  0.19884  0.92548  0.70785  1.0000
  C   C460      1.0  0.18011  0.58947  0.54634  1.0000
  H   H457      1.0  0.17637  0.58257  0.53311  1.0000
  C   C461      1.0  0.18409  0.52111  0.71059  1.0000
  H   H458      1.0  0.42757  0.89011  0.51402  1.0000
  C   C462      1.0  0.14793  0.61094  0.56118  1.0000
  C   C463      1.0  0.23286  0.72693  0.50008  1.0000
  H   H459      1.0  0.17561  0.66881  0.61839  1.0000
  C   C464      1.0  0.05989  0.49239  0.62582  1.0000
  C   C465      1.0  0.20762  0.66213  0.60244  1.0000
  C   C466      1.0  0.19172  0.66154  0.62008  1.0000
  H   H460      1.0  0.07083  0.50239  0.62792  1.0000
  H   H461      1.0  0.22377  0.73563  0.51286  1.0000
  C   C467      1.0  0.40524  0.91756  0.50605  1.0000
  C   C468      1.0  0.22543  0.94765  0.70588  1.0000
  C   C469      1.0  0.14343  0.54131  0.72277  1.0000
  H   H462      1.0  0.28954  0.83831  0.51165  1.0000
  C   C470      1.0  0.41585  0.88965  0.48485  1.0000
  H   H463      1.0  0.08666  0.57164  0.50182  1.0000
  H   H464      1.0  0.07682  0.50739  0.58488  1.0000
  H   H465      1.0  0.29951  0.74297  0.49934  1.0000
  N   N38       1.0  0.25131  0.73692  0.48972  1.0000
  C   C471      1.0  0.04407  0.48720  0.64260  1.0000
  C   C472      1.0  0.16102  0.54711  0.72937  1.0000
  Fe  Fe74      1.0  0.37009  0.97736  0.60059  1.0000
  H   H466      1.0  0.22209  0.72610  0.48864  1.0000
  C   C473      1.0  0.21131  0.95975  0.71942  1.0000
  S   S154      1.0  0.39258  0.97449  0.62449  1.0000
  H   H467      1.0  0.23791  0.71059  0.50727  1.0000
  N   N39       1.0  0.18522  0.93721  0.72142  1.0000
  H   H468      1.0  0.04319  0.49262  0.65773  1.0000
  C   C474      1.0  0.19106  0.95439  0.72694  1.0000
  H   H469      1.0  0.01008  0.61588  0.48460  1.0000
  H   H470      1.0  0.38160  0.94214  0.49481  1.0000
  Fe  Fe75      1.0  0.36296  0.97670  0.64854  1.0000
  H   H471      1.0  0.25209  0.82367  0.49641  1.0000
  H   H472      1.0  0.09445  0.48551  0.59584  1.0000
  C   C475      1.0  0.16401  0.93170  0.72946  1.0000
  S   S155      1.0  0.34097  0.97842  0.62495  1.0000
  S   S156      1.0  0.20345  0.53993  0.73521  1.0000
  H   H473      1.0  0.31783  0.58530  0.81159  1.0000
  H   H474      1.0  0.24077  0.69401  0.80984  1.0000
  Fe  Fe76      1.0  0.37944  0.64313  0.95579  1.0000
  S   S157      1.0  0.34725  0.63383  0.96109  1.0000
  S   S158      1.0  0.38927  0.66332  0.92505  1.0000
  H   H475      1.0  0.25360  0.57097  0.88512  1.0000
  Fe  Fe77      1.0  0.36376  0.60200  0.97234  1.0000
  S   S159      1.0  0.35366  0.57453  0.96069  1.0000
  S   S160      1.0  0.28638  0.81475  0.75729  1.0000
  S   S161      1.0  0.39652  0.61093  0.96571  1.0000
  S   S162      1.0  0.16452  0.79384  0.94834  1.0000
  Fe  Fe78      1.0  0.29336  0.70086  0.86088  1.0000
  S   S163      1.0  0.27395  0.68621  0.88966  1.0000
  S   S164      1.0  0.32901  0.69543  0.85487  1.0000
  Fe  Fe79      1.0  0.25454  0.72240  0.84090  1.0000
  S   S165      1.0  0.23184  0.70942  0.86854  1.0000
  S   S166      1.0  0.24109  0.74079  0.81208  1.0000
  Fe  Fe80      1.0  0.25350  0.71767  0.88871  1.0000
  S   S167      1.0  0.24733  0.73199  0.91921  1.0000
  Fe  Fe81      1.0  0.25438  0.67939  0.86671  1.0000
  S   S168      1.0  0.24630  0.64665  0.87024  1.0000
  S   S169      1.0  0.27450  0.73288  0.86111  1.0000
  S   S170      1.0  0.27545  0.69176  0.83789  1.0000
  Fe  Fe82      1.0  0.32462  0.49630  0.86529  1.0000
  S   S171      1.0  0.34505  0.51474  0.84018  1.0000
  S   S172      1.0  0.29004  0.50880  0.86418  1.0000
  Fe  Fe83      1.0  0.36683  0.51046  0.86469  1.0000
  S   S173      1.0  0.38125  0.53689  0.87324  1.0000
  Fe  Fe84      1.0  0.17370  0.85676  0.97694  1.0000
  S   S174      1.0  0.34579  0.49323  0.89042  1.0000
  C   C476      1.0  0.18881  0.48651  0.76019  1.0000
  C   C477      1.0  0.30367  0.71634  0.92279  1.0000
  C   C478      1.0  0.30537  0.69373  0.95624  1.0000
  Fe  Fe85      1.0  0.25231  0.57239  0.76208  1.0000
  S   S175      1.0  0.22264  0.56141  0.77978  1.0000
  S   S176      1.0  0.28274  0.55232  0.76974  1.0000
  Fe  Fe86      1.0  0.15385  0.97193  0.85765  1.0000
  C   C479      1.0  0.14709  0.49184  0.75299  1.0000
  Fe  Fe87      1.0  0.21202  0.59540  0.78248  1.0000
  S   S177      1.0  0.19701  0.60782  0.81305  1.0000
  S   S178      1.0  0.18727  0.97402  0.84166  1.0000
  S   S179      1.0  0.24251  0.60595  0.76660  1.0000
  H   H476      1.0  0.30879  0.65000  0.86232  1.0000
  H   H477      1.0  0.23410  0.66390  0.75122  1.0000
  H   H478      1.0  0.17944  0.51320  0.77676  1.0000
  H   H479      1.0  0.27229  0.82523  0.80289  1.0000
  H   H480      1.0  0.15868  0.55894  0.73965  1.0000
  N   N40       1.0  0.29244  0.57304  0.83249  1.0000
  Fe  Fe88      1.0  0.21117  0.56776  0.74796  1.0000
  C   C480      1.0  0.21552  0.91011  0.75604  1.0000
  C   C481      1.0  0.19804  0.89940  0.76138  1.0000
  H   H481      1.0  0.15762  0.93736  0.74490  1.0000
  H   H482      1.0  0.37651  0.63663  0.88228  1.0000
  H   H483      1.0  0.14541  0.89007  0.94476  1.0000
  H   H484      1.0  0.34050  0.60878  0.92369  1.0000
  H   H485      1.0  0.20124  0.64775  0.76145  1.0000
  H   H486      1.0  0.22241  0.68268  0.83072  1.0000
  N   N41       1.0  0.33597  0.70891  0.93811  1.0000
  S   S180      1.0  0.19694  0.87763  0.74901  1.0000
  H   H487      1.0  0.29488  0.72403  0.91001  1.0000
  C   C482      1.0  0.33758  0.63762  0.87571  1.0000
  C   C483      1.0  0.28589  0.51833  0.83763  1.0000
  C   C484      1.0  0.30121  0.51269  0.82072  1.0000
  C   C485      1.0  0.29989  0.52299  0.79999  1.0000
  C   C486      1.0  0.28275  0.53846  0.79575  1.0000
  C   C487      1.0  0.26655  0.54309  0.81238  1.0000
  C   C488      1.0  0.26813  0.53303  0.83328  1.0000
  H   H488      1.0  0.31432  0.50048  0.82358  1.0000
  H   H489      1.0  0.31241  0.51906  0.78726  1.0000
  H   H490      1.0  0.25324  0.55499  0.80938  1.0000
  H   H491      1.0  0.25599  0.53723  0.84619  1.0000
  H   H492      1.0  0.26337  0.84677  0.78436  1.0000
  H   H493      1.0  0.20176  0.91889  0.92664  1.0000
  H   H494      1.0  0.34752  0.64479  0.86210  1.0000
  C   C489      1.0  0.25537  0.75969  0.79589  1.0000
  C   C490      1.0  0.27330  0.76515  0.80173  1.0000
  C   C491      1.0  0.28313  0.78164  0.78939  1.0000
  C   C492      1.0  0.27504  0.79279  0.77123  1.0000
  C   C493      1.0  0.25753  0.78683  0.76510  1.0000
  C   C494      1.0  0.24775  0.77035  0.77736  1.0000
  H   H495      1.0  0.27944  0.75688  0.81588  1.0000
  H   H496      1.0  0.29685  0.78595  0.79411  1.0000
  H   H497      1.0  0.25150  0.79481  0.75090  1.0000
  H   H498      1.0  0.23399  0.76611  0.77265  1.0000
  C   C495      1.0  0.23181  0.63914  0.85265  1.0000
  C   C496      1.0  0.21229  0.63239  0.86081  1.0000
  C   C497      1.0  0.20179  0.62327  0.84829  1.0000
  C   C498      1.0  0.21089  0.62016  0.82760  1.0000
  C   C499      1.0  0.23038  0.62712  0.81922  1.0000
  C   C500      1.0  0.24077  0.63669  0.83168  1.0000
  H   H499      1.0  0.20544  0.63379  0.87710  1.0000
  H   H500      1.0  0.18676  0.61802  0.85495  1.0000
  H   H501      1.0  0.23749  0.62511  0.80323  1.0000
  H   H502      1.0  0.25609  0.64143  0.82537  1.0000
  C   C501      1.0  0.17481  0.90262  0.93766  1.0000
  C   C502      1.0  0.15412  0.90160  0.93472  1.0000
  S   S181      1.0  0.18795  0.88441  0.95670  1.0000
  H   H503      1.0  0.25445  0.84728  0.81245  1.0000
  H   H504      1.0  0.21721  0.78449  0.82071  1.0000
  C   C503      1.0  0.18786  0.77714  0.94004  1.0000
  C   C504      1.0  0.18887  0.76729  0.92215  1.0000
  C   C505      1.0  0.20712  0.75367  0.91533  1.0000
  C   C506      1.0  0.22440  0.74964  0.92654  1.0000
  C   C507      1.0  0.22342  0.75958  0.94437  1.0000
  C   C508      1.0  0.20529  0.77338  0.95104  1.0000
  H   H505      1.0  0.17541  0.77004  0.91363  1.0000
  H   H506      1.0  0.20766  0.74601  0.90166  1.0000
  H   H507      1.0  0.23672  0.75647  0.95313  1.0000
  H   H508      1.0  0.14192  0.51779  0.77066  1.0000
  C   C509      1.0  0.36067  0.56580  0.93541  1.0000
  C   C510      1.0  0.37819  0.57147  0.92098  1.0000
  C   C511      1.0  0.38397  0.56290  0.90180  1.0000
  C   C512      1.0  0.37241  0.54852  0.89683  1.0000
  C   C513      1.0  0.35468  0.54318  0.91112  1.0000
  C   C514      1.0  0.34887  0.55178  0.93022  1.0000
  H   H509      1.0  0.38760  0.58205  0.92481  1.0000
  H   H510      1.0  0.39778  0.56710  0.89094  1.0000
  H   H511      1.0  0.34550  0.53230  0.90757  1.0000
  H   H512      1.0  0.33525  0.54731  0.94120  1.0000
  C   C515      1.0  0.21554  0.92837  0.76451  1.0000
  C   C516      1.0  0.37155  0.67220  0.90639  1.0000
  C   C517      1.0  0.37969  0.68087  0.88597  1.0000
  C   C518      1.0  0.36635  0.68809  0.87051  1.0000
  C   C519      1.0  0.34462  0.68718  0.87539  1.0000
  C   C520      1.0  0.33624  0.67885  0.89592  1.0000
  C   C521      1.0  0.34975  0.67118  0.91135  1.0000
  H   H513      1.0  0.39647  0.68180  0.88197  1.0000
  H   H514      1.0  0.37296  0.69444  0.85465  1.0000
  H   H515      1.0  0.31948  0.67795  0.89979  1.0000
  H   H516      1.0  0.34317  0.66484  0.92707  1.0000
  C   C522      1.0  0.18578  0.91790  0.92446  1.0000
  C   C523      1.0  0.35802  0.71198  0.93729  1.0000
  H   H517      1.0  0.33522  0.68887  0.96789  1.0000
  H   H518      1.0  0.19178  0.80102  0.79571  1.0000
  C   C524      1.0  0.19319  0.65941  0.79148  1.0000
  H   H519      1.0  0.22898  0.93677  0.75979  1.0000
  C   C525      1.0  0.15562  0.93071  0.90538  1.0000
  S   S182      1.0  0.14280  0.94739  0.88515  1.0000
  C   C526      1.0  0.30717  0.57353  0.81253  1.0000
  H   H520      1.0  0.28995  0.55078  0.88391  1.0000
  C   C527      1.0  0.26464  0.57184  0.87044  1.0000
  H   H521      1.0  0.18496  0.94338  0.89823  1.0000
  H   H522      1.0  0.37319  0.62346  0.90887  1.0000
  H   H523      1.0  0.24454  0.68420  0.77585  1.0000
  C   C528      1.0  0.15320  0.50501  0.76498  1.0000
  H   H524      1.0  0.37653  0.60869  0.88694  1.0000
  H   H525      1.0  0.35855  0.72654  0.94357  1.0000
  C   C529      1.0  0.18055  0.92553  0.78398  1.0000
  S   S183      1.0  0.14128  0.97132  0.82714  1.0000
  H   H526      1.0  0.31454  0.55248  0.85023  1.0000
  N   N42       1.0  0.16744  0.84932  0.90711  1.0000
  C   C530      1.0  0.16573  0.86830  0.89440  1.0000
  C   C531      1.0  0.18447  0.84267  0.91778  1.0000
  C   C532      1.0  0.18166  0.88087  0.89162  1.0000
  C   C533      1.0  0.20053  0.85497  0.91559  1.0000
  C   C534      1.0  0.19916  0.87410  0.90230  1.0000
  C   C535      1.0  0.15076  0.83614  0.90993  1.0000
  H   H527      1.0  0.15186  0.87405  0.88659  1.0000
  H   H528      1.0  0.18556  0.82790  0.92830  1.0000
  H   H529      1.0  0.17999  0.89616  0.88199  1.0000
  H   H530      1.0  0.21356  0.85006  0.92475  1.0000
  H   H531      1.0  0.21113  0.88413  0.90110  1.0000
  H   H532      1.0  0.14211  0.83549  0.92638  1.0000
  H   H533      1.0  0.13915  0.84199  0.89869  1.0000
  H   H534      1.0  0.15783  0.81993  0.90737  1.0000
  C   C536      1.0  0.28506  0.56070  0.86983  1.0000
  H   H535      1.0  0.19736  0.83486  0.77291  1.0000
  S   S184      1.0  0.38528  0.48152  0.85192  1.0000
  H   H536      1.0  0.12854  0.91473  0.91673  1.0000
  C   C537      1.0  0.30260  0.63190  0.89329  1.0000
  H   H537      1.0  0.26736  0.59335  0.81865  1.0000
  Fe  Fe89      1.0  0.35985  0.48314  0.83142  1.0000
  C   C538      1.0  0.39753  0.51031  0.92738  1.0000
  H   H538      1.0  0.29855  0.57731  0.79852  1.0000
  N   N43       1.0  0.26413  0.49788  0.75113  1.0000
  H   H539      1.0  0.16702  0.89885  0.77988  1.0000
  H   H540      1.0  0.18999  0.67209  0.82056  1.0000
  S   S185      1.0  0.19671  0.60072  0.75279  1.0000
  H   H541      1.0  0.36389  0.48179  0.96058  1.0000
  S   S186      1.0  0.14537  0.84621  0.96890  1.0000
  C   C539      1.0  0.29889  0.56161  0.85064  1.0000
  S   S187      1.0  0.19757  0.96135  0.78503  1.0000
  H   H542      1.0  0.16684  0.93168  0.79441  1.0000
  H   H543      1.0  0.24623  0.52809  0.74971  1.0000
  N   N44       1.0  0.21787  0.67931  0.79963  1.0000
  C   C540      1.0  0.23010  0.67723  0.78039  1.0000
  C   C541      1.0  0.19952  0.67074  0.80519  1.0000
  C   C542      1.0  0.22428  0.66589  0.76636  1.0000
  C   C543      1.0  0.20574  0.65688  0.77203  1.0000
  H   H544      1.0  0.33236  0.72848  0.90858  1.0000
  N   N45       1.0  0.38375  0.50430  0.94505  1.0000
  H   H545      1.0  0.40427  0.52461  0.92584  1.0000
  C   C544      1.0  0.40265  0.49846  0.91067  1.0000
  H   H546      1.0  0.29798  0.68380  0.96967  1.0000
  H   H547      1.0  0.28553  0.63422  0.89349  1.0000
  N   N46       1.0  0.24002  0.82729  0.79864  1.0000
  C   C545      1.0  0.22584  0.83674  0.78521  1.0000
  C   C546      1.0  0.23673  0.80905  0.81167  1.0000
  C   C547      1.0  0.20829  0.82747  0.78395  1.0000
  C   C548      1.0  0.21926  0.79941  0.81093  1.0000
  C   C549      1.0  0.20509  0.80860  0.79681  1.0000
  C   C550      1.0  0.25834  0.83721  0.79977  1.0000
  H   H548      1.0  0.22813  0.85144  0.77521  1.0000
  H   H549      1.0  0.24800  0.80147  0.82226  1.0000
  H   H550      1.0  0.36106  0.52121  0.96616  1.0000
  C   C551      1.0  0.32645  0.69667  0.95515  1.0000
  C   C552      1.0  0.29395  0.70363  0.93993  1.0000
  C   C553      1.0  0.19791  0.93645  0.77808  1.0000
  H   H551      1.0  0.31687  0.55794  0.81134  1.0000
  Fe  Fe90      1.0  0.22804  0.61015  0.73662  1.0000
  C   C554      1.0  0.33361  0.61776  0.91013  1.0000
  H   H552      1.0  0.36650  0.71281  0.92073  1.0000
  C   C555      1.0  0.27748  0.49560  0.76593  1.0000
  N   N47       1.0  0.34624  0.62664  0.89295  1.0000
  C   C556      1.0  0.31564  0.64063  0.87572  1.0000
  C   C557      1.0  0.18067  0.90699  0.77567  1.0000
  C   C558      1.0  0.25832  0.58378  0.85196  1.0000
  C   C559      1.0  0.14459  0.91561  0.91876  1.0000
  H   H553      1.0  0.17905  0.65195  0.79626  1.0000
  C   C560      1.0  0.37851  0.51669  0.96260  1.0000
  C   C561      1.0  0.36924  0.62364  0.89271  1.0000
  C   C562      1.0  0.17632  0.93179  0.90831  1.0000
  H   H554      1.0  0.36696  0.69862  0.94672  1.0000
  C   C563      1.0  0.32481  0.71888  0.92216  1.0000
  H   H555      1.0  0.18042  0.96354  0.73795  1.0000
  C   C564      1.0  0.27255  0.58433  0.83302  1.0000
  H   H556      1.0  0.38549  0.53147  0.95874  1.0000
  H   H557      1.0  0.24237  0.59226  0.85227  1.0000
  C   C565      1.0  0.22401  0.69124  0.81424  1.0000
  H   H558      1.0  0.30168  0.61342  0.92437  1.0000
  H   H559      1.0  0.22868  0.90499  0.74456  1.0000
  Fe  Fe91      1.0  0.16421  0.81408  0.97350  1.0000
  C   C566      1.0  0.39384  0.48022  0.91225  1.0000
  H   H560      1.0  0.20463  0.78078  0.96489  1.0000
  H   H561      1.0  0.28440  0.50879  0.76816  1.0000
  C   C567      1.0  0.31163  0.62031  0.91060  1.0000
  H   H562      1.0  0.21387  0.70672  0.81405  1.0000
  H   H563      1.0  0.27758  0.70148  0.94055  1.0000
  H   H564      1.0  0.41297  0.50369  0.89635  1.0000
  C   C568      1.0  0.17425  0.50242  0.76842  1.0000
  H   H565      1.0  0.20529  0.48468  0.76237  1.0000
  H   H566      1.0  0.23155  0.96943  0.81366  1.0000
  H   H567      1.0  0.13096  0.49467  0.74941  1.0000
  C   C569      1.0  0.37492  0.48650  0.94665  1.0000
  C   C570      1.0  0.25827  0.51865  0.73939  1.0000
  S   S188      1.0  0.25766  0.86986  0.73849  1.0000
  H   H568      1.0  0.38452  0.50761  0.97705  1.0000
  C   C571      1.0  0.25545  0.48118  0.74818  1.0000
  Fe  Fe92      1.0  0.17436  0.97524  0.81127  1.0000
  S   S189      1.0  0.19331  0.82463  0.98004  1.0000
  H   H569      1.0  0.24492  0.48288  0.73639  1.0000
  H   H570      1.0  0.27229  0.52697  0.73439  1.0000
  C   C572      1.0  0.65084  0.39156  0.07697  1.0000
  S   S190      1.0  0.65218  0.45118  0.17169  1.0000
  C   C573      1.0  0.65770  0.35980  0.06246  1.0000
  H   H571      1.0  0.65280  0.34900  0.05394  1.0000
  H   H572      1.0  0.66914  0.42023  0.20431  1.0000
  C   C574      1.0  0.79995  0.08508  0.21066  1.0000
  H   H573      1.0  0.87248  0.01478  0.02607  1.0000
  Fe  Fe93      1.0  0.85233  0.00525  0.12514  1.0000
  S   S191      1.0  0.86395  0.00430  0.15641  1.0000
  S   S192      1.0  0.86621  0.02828  0.09787  1.0000
  H   H574      1.0  0.79975  0.07844  0.11650  1.0000
  H   H575      1.0  0.81032  0.27160  0.06818  1.0000
  Fe  Fe94      1.0  0.82995  0.00282  0.17047  1.0000
  H   H576      1.0  0.61270  0.37377  0.06886  1.0000
  C   C575      1.0  0.85110  0.08210  0.11825  1.0000
  S   S193      1.0  0.81800  0.00575  0.13925  1.0000
  Fe  Fe95      1.0  0.85154  0.16342  0.02269  1.0000
  S   S194      1.0  0.81815  0.15857  0.02389  1.0000
  S   S195      1.0  0.86055  0.17760  0.04869  1.0000
  H   H577      1.0  0.67559  0.39848  0.09206  1.0000
  C   C576      1.0  0.73992  0.38957  0.17880  1.0000
  H   H578      1.0  0.68762  0.34039  0.06676  1.0000
  H   H579      1.0  0.62593  0.37897  0.04188  1.0000
  H   H580      1.0  0.80416  0.10954  0.08931  1.0000
  Fe  Fe96      1.0  0.83258  0.12652  0.01650  1.0000
  S   S196      1.0  0.81787  0.09869  0.03536  1.0000
  C   C577      1.0  0.70683  0.38946  0.16636  1.0000
  S   S197      1.0  0.86599  0.13071  0.01725  1.0000
  Fe  Fe97      1.0  0.74121  0.27334  0.15067  1.0000
  S   S198      1.0  0.71477  0.27238  0.13232  1.0000
  S   S199      1.0  0.73114  0.29096  0.17923  1.0000
  Fe  Fe98      1.0  0.77155  0.24193  0.12533  1.0000
  S   S200      1.0  0.74764  0.23858  0.10552  1.0000
  S   S201      1.0  0.80432  0.22314  0.12304  1.0000
  Fe  Fe99      1.0  0.73933  0.27338  0.10335  1.0000
  S   S202      1.0  0.73595  0.29199  0.07089  1.0000
  Fe  Fe100     1.0  0.72526  0.23781  0.13611  1.0000
  S   S203      1.0  0.70100  0.21610  0.14275  1.0000
  S   S204      1.0  0.76527  0.27713  0.12114  1.0000
  S   S205      1.0  0.74979  0.23834  0.15642  1.0000
  C   C578      1.0  0.84888  0.07466  0.99610  1.0000
  S   S206      1.0  0.61474  0.36215  0.00597  1.0000
  S   S207      1.0  0.63378  0.41369  0.00680  1.0000
  S   S208      1.0  0.73205  0.44588  0.21742  1.0000
  C   C579      1.0  0.81731  0.10212  0.09767  1.0000
  Fe  Fe101     1.0  0.64231  0.33614  0.00846  1.0000
  S   S209      1.0  0.64636  0.31215  0.03772  1.0000
  S   S210      1.0  0.66722  0.35693  0.99773  1.0000
  C   C580      1.0  0.71100  0.29689  0.06187  1.0000
  C   C581      1.0  0.69290  0.29032  0.07458  1.0000
  C   C582      1.0  0.67322  0.29491  0.06697  1.0000
  C   C583      1.0  0.67145  0.30612  0.04664  1.0000
  C   C584      1.0  0.68965  0.31245  0.03388  1.0000
  C   C585      1.0  0.70929  0.30789  0.04147  1.0000
  H   H581      1.0  0.69401  0.28174  0.09030  1.0000
  H   H582      1.0  0.65929  0.28982  0.07694  1.0000
  H   H583      1.0  0.68877  0.32070  0.01808  1.0000
  H   H584      1.0  0.72321  0.31299  0.03150  1.0000
  N   N48       1.0  0.86732  0.04787  0.01942  1.0000
  H   H585      1.0  0.79483  0.25373  0.08594  1.0000
  C   C586      1.0  0.83177  0.07443  0.12325  1.0000
  C   C587      1.0  0.71515  0.23297  0.21794  1.0000
  C   C588      1.0  0.84339  0.18972  0.06895  1.0000
  C   C589      1.0  0.85285  0.19727  0.08341  1.0000
  C   C590      1.0  0.84051  0.20738  0.09968  1.0000
  C   C591      1.0  0.81840  0.21057  0.10161  1.0000
  C   C592      1.0  0.80861  0.20303  0.08723  1.0000
  C   C593      1.0  0.82113  0.19233  0.07102  1.0000
  H   H586      1.0  0.86996  0.19527  0.08206  1.0000
  H   H587      1.0  0.84823  0.21295  0.11077  1.0000
  H   H588      1.0  0.79150  0.20519  0.08873  1.0000
  H   H589      1.0  0.81362  0.18645  0.06001  1.0000
  H   H590      1.0  0.83220  0.14237  0.08374  1.0000
  C   C594      1.0  0.69783  0.16576  0.20093  1.0000
  H   H591      1.0  0.83014  0.12754  0.06319  1.0000
  H   H592      1.0  0.71911  0.31734  0.21161  1.0000
  C   C595      1.0  0.71442  0.17775  0.19665  1.0000
  C   C596      1.0  0.71552  0.19350  0.17894  1.0000
  C   C597      1.0  0.70027  0.19695  0.16527  1.0000
  C   C598      1.0  0.68384  0.18487  0.16951  1.0000
  C   C599      1.0  0.81974  0.07626  0.20079  1.0000
  C   C600      1.0  0.62429  0.38286  0.05820  1.0000
  H   H593      1.0  0.72818  0.20286  0.17586  1.0000
  H   H594      1.0  0.67197  0.18750  0.15901  1.0000
  C   C601      1.0  0.81792  0.22770  0.03015  1.0000
  C   C602      1.0  0.83120  0.07970  0.05335  1.0000
  C   C603      1.0  0.85246  0.07959  0.05504  1.0000
  C   C604      1.0  0.86280  0.06388  0.06900  1.0000
  C   C605      1.0  0.85196  0.04826  0.08160  1.0000
  C   C606      1.0  0.83063  0.04846  0.08011  1.0000
  C   C607      1.0  0.82035  0.06406  0.06591  1.0000
  H   H595      1.0  0.86105  0.09140  0.04538  1.0000
  H   H596      1.0  0.87934  0.06375  0.06999  1.0000
  H   H597      1.0  0.82217  0.03641  0.08961  1.0000
  H   H598      1.0  0.80390  0.06397  0.06464  1.0000
  H   H599      1.0  0.71635  0.47458  0.18342  1.0000
  C   C608      1.0  0.82250  0.05615  0.19492  1.0000
  H   H600      1.0  0.72561  0.24465  0.21210  1.0000
  H   H601      1.0  0.83804  0.04896  0.18843  1.0000
  H   H602      1.0  0.83317  0.08461  0.19847  1.0000
  H   H603      1.0  0.86456  0.07401  0.12581  1.0000
  C   C609      1.0  0.74537  0.30776  0.18824  1.0000
  C   C610      1.0  0.73533  0.31896  0.20484  1.0000
  C   C611      1.0  0.74610  0.33218  0.21280  1.0000
  C   C612      1.0  0.76719  0.33414  0.20440  1.0000
  C   C613      1.0  0.77720  0.32301  0.18776  1.0000
  C   C614      1.0  0.76634  0.30997  0.17963  1.0000
  H   H604      1.0  0.75178  0.43814  0.17171  1.0000
  H   H605      1.0  0.79352  0.32439  0.18117  1.0000
  H   H606      1.0  0.77430  0.30143  0.16690  1.0000
  C   C615      1.0  0.66864  0.43705  0.05290  1.0000
  C   C616      1.0  0.64798  0.44602  0.04985  1.0000
  C   C617      1.0  0.63770  0.43883  0.03550  1.0000
  C   C618      1.0  0.64775  0.42235  0.02433  1.0000
  C   C619      1.0  0.66838  0.41330  0.02744  1.0000
  C   C620      1.0  0.67884  0.42081  0.04143  1.0000
  H   H607      1.0  0.89989  0.04972  0.01948  1.0000
  H   H608      1.0  0.62179  0.44606  0.03310  1.0000
  H   H609      1.0  0.67640  0.40073  0.01887  1.0000
  C   C621      1.0  0.83867  0.12791  0.07664  1.0000
  C   C622      1.0  0.67502  0.44873  0.18370  1.0000
  H   H610      1.0  0.68090  0.26123  0.19514  1.0000
  Fe  Fe102     1.0  0.63998  0.38267  0.99371  1.0000
  H   H611      1.0  0.65345  0.26774  0.99577  1.0000
  C   C623      1.0  0.69758  0.43042  0.20962  1.0000
  C   C624      1.0  0.67957  0.43197  0.19966  1.0000
  N   N49       1.0  0.79730  0.25099  0.05343  1.0000
  H   H612      1.0  0.75289  0.38122  0.18701  1.0000
  C   C625      1.0  0.72355  0.42052  0.15957  1.0000
  C   C626      1.0  0.79954  0.22530  0.02282  1.0000
  C   C627      1.0  0.68255  0.16945  0.18733  1.0000
  H   H613      1.0  0.87857  0.02793  0.04625  1.0000
  C   C628      1.0  0.75701  0.42103  0.17236  1.0000
  S   S211      1.0  0.68202  0.44464  0.07161  1.0000
  C   C629      1.0  0.81471  0.08455  0.11301  1.0000
  S   S212      1.0  0.80901  0.01796  0.19715  1.0000
  Fe  Fe103     1.0  0.82356  0.16902  0.98868  1.0000
  C   C630      1.0  0.68848  0.20322  0.23331  1.0000
  N   N50       1.0  0.73956  0.41021  0.17048  1.0000
  H   H614      1.0  0.77030  0.41819  0.15935  1.0000
  H   H615      1.0  0.66964  0.16031  0.19055  1.0000
  C   C631      1.0  0.80542  0.04485  0.19887  1.0000
  C   C632      1.0  0.67740  0.35485  0.06966  1.0000
  H   H616      1.0  0.76562  0.23383  0.02558  1.0000
  N   N51       1.0  0.78410  0.16220  0.17520  1.0000
  C   C633      1.0  0.78426  0.17845  0.15880  1.0000
  C   C634      1.0  0.76888  0.14941  0.17856  1.0000
  C   C635      1.0  0.76869  0.18243  0.14546  1.0000
  C   C636      1.0  0.75302  0.15299  0.16555  1.0000
  C   C637      1.0  0.75293  0.16965  0.14893  1.0000
  C   C638      1.0  0.80054  0.15802  0.18906  1.0000
  H   H617      1.0  0.79638  0.18856  0.15599  1.0000
  H   H618      1.0  0.76884  0.13646  0.19151  1.0000
  H   H619      1.0  0.76872  0.19553  0.13268  1.0000
  H   H620      1.0  0.74054  0.14326  0.16871  1.0000
  H   H621      1.0  0.74035  0.17299  0.13910  1.0000
  H   H622      1.0  0.81123  0.14332  0.18613  1.0000
  H   H623      1.0  0.81021  0.17091  0.18653  1.0000
  H   H624      1.0  0.79321  0.15614  0.20602  1.0000
  C   C639      1.0  0.86731  0.08371  0.98944  1.0000
  C   C640      1.0  0.78002  0.23576  0.03103  1.0000
  H   H625      1.0  0.90005  0.08191  0.99287  1.0000
  C   C641      1.0  0.78274  0.07416  0.21352  1.0000
  H   H626      1.0  0.76279  0.41550  0.18790  1.0000
  C   C642      1.0  0.67053  0.38721  0.08421  1.0000
  C   C643      1.0  0.68390  0.36876  0.08044  1.0000
  H   H627      1.0  0.85164  0.02735  0.04411  1.0000
  C   C644      1.0  0.88551  0.05663  0.01293  1.0000
  S   S213      1.0  0.85649  0.17616  0.98784  1.0000
  C   C645      1.0  0.77916  0.24858  0.04648  1.0000
  H   H628      1.0  0.83311  0.21912  0.02435  1.0000
  C   C646      1.0  0.72356  0.37889  0.17689  1.0000
  H   H629      1.0  0.83018  0.06040  0.13471  1.0000
  H   H630      1.0  0.67272  0.29511  0.00191  1.0000
  C   C647      1.0  0.84918  0.05657  0.01111  1.0000
  H   H631      1.0  0.72606  0.17534  0.20721  1.0000
  N   N52       1.0  0.64485  0.37810  0.06590  1.0000
  C   C648      1.0  0.88575  0.07473  0.99792  1.0000
  H   H632      1.0  0.73814  0.34068  0.22553  1.0000
  N   N53       1.0  0.83640  0.10941  0.09270  1.0000
  N   N54       1.0  0.69802  0.23278  0.20816  1.0000
  H   H633      1.0  0.72337  0.43682  0.15271  1.0000
  H   H634      1.0  0.68814  0.24154  0.17763  1.0000
  C   C649      1.0  0.86755  0.02851  0.03461  1.0000
  C   C650      1.0  0.69343  0.24860  0.18993  1.0000
  C   C651      1.0  0.85310  0.09983  0.10298  1.0000
  C   C652      1.0  0.78547  0.05417  0.20768  1.0000
  H   H635      1.0  0.70094  0.41757  0.22203  1.0000
  H   H636      1.0  0.86822  0.10559  0.09909  1.0000
  C   C653      1.0  0.81648  0.24056  0.04568  1.0000
  C   C654      1.0  0.68462  0.21833  0.21576  1.0000
  H   H637      1.0  0.83462  0.04993  0.01651  1.0000
  H   H638      1.0  0.69486  0.41380  0.04359  1.0000
  H   H639      1.0  0.80041  0.21513  0.01100  1.0000
  S   S214      1.0  0.68818  0.46446  0.12176  1.0000
  Fe  Fe104     1.0  0.67085  0.46974  0.09344  1.0000
  H   H640      1.0  0.70769  0.25576  0.18219  1.0000
  H   H641      1.0  0.63993  0.45856  0.05847  1.0000
  H   H642      1.0  0.67121  0.21799  0.20783  1.0000
  H   H643      1.0  0.69934  0.36530  0.08570  1.0000
  S   S215      1.0  0.69492  0.14671  0.22349  1.0000
  S   S216      1.0  0.63846  0.47562  0.11257  1.0000
  C   C655      1.0  0.71071  0.44593  0.20396  1.0000
  H   H644      1.0  0.85553  0.12874  0.06978  1.0000
  C   C656      1.0  0.70627  0.46250  0.18787  1.0000
  H   H645      1.0  0.78204  0.27623  0.07015  1.0000
  H   H646      1.0  0.76388  0.25652  0.05296  1.0000
  C   C657      1.0  0.68861  0.46378  0.17763  1.0000
  H   H647      1.0  0.77218  0.04554  0.21075  1.0000
  H   H648      1.0  0.64077  0.40617  0.07957  1.0000
  C   C658      1.0  0.79606  0.26376  0.07024  1.0000
  H   H649      1.0  0.61799  0.39981  0.05710  1.0000
  H   H650      1.0  0.83074  0.24169  0.05189  1.0000
  H   H651      1.0  0.76738  0.08082  0.22065  1.0000
  H   H652      1.0  0.69391  0.38145  0.16499  1.0000
  Fe  Fe105     1.0  0.65628  0.47231  0.14041  1.0000
  C   C659      1.0  0.66803  0.27078  0.98546  1.0000
  S   S217      1.0  0.78171  0.35001  0.21434  1.0000
  H   H653      1.0  0.72388  0.36252  0.18351  1.0000
  C   C660      1.0  0.70683  0.41038  0.15755  1.0000
  H   H654      1.0  0.69381  0.41885  0.14948  1.0000
  S   S218      1.0  0.79748  0.10905  0.22047  1.0000
  S   S219      1.0  0.77770  0.40449  0.23176  1.0000
  H   H655      1.0  0.68522  0.47681  0.16542  1.0000
  H   H656      1.0  0.83427  0.08192  0.99010  1.0000
  C   C661      1.0  0.67888  0.28618  0.98896  1.0000
  C   C662      1.0  0.65901  0.46605  0.23262  1.0000
  Fe  Fe106     1.0  0.88902  0.44629  0.34966  1.0000
  H   H657      1.0  0.82026  0.03389  0.24524  1.0000
  S   S220      1.0  0.90894  0.41430  0.35188  1.0000
  H   H658      1.0  0.78155  0.22892  0.47417  1.0000
  H   H659      1.0  0.70383  0.15266  0.43215  1.0000
  C   C663      1.0  0.64707  0.04602  0.44596  1.0000
  Fe  Fe107     1.0  0.76760  0.11915  0.24256  1.0000
  S   S221      1.0  0.86372  0.45197  0.32887  1.0000
  H   H660      1.0  0.86734  0.39267  0.30289  1.0000
  C   C664      1.0  0.64676  0.05791  0.35188  1.0000
  Fe  Fe108     1.0  0.73710  0.38299  0.27631  1.0000
  S   S222      1.0  0.77139  0.36856  0.27274  1.0000
  S   S223      1.0  0.70973  0.37256  0.29954  1.0000
  Fe  Fe109     1.0  0.77756  0.40216  0.26696  1.0000
  S   S224      1.0  0.80284  0.41858  0.27514  1.0000
  H   H661      1.0  0.62581  0.04572  0.37915  1.0000
  S   S225      1.0  0.74338  0.41610  0.27294  1.0000
  S   S226      1.0  0.90055  0.47684  0.33500  1.0000
  H   H662      1.0  0.70264  0.47854  0.24609  1.0000
  Fe  Fe110     1.0  0.72129  0.13696  0.24315  1.0000
  H   H663      1.0  0.74509  0.04769  0.27688  1.0000
  H   H664      1.0  0.90093  0.39686  0.31467  1.0000
  Fe  Fe111     1.0  0.73587  0.10764  0.28126  1.0000
  S   S227      1.0  0.76652  0.12087  0.27729  1.0000
  S   S228      1.0  0.73040  0.08102  0.30796  1.0000
  Fe  Fe112     1.0  0.74636  0.15226  0.27134  1.0000
  S   S229      1.0  0.74492  0.18437  0.28047  1.0000
  H   H665      1.0  0.70074  0.19431  0.38889  1.0000
  H   H666      1.0  0.68793  0.09906  0.33410  1.0000
  S   S230      1.0  0.71570  0.13909  0.27795  1.0000
  C   C665      1.0  0.68134  0.44631  0.25867  1.0000
  Fe  Fe113     1.0  0.89504  0.33630  0.46151  1.0000
  H   H667      1.0  0.68670  0.10518  0.36033  1.0000
  S   S231      1.0  0.91893  0.34393  0.43243  1.0000
  H   H668      1.0  0.79616  0.41051  0.41911  1.0000
  S   S232      1.0  0.81156  0.45300  0.35924  1.0000
  S   S233      1.0  0.87276  0.31325  0.46298  1.0000
  H   H669      1.0  0.82355  0.46725  0.31433  1.0000
  Fe  Fe114     1.0  0.76809  0.23010  0.37608  1.0000
  S   S234      1.0  0.73368  0.23589  0.38894  1.0000
  S   S235      1.0  0.78083  0.20128  0.36050  1.0000
  Fe  Fe115     1.0  0.77845  0.26464  0.39786  1.0000
  S   S236      1.0  0.74470  0.27270  0.41269  1.0000
  S   S237      1.0  0.80688  0.27829  0.40285  1.0000
  Fe  Fe116     1.0  0.74424  0.23804  0.41954  1.0000
  S   S238      1.0  0.73302  0.21981  0.45117  1.0000
  Fe  Fe117     1.0  0.73733  0.26987  0.38055  1.0000
  S   S239      1.0  0.71010  0.28995  0.36627  1.0000
  S   S240      1.0  0.77865  0.23011  0.40738  1.0000
  S   S241      1.0  0.77112  0.26399  0.36499  1.0000
  C   C666      1.0  0.71121  0.20666  0.45213  1.0000
  C   C667      1.0  0.69729  0.21266  0.43710  1.0000
  C   C668      1.0  0.68010  0.20183  0.43814  1.0000
  H   H670      1.0  0.69955  0.22584  0.42483  1.0000
  H   H671      1.0  0.66934  0.20660  0.42650  1.0000
  C   C669      1.0  0.81355  0.32415  0.44705  1.0000
  C   C670      1.0  0.79333  0.31951  0.44606  1.0000
  C   C671      1.0  0.79075  0.30554  0.43259  1.0000
  C   C672      1.0  0.80837  0.29656  0.41962  1.0000
  C   C673      1.0  0.82837  0.30170  0.42021  1.0000
  C   C674      1.0  0.83095  0.31531  0.43380  1.0000
  H   H672      1.0  0.73044  0.25812  0.31112  1.0000
  H   H673      1.0  0.77519  0.30194  0.43203  1.0000
  H   H674      1.0  0.84205  0.29513  0.41001  1.0000
  H   H675      1.0  0.84641  0.31934  0.43341  1.0000
  C   C675      1.0  0.75407  0.18831  0.30352  1.0000
  C   C676      1.0  0.76723  0.17263  0.31460  1.0000
  C   C677      1.0  0.77523  0.17677  0.33214  1.0000
  C   C678      1.0  0.76984  0.19646  0.33892  1.0000
  C   C679      1.0  0.75620  0.21195  0.32822  1.0000
  C   C680      1.0  0.74851  0.20793  0.31044  1.0000
  H   H676      1.0  0.77167  0.15750  0.30934  1.0000
  H   H677      1.0  0.78581  0.16474  0.34036  1.0000
  H   H678      1.0  0.75196  0.22711  0.33341  1.0000
  H   H679      1.0  0.73829  0.22007  0.30193  1.0000
  C   C681      1.0  0.63771  0.03126  0.43849  1.0000
  C   C682      1.0  0.75349  0.16293  0.43162  1.0000
  N   N55       1.0  0.87379  0.44053  0.27574  1.0000
  C   C683      1.0  0.70611  0.20303  0.24312  1.0000
  Fe  Fe118     1.0  0.74319  0.41641  0.23832  1.0000
  S   S242      1.0  0.86790  0.45844  0.37737  1.0000
  C   C684      1.0  0.68374  0.03616  0.30669  1.0000
  C   C685      1.0  0.69644  0.03280  0.32278  1.0000
  C   C686      1.0  0.71091  0.04651  0.32278  1.0000
  C   C687      1.0  0.71279  0.06369  0.30673  1.0000
  C   C688      1.0  0.70045  0.06684  0.29037  1.0000
  C   C689      1.0  0.68600  0.05308  0.29035  1.0000
  H   H680      1.0  0.69497  0.01985  0.33540  1.0000
  H   H681      1.0  0.72049  0.04390  0.33544  1.0000
  H   H682      1.0  0.70177  0.08004  0.27790  1.0000
  H   H683      1.0  0.67625  0.05580  0.27782  1.0000
  C   C690      1.0  0.71151  0.35007  0.31876  1.0000
  C   C691      1.0  0.69251  0.34306  0.32847  1.0000
  C   C692      1.0  0.69260  0.32483  0.34318  1.0000
  C   C693      1.0  0.71166  0.31346  0.34870  1.0000
  C   C694      1.0  0.73088  0.32048  0.33931  1.0000
  C   C695      1.0  0.73081  0.33884  0.32421  1.0000
  H   H684      1.0  0.67757  0.35167  0.32442  1.0000
  H   H685      1.0  0.67772  0.31952  0.35035  1.0000
  H   H686      1.0  0.74570  0.31172  0.34350  1.0000
  H   H687      1.0  0.74557  0.34424  0.31682  1.0000
  H   H688      1.0  0.83673  0.41344  0.37049  1.0000
  C   C696      1.0  0.91098  0.39599  0.37540  1.0000
  C   C697      1.0  0.89876  0.39879  0.39519  1.0000
  C   C698      1.0  0.90061  0.38291  0.41298  1.0000
  C   C699      1.0  0.91493  0.36440  0.41102  1.0000
  C   C700      1.0  0.92724  0.36200  0.39134  1.0000
  C   C701      1.0  0.92514  0.37750  0.37370  1.0000
  H   H689      1.0  0.88778  0.41302  0.39674  1.0000
  H   H690      1.0  0.89109  0.38508  0.42812  1.0000
  H   H691      1.0  0.93846  0.34792  0.38964  1.0000
  H   H692      1.0  0.93472  0.37514  0.35862  1.0000
  C   C702      1.0  0.80686  0.44470  0.33584  1.0000
  C   C703      1.0  0.79505  0.42830  0.33717  1.0000
  C   C704      1.0  0.79271  0.42059  0.31867  1.0000
  C   C705      1.0  0.80212  0.42934  0.29872  1.0000
  C   C706      1.0  0.81289  0.44640  0.29738  1.0000
  C   C707      1.0  0.81522  0.45406  0.31574  1.0000
  H   H693      1.0  0.78818  0.42112  0.35256  1.0000
  H   H694      1.0  0.78429  0.40745  0.31996  1.0000
  S   S243      1.0  0.73830  0.10409  0.24704  1.0000
  C   C708      1.0  0.56968  0.98095  0.38645  1.0000
  C   C709      1.0  0.67807  0.03955  0.42000  1.0000
  C   C710      1.0  0.72951  0.26430  0.47516  1.0000
  H   H695      1.0  0.73849  0.27095  0.33050  1.0000
  Fe  Fe119     1.0  0.65740  0.99477  0.33458  1.0000
  H   H696      1.0  0.81209  0.42986  0.40476  1.0000
  H   H697      1.0  0.64179  0.04948  0.34094  1.0000
  C   C711      1.0  0.75582  0.17557  0.41193  1.0000
  Fe  Fe120     1.0  0.84827  0.33760  0.47660  1.0000
  N   N56       1.0  0.72063  0.17200  0.40734  1.0000
  H   H698      1.0  0.83219  0.25855  0.43610  1.0000
  Fe  Fe121     1.0  0.84281  0.46559  0.35562  1.0000
  H   H699      1.0  0.70949  0.19117  0.25652  1.0000
  H   H700      1.0  0.81881  0.38107  0.43233  1.0000
  N   N57       1.0  0.82574  0.39864  0.40152  1.0000
  C   C712      1.0  0.82960  0.38249  0.41749  1.0000
  C   C713      1.0  0.85766  0.38554  0.37990  1.0000
  C   C714      1.0  0.84764  0.36750  0.41502  1.0000
  C   C715      1.0  0.86162  0.36893  0.39602  1.0000
  H   H701      1.0  0.86884  0.38722  0.36536  1.0000
  H   H702      1.0  0.85083  0.35499  0.42788  1.0000
  H   H703      1.0  0.87581  0.35750  0.39402  1.0000
  H   H704      1.0  0.79803  0.41656  0.39073  1.0000
  H   H705      1.0  0.76985  0.07175  0.27875  1.0000
  C   C716      1.0  0.90231  0.42722  0.29608  1.0000
  C   C717      1.0  0.77146  0.47385  0.25821  1.0000
  C   C718      1.0  0.80570  0.24416  0.45313  1.0000
  H   H706      1.0  0.73270  0.14462  0.45416  1.0000
  H   H707      1.0  0.68800  0.17335  0.40412  1.0000
  C   C719      1.0  0.64833  0.02071  0.42158  1.0000
  C   C720      1.0  0.92380  0.37491  0.47224  1.0000
  C   C721      1.0  0.81102  0.06881  0.26299  1.0000
  Fe  Fe122     1.0  0.67092  0.09167  0.46995  1.0000
  H   H708      1.0  0.55950  0.99327  0.39488  1.0000
  N   N58       1.0  0.73869  0.28839  0.29965  1.0000
  C   C722      1.0  0.75945  0.28400  0.29091  1.0000
  C   C723      1.0  0.72661  0.30668  0.29262  1.0000
  C   C724      1.0  0.76865  0.29814  0.27468  1.0000
  H   H709      1.0  0.71279  0.27882  0.32274  1.0000
  C   C725      1.0  0.75650  0.31689  0.26754  1.0000
  C   C726      1.0  0.72964  0.27331  0.31676  1.0000
  C   C727      1.0  0.66868  0.02487  0.41246  1.0000
  C   C728      1.0  0.73918  0.28231  0.46882  1.0000
  H   H710      1.0  0.76903  0.26953  0.29659  1.0000
  H   H711      1.0  0.67715  0.01689  0.39951  1.0000
  H   H712      1.0  0.76611  0.15979  0.44132  1.0000
  H   H713      1.0  0.69377  0.04265  0.41273  1.0000
  C   C729      1.0  0.83958  0.40040  0.38297  1.0000
  H   H714      1.0  0.85006  0.42089  0.27831  1.0000
  H   H715      1.0  0.81960  0.45364  0.28201  1.0000
  C   C730      1.0  0.86280  0.45767  0.26212  1.0000
  H   H716      1.0  0.85365  0.45171  0.25195  1.0000
  H   H717      1.0  0.75819  0.30230  0.47792  1.0000
  C   C731      1.0  0.86490  0.42270  0.28302  1.0000
  S   S244      1.0  0.66433  0.02017  0.30693  1.0000
  C   C732      1.0  0.66732  0.05036  0.43668  1.0000
  H   H718      1.0  0.79605  0.00922  0.24352  1.0000
  C   C733      1.0  0.67702  0.18463  0.45389  1.0000
  C   C734      1.0  0.80707  0.41461  0.40429  1.0000
  S   S245      1.0  0.63517  0.00317  0.41200  1.0000
  C   C735      1.0  0.89213  0.44303  0.28224  1.0000
  C   C736      1.0  0.73536  0.32126  0.27658  1.0000
  H   H719      1.0  0.77036  0.18215  0.40601  1.0000
  S   S246      1.0  0.67965  0.06961  0.44454  1.0000
  C   C737      1.0  0.87460  0.40664  0.29695  1.0000
  H   H720      1.0  0.63856  0.05414  0.45880  1.0000
  H   H721      1.0  0.71026  0.31041  0.29981  1.0000
  C   C738      1.0  0.68758  0.09217  0.35112  1.0000
  H   H722      1.0  0.72588  0.33603  0.27154  1.0000
  H   H723      1.0  0.86648  0.25253  0.45080  1.0000
  H   H724      1.0  0.77778  0.45985  0.26807  1.0000
  H   H725      1.0  0.62200  0.02818  0.44576  1.0000
  C   C739      1.0  0.70774  0.18989  0.46831  1.0000
  C   C740      1.0  0.64458  0.06662  0.38703  1.0000
  N   N59       1.0  0.67632  0.46444  0.24268  1.0000
  S   S247      1.0  0.67681  0.98596  0.36116  1.0000
  H   H726      1.0  0.97352  0.35669  0.48340  1.0000
  H   H727      1.0  0.78512  0.29469  0.26776  1.0000
  H   H728      1.0  0.89862  0.45757  0.27726  1.0000
  H   H729      1.0  0.73327  0.21788  0.24312  1.0000
  C   C741      1.0  0.76893  0.02669  0.26027  1.0000
  S   S248      1.0  0.62618  0.99683  0.35604  1.0000
  H   H730      1.0  0.75808  0.01619  0.25914  1.0000
  H   H731      1.0  0.85314  0.27211  0.46700  1.0000
  S   S249      1.0  0.65663  0.17000  0.45359  1.0000
  H   H732      1.0  0.74114  0.18963  0.38453  1.0000
  C   C742      1.0  0.89344  0.40895  0.30347  1.0000
  H   H733      1.0  0.68874  0.16547  0.48120  1.0000
  H   H734      1.0  0.66703  0.08576  0.39076  1.0000
  S   S250      1.0  0.73332  0.38485  0.24202  1.0000
  C   C743      1.0  0.71953  0.21801  0.23548  1.0000
  H   H735      1.0  0.82313  0.06976  0.24854  1.0000
  S   S251      1.0  0.81661  0.34155  0.46427  1.0000
  H   H736      1.0  0.80248  0.08495  0.26358  1.0000
  H   H737      1.0  0.67829  0.19126  0.23879  1.0000
  H   H738      1.0  0.66927  0.07233  0.32812  1.0000
  C   C744      1.0  0.66104  0.07848  0.37955  1.0000
  H   H739      1.0  0.76354  0.32806  0.25513  1.0000
  H   H740      1.0  0.70272  0.08149  0.35271  1.0000
  Fe  Fe123     1.0  0.66008  0.13828  0.47369  1.0000
  H   H741      1.0  0.79714  0.24734  0.43961  1.0000
  H   H742      1.0  0.58041  0.98831  0.37301  1.0000
  H   H743      1.0  0.63773  0.06514  0.40365  1.0000
  C   C745      1.0  0.63777  0.05587  0.37322  1.0000
  S   S252      1.0  0.87044  0.36137  0.47380  1.0000
  H   H744      1.0  0.86581  0.24749  0.47909  1.0000
  C   C746      1.0  0.76161  0.04442  0.27009  1.0000
  C   C747      1.0  0.66253  0.07066  0.34475  1.0000
  H   H745      1.0  0.91653  0.42940  0.30175  1.0000
  Fe  Fe124     1.0  0.76792  0.37256  0.23797  1.0000
  S   S253      1.0  0.75067  0.15182  0.23618  1.0000
  H   H746      1.0  0.77969  0.32678  0.45573  1.0000
  C   C748      1.0  0.85646  0.25508  0.46616  1.0000
  C   C749      1.0  0.69088  0.17873  0.46902  1.0000
  C   C750      1.0  0.75059  0.28840  0.48259  1.0000
  N   N60       1.0  0.66966  0.08052  0.35857  1.0000
  C   C751      1.0  0.94442  0.36420  0.47019  1.0000
  S   S254      1.0  0.69044  0.11798  0.46438  1.0000
  C   C752      1.0  0.73479  0.15438  0.43879  1.0000
  H   H747      1.0  0.81900  0.06364  0.27729  1.0000
  C   C753      1.0  0.73918  0.17985  0.39986  1.0000
  H   H748      1.0  0.85179  0.46819  0.27217  1.0000
  C   C754      1.0  0.80388  0.03678  0.25264  1.0000
  N   N61       1.0  0.83643  0.24684  0.46819  1.0000
  H   H749      1.0  0.87418  0.46710  0.25151  1.0000
  C   C755      1.0  0.71847  0.15903  0.42630  1.0000
  C   C756      1.0  0.70324  0.17725  0.39462  1.0000
  C   C757      1.0  0.77570  0.05807  0.27097  1.0000
  H   H750      1.0  0.73782  0.29148  0.45333  1.0000
  H   H751      1.0  0.70701  0.16861  0.38078  1.0000
  H   H752      1.0  0.69878  0.44134  0.25740  1.0000
  N   N62       1.0  0.79645  0.05436  0.26193  1.0000
  H   H753      1.0  0.67445  0.43261  0.25638  1.0000
  H   H754      1.0  0.67515  0.45020  0.27485  1.0000
  C   C758      1.0  0.79025  0.02270  0.25166  1.0000
  H   H755      1.0  0.72075  0.25964  0.46429  1.0000
  C   C759      1.0  0.82555  0.25055  0.45123  1.0000
  H   H756      1.0  0.64916  0.45375  0.23594  1.0000
  H   H757      1.0  0.69402  0.98467  0.29743  1.0000
  Fe  Fe125     1.0  0.64568  0.98641  0.38267  1.0000
  H   H758      1.0  0.91359  0.37448  0.46069  1.0000
  H   H759      1.0  0.95012  0.35533  0.45708  1.0000
  C   C760      1.0  0.79698  0.23387  0.47252  1.0000
  C   C761      1.0  0.76515  0.47196  0.23906  1.0000
  S   S255      1.0  0.63991  0.11258  0.47741  1.0000
  H   H760      1.0  0.71840  0.18515  0.48003  1.0000
  H   H761      1.0  0.59408  0.99065  0.41136  1.0000
  H   H762      1.0  0.76662  0.45668  0.23423  1.0000
  C   C762      1.0  0.68002  0.07202  0.55584  1.0000
  C   C763      1.0  0.59049  0.14751  0.58258  1.0000
  Fe  Fe126     1.0  0.52401  0.12301  0.65570  1.0000
  S   S256      1.0  0.51438  0.14931  0.63062  1.0000
  C   C764      1.0  0.51564  0.07678  0.59121  1.0000
  S   S257      1.0  0.90459  0.25841  0.68983  1.0000
  Fe  Fe127     1.0  0.51629  0.12438  0.61031  1.0000
  S   S258      1.0  0.53089  0.12922  0.57557  1.0000
  C   C765      1.0  0.56978  0.15063  0.69210  1.0000
  S   S259      1.0  0.52768  0.09814  0.63463  1.0000
  H   H763      1.0  0.56467  0.18939  0.56105  1.0000
  C   C766      1.0  0.53113  0.17223  0.70838  1.0000
  Fe  Fe128     1.0  0.96526  0.36487  0.64575  1.0000
  S   S260      1.0  0.97114  0.33411  0.63383  1.0000
  S   S261      1.0  0.93694  0.37267  0.67007  1.0000
  H   H764      1.0  0.55687  0.15998  0.63544  1.0000
  S   S262      1.0  0.97216  0.34416  0.57208  1.0000
  S   S263      1.0  0.55209  0.12641  0.67112  1.0000
  S   S264      1.0  0.97337  0.38408  0.61378  1.0000
  H   H765      1.0  0.71539  0.23120  0.51817  1.0000
  S   S265      1.0  0.86956  0.24601  0.65028  1.0000
  Fe  Fe129     1.0  0.90841  0.23156  0.71636  1.0000
  S   S266      1.0  0.85294  0.32583  0.51060  1.0000
  S   S267      1.0  0.87699  0.26930  0.51322  1.0000
  Fe  Fe130     1.0  0.87883  0.34583  0.50609  1.0000
  S   S268      1.0  0.88550  0.36193  0.53258  1.0000
  H   H766      1.0  0.79857  0.27694  0.65097  1.0000
  S   S269      1.0  0.94123  0.21996  0.72515  1.0000
  N   N63       1.0  0.73110  0.25275  0.49474  1.0000
  S   S270      1.0  0.90439  0.32171  0.49345  1.0000
  S   S271      1.0  0.66339  0.13411  0.50817  1.0000
  S   S272      1.0  0.72366  0.11573  0.51007  1.0000
  Fe  Fe131     1.0  0.64658  0.10626  0.51143  1.0000
  S   S273      1.0  0.62756  0.09649  0.54371  1.0000
  H   H767      1.0  0.97955  0.29021  0.68440  1.0000
  H   H768      1.0  0.73362  0.21987  0.49723  1.0000
  S   S274      1.0  0.67666  0.08395  0.50407  1.0000
  H   H769      1.0  0.49519  0.24238  0.70246  1.0000
  Fe  Fe132     1.0  0.74091  0.22732  0.61095  1.0000
  S   S275      1.0  0.75054  0.19319  0.62036  1.0000
  S   S276      1.0  0.71434  0.24617  0.63043  1.0000
  Fe  Fe133     1.0  0.77311  0.22763  0.57007  1.0000
  S   S277      1.0  0.78433  0.19308  0.57661  1.0000
  S   S278      1.0  0.78309  0.24869  0.53986  1.0000
  Fe  Fe134     1.0  0.74955  0.19012  0.58639  1.0000
  S   S279      1.0  0.72566  0.16989  0.58213  1.0000
  Fe  Fe135     1.0  0.78385  0.20005  0.60985  1.0000
  S   S280      1.0  0.80771  0.18745  0.63256  1.0000
  S   S281      1.0  0.73861  0.22429  0.57742  1.0000
  S   S282      1.0  0.77422  0.23464  0.60261  1.0000
  C   C767      1.0  0.56546  0.17222  0.56233  1.0000
  H   H770      1.0  0.78834  0.20503  0.68361  1.0000
  Fe  Fe136     1.0  0.88055  0.27362  0.71375  1.0000
  C   C768      1.0  0.72159  0.23349  0.50094  1.0000
  H   H771      1.0  0.88180  0.34779  0.72499  1.0000
  C   C769      1.0  0.72525  0.15766  0.55980  1.0000
  C   C770      1.0  0.74367  0.15160  0.54614  1.0000
  C   C771      1.0  0.74287  0.13953  0.53026  1.0000
  C   C772      1.0  0.72362  0.13377  0.52765  1.0000
  C   C773      1.0  0.70510  0.14065  0.54074  1.0000
  C   C774      1.0  0.70597  0.15227  0.55688  1.0000
  H   H772      1.0  0.75866  0.15547  0.54834  1.0000
  H   H773      1.0  0.75732  0.13421  0.52029  1.0000
  H   H774      1.0  0.69022  0.13624  0.53907  1.0000
  H   H775      1.0  0.69163  0.15686  0.56736  1.0000
  C   C775      1.0  0.85072  0.26437  0.52198  1.0000
  C   C776      1.0  0.84655  0.24719  0.53746  1.0000
  C   C777      1.0  0.82567  0.24277  0.54392  1.0000
  C   C778      1.0  0.80896  0.25524  0.53450  1.0000
  C   C779      1.0  0.81318  0.27237  0.51906  1.0000
  C   C780      1.0  0.83391  0.27702  0.51295  1.0000
  H   H776      1.0  0.85950  0.23715  0.54431  1.0000
  H   H777      1.0  0.82261  0.22938  0.55568  1.0000
  H   H778      1.0  0.80043  0.28202  0.51155  1.0000
  Fe  Fe137     1.0  0.86100  0.23382  0.73019  1.0000
  C   C781      1.0  0.85269  0.22942  0.64536  1.0000
  C   C782      1.0  0.84095  0.23574  0.62839  1.0000
  C   C783      1.0  0.82727  0.22295  0.62419  1.0000
  C   C784      1.0  0.82536  0.20362  0.63680  1.0000
  C   C785      1.0  0.83738  0.19716  0.65355  1.0000
  C   C786      1.0  0.85090  0.21006  0.65791  1.0000
  H   H779      1.0  0.84220  0.25068  0.61859  1.0000
  H   H780      1.0  0.81835  0.22799  0.61107  1.0000
  H   H781      1.0  0.83616  0.18215  0.66324  1.0000
  H   H782      1.0  0.86015  0.20487  0.67078  1.0000
  C   C787      1.0  0.94696  0.34777  0.56333  1.0000
  C   C788      1.0  0.94440  0.33645  0.54755  1.0000
  C   C789      1.0  0.92558  0.34027  0.53840  1.0000
  C   C790      1.0  0.90900  0.35562  0.54475  1.0000
  C   C791      1.0  0.91135  0.36666  0.56087  1.0000
  C   C792      1.0  0.93015  0.36272  0.57018  1.0000
  H   H783      1.0  0.95726  0.32486  0.54209  1.0000
  H   H784      1.0  0.92415  0.33155  0.52613  1.0000
  H   H785      1.0  0.89865  0.37857  0.56599  1.0000
  H   H786      1.0  0.93188  0.37169  0.58220  1.0000
  C   C793      1.0  0.92050  0.35385  0.68248  1.0000
  C   C794      1.0  0.90586  0.35853  0.70020  1.0000
  C   C795      1.0  0.89295  0.34396  0.71121  1.0000
  C   C796      1.0  0.89442  0.32449  0.70464  1.0000
  C   C797      1.0  0.90887  0.31972  0.68671  1.0000
  C   C798      1.0  0.92191  0.33442  0.67564  1.0000
  H   H787      1.0  0.90453  0.37351  0.70554  1.0000
  C   C799      1.0  0.82812  0.23655  0.48721  1.0000
  H   H788      1.0  0.91006  0.30475  0.68148  1.0000
  H   H789      1.0  0.93287  0.33073  0.66180  1.0000
  C   C800      1.0  0.67136  0.21292  0.68509  1.0000
  C   C801      1.0  0.69020  0.20196  0.67577  1.0000
  C   C802      1.0  0.70364  0.21211  0.65935  1.0000
  C   C803      1.0  0.69838  0.23334  0.65202  1.0000
  C   C804      1.0  0.67971  0.24445  0.66164  1.0000
  C   C805      1.0  0.66619  0.23428  0.67813  1.0000
  H   H790      1.0  0.69430  0.18545  0.68107  1.0000
  H   H791      1.0  0.71804  0.20342  0.65242  1.0000
  H   H792      1.0  0.67556  0.26093  0.65615  1.0000
  C   C806      1.0  0.55746  0.11908  0.56663  1.0000
  C   C807      1.0  0.57010  0.10567  0.58026  1.0000
  C   C808      1.0  0.59139  0.09849  0.57279  1.0000
  C   C809      1.0  0.60033  0.10486  0.55175  1.0000
  C   C810      1.0  0.58765  0.11817  0.53808  1.0000
  C   C811      1.0  0.56625  0.12508  0.54547  1.0000
  H   H793      1.0  0.56359  0.10097  0.59660  1.0000
  H   H794      1.0  0.60108  0.08816  0.58346  1.0000
  H   H795      1.0  0.59433  0.12311  0.52183  1.0000
  H   H796      1.0  0.55653  0.13534  0.53476  1.0000
  C   C812      1.0  0.69972  0.06239  0.54707  1.0000
  C   C813      1.0  0.53158  0.15730  0.69497  1.0000
  H   H797      1.0  0.58478  0.14205  0.68611  1.0000
  H   H798      1.0  0.57312  0.32854  0.72880  1.0000
  C   C814      1.0  0.58444  0.14139  0.62091  1.0000
  H   H799      1.0  0.98929  0.21298  0.70530  1.0000
  H   H800      1.0  0.93899  0.32835  0.72628  1.0000
  N   N64       1.0  0.80454  0.23078  0.68345  1.0000
  N   N65       1.0  0.71694  0.08597  0.56047  1.0000
  C   C815      1.0  0.67893  0.08878  0.56681  1.0000
  Fe  Fe138     1.0  0.87762  0.24380  0.68351  1.0000
  C   C816      1.0  0.97261  0.32802  0.69576  1.0000
  C   C817      1.0  0.55090  0.14622  0.68699  1.0000
  H   H801      1.0  0.51605  0.18026  0.71487  1.0000
  C   C818      1.0  0.95514  0.27541  0.70547  1.0000
  S   S283      1.0  0.57880  0.28493  0.72895  1.0000
  S   S284      1.0  0.65418  0.19884  0.70419  1.0000
  Fe  Fe139     1.0  0.62375  0.21426  0.72165  1.0000
  H   H802      1.0  0.70815  0.23376  0.49215  1.0000
  H   H803      1.0  0.92891  0.26530  0.72790  1.0000
  H   H804      1.0  0.83208  0.22495  0.69888  1.0000
  N   N66       1.0  0.57243  0.16182  0.58245  1.0000
  H   H805      1.0  0.54606  0.17760  0.60103  1.0000
  H   H806      1.0  0.50469  0.09942  0.56570  1.0000
  C   C819      1.0  0.96650  0.29206  0.69729  1.0000
  H   H807      1.0  0.76780  0.22308  0.65514  1.0000
  H   H808      1.0  0.57631  0.16690  0.54836  1.0000
  C   C820      1.0  0.75219  0.27652  0.50245  1.0000
  C   C821      1.0  0.79034  0.22097  0.67683  1.0000
  H   H809      1.0  0.51695  0.15397  0.69127  1.0000
  N   N67       1.0  0.88915  0.30357  0.58959  1.0000
  C   C822      1.0  0.88869  0.28429  0.60162  1.0000
  C   C823      1.0  0.88313  0.30733  0.56982  1.0000
  C   C824      1.0  0.88189  0.26827  0.59395  1.0000
  C   C825      1.0  0.87613  0.29171  0.56174  1.0000
  C   C826      1.0  0.87556  0.27206  0.57388  1.0000
  C   C827      1.0  0.89725  0.31995  0.59732  1.0000
  H   H810      1.0  0.89354  0.28113  0.61728  1.0000
  H   H811      1.0  0.88366  0.32250  0.56015  1.0000
  H   H812      1.0  0.87131  0.29478  0.54610  1.0000
  H   H813      1.0  0.87031  0.25980  0.56765  1.0000
  H   H814      1.0  0.89521  0.31781  0.61496  1.0000
  H   H815      1.0  0.91437  0.31978  0.59105  1.0000
  H   H816      1.0  0.88863  0.33564  0.59200  1.0000
  H   H817      1.0  0.95564  0.38268  0.53149  1.0000
  H   H818      1.0  0.54950  0.16853  0.56148  1.0000
  Fe  Fe140     1.0  0.69288  0.11247  0.49913  1.0000
  Fe  Fe141     1.0  0.98075  0.35279  0.60219  1.0000
  C   C828      1.0  0.81606  0.22027  0.70092  1.0000
  H   H819      1.0  0.97381  0.36201  0.52108  1.0000
  H   H820      1.0  0.83669  0.23361  0.50069  1.0000
  H   H821      1.0  0.77256  0.25938  0.63888  1.0000
  C   C829      1.0  0.77866  0.23109  0.66071  1.0000
  N   N68       1.0  0.96103  0.31060  0.70519  1.0000
  C   C830      1.0  0.79599  0.26128  0.65829  1.0000
  Fe  Fe142     1.0  0.87822  0.30233  0.49657  1.0000
  H   H822      1.0  0.52818  0.08517  0.59282  1.0000
  H   H823      1.0  0.88155  0.25302  0.60355  1.0000
  H   H824      1.0  0.51398  0.22087  0.71180  1.0000
  H   H825      1.0  0.74482  0.08102  0.57491  1.0000
  H   H826      1.0  0.58397  0.16896  0.70918  1.0000
  C   C831      1.0  0.56051  0.16643  0.60113  1.0000
  C   C832      1.0  0.56936  0.16587  0.70518  1.0000
  N   N69       1.0  0.67555  0.20254  0.62382  1.0000
  C   C833      1.0  0.67986  0.18150  0.63022  1.0000
  C   C834      1.0  0.65810  0.21416  0.63345  1.0000
  C   C835      1.0  0.66668  0.17160  0.64698  1.0000
  C   C836      1.0  0.64448  0.20472  0.65012  1.0000
  C   C837      1.0  0.64892  0.18334  0.65701  1.0000
  C   C838      1.0  0.69007  0.21247  0.60670  1.0000
  H   H827      1.0  0.69386  0.17242  0.62261  1.0000
  H   H828      1.0  0.65503  0.23094  0.62881  1.0000
  H   H829      1.0  0.67048  0.15505  0.65248  1.0000
  H   H830      1.0  0.63118  0.21408  0.65840  1.0000
  H   H831      1.0  0.63899  0.17608  0.67058  1.0000
  H   H832      1.0  0.70641  0.20858  0.61072  1.0000
  H   H833      1.0  0.68984  0.20672  0.59155  1.0000
  H   H834      1.0  0.68625  0.22979  0.60445  1.0000
  H   H835      1.0  0.80722  0.22440  0.71632  1.0000
  S   S285      1.0  0.88392  0.21525  0.70763  1.0000
  N   N70       1.0  0.95013  0.37609  0.50167  1.0000
  H   H836      1.0  0.65167  0.24288  0.68521  1.0000
  C   C839      1.0  0.80739  0.25071  0.67446  1.0000
  C   C840      1.0  0.78148  0.25140  0.65146  1.0000
  H   H837      1.0  0.92382  0.39506  0.51712  1.0000
  S   S286      1.0  0.59332  0.22945  0.70959  1.0000
  H   H838      1.0  0.80159  0.22227  0.50501  1.0000
  S   S287      1.0  0.85318  0.26126  0.70563  1.0000
  H   H839      1.0  0.69672  0.10848  0.57777  1.0000
  H   H840      1.0  0.73334  0.06258  0.54201  1.0000
  H   H841      1.0  0.74724  0.09461  0.54792  1.0000
  C   C841      1.0  0.92987  0.38656  0.50383  1.0000
  C   C842      1.0  0.73659  0.09271  0.56336  1.0000
  H   H842      1.0  0.83689  0.29009  0.50075  1.0000
  C   C843      1.0  0.69769  0.09542  0.56925  1.0000
  H   H843      1.0  0.73354  0.10811  0.56914  1.0000
  H   H844      1.0  0.66358  0.09672  0.57302  1.0000
  C   C844      1.0  0.56646  0.15647  0.62061  1.0000
  C   C845      1.0  0.59663  0.13692  0.60178  1.0000
  C   C846      1.0  0.54999  0.17657  0.71360  1.0000
  H   H845      1.0  0.66555  0.06693  0.55358  1.0000
  C   C847      1.0  0.71812  0.06972  0.54941  1.0000
  H   H846      1.0  0.70066  0.04976  0.53794  1.0000
  H   H847      1.0  0.81881  0.25841  0.67953  1.0000
  C   C848      1.0  0.74244  0.25854  0.50825  1.0000
  H   H848      1.0  0.50611  0.01472  0.60930  1.0000
  C   C849      1.0  0.94409  0.31330  0.72084  1.0000
  H   H849      1.0  0.74402  0.24925  0.52366  1.0000
  C   C850      1.0  0.80826  0.23000  0.48971  1.0000
  H   H850      1.0  0.95924  0.26075  0.69909  1.0000
  H   H851      1.0  0.52239  0.05231  0.61683  1.0000
  H   H852      1.0  0.81852  0.20303  0.70157  1.0000
  H   H853      1.0  0.97551  0.38880  0.50909  1.0000
  H   H854      1.0  0.59989  0.14367  0.56779  1.0000
  C   C851      1.0  0.93249  0.29695  0.72945  1.0000
  H   H855      1.0  0.61046  0.12498  0.60176  1.0000
  C   C852      1.0  0.51242  0.05810  0.60454  1.0000
  H   H856      1.0  0.96720  0.33512  0.68041  1.0000
  H   H857      1.0  0.58864  0.13303  0.63599  1.0000
  C   C853      1.0  0.50249  0.08472  0.57584  1.0000
  S   S288      1.0  0.87868  0.30647  0.72024  1.0000
  C   C854      1.0  0.49678  0.22708  0.71289  1.0000
  C   C855      1.0  0.93809  0.27792  0.72168  1.0000
  C   C856      1.0  0.96448  0.37752  0.51649  1.0000
  N   N71       1.0  0.49676  0.04740  0.60232  1.0000
  H   H858      1.0  0.76100  0.28116  0.51330  1.0000
  C   C857      1.0  0.49439  0.02732  0.61577  1.0000
  S   S289      1.0  0.54858  0.19495  0.73118  1.0000
  H   H859      1.0  0.96979  0.34044  0.70605  1.0000
  H   H860      1.0  0.98726  0.17569  0.71814  1.0000
  C   C858      1.0  0.91637  0.38601  0.48924  1.0000
  H   H861      1.0  0.90013  0.39385  0.49135  1.0000
  C   C859      1.0  0.95748  0.36500  0.48512  1.0000
  Fe  Fe143     1.0  0.49296  0.09600  0.64584  1.0000
  H   H862      1.0  0.49678  0.02796  0.63229  1.0000
  S   S290      1.0  0.49060  0.11801  0.66975  1.0000
  Fe  Fe144     1.0  0.52593  0.33674  0.83065  1.0000
  S   S291      1.0  0.54971  0.34248  0.80123  1.0000
  S   S292      1.0  0.52339  0.35486  0.85774  1.0000
  C   C860      1.0  0.49945  0.35254  0.92611  1.0000
  H   H863      1.0  0.88914  0.19913  0.75873  1.0000
  H   H864      1.0  0.51624  0.26804  0.82302  1.0000
  Fe  Fe145     1.0  0.60524  0.21573  0.76773  1.0000
  C   C861      1.0  0.50943  0.31663  0.77705  1.0000
  S   S293      1.0  0.61293  0.20994  0.80135  1.0000
  H   H865      1.0  0.65179  0.16070  0.81433  1.0000
  C   C862      1.0  0.79990  0.19900  0.86688  1.0000
  N   N72       1.0  0.80705  0.20608  0.88441  1.0000
  H   H866      1.0  0.66072  0.37728  0.91316  1.0000
  S   S294      1.0  0.57281  0.23008  0.76015  1.0000
  S   S295      1.0  0.96576  0.16998  0.89147  1.0000
  C   C863      1.0  0.67414  0.34087  0.87030  1.0000
  S   S296      1.0  0.69323  0.34121  0.94165  1.0000
  H   H867      1.0  0.50531  0.33270  0.78004  1.0000
  S   S297      1.0  0.63993  0.37875  0.95967  1.0000
  Fe  Fe146     1.0  0.71842  0.22308  0.83911  1.0000
  S   S298      1.0  0.72301  0.25652  0.83667  1.0000
  S   S299      1.0  0.70770  0.21376  0.81103  1.0000
  Fe  Fe147     1.0  0.73728  0.21063  0.88082  1.0000
  S   S300      1.0  0.74292  0.24319  0.88160  1.0000
  S   S301      1.0  0.74861  0.18275  0.90393  1.0000
  Fe  Fe148     1.0  0.71069  0.25280  0.87153  1.0000
  S   S302      1.0  0.68300  0.27485  0.88505  1.0000
  Fe  Fe149     1.0  0.75475  0.24343  0.84672  1.0000
  S   S303      1.0  0.78562  0.25521  0.83260  1.0000
  S   S304      1.0  0.70394  0.22000  0.87336  1.0000
  S   S305      1.0  0.75112  0.21024  0.84664  1.0000
  C   C864      1.0  0.51261  0.38512  0.92404  1.0000
  H   H868      1.0  0.65573  0.26741  0.78476  1.0000
  C   C865      1.0  0.66303  0.17269  0.76076  1.0000
  C   C866      1.0  0.68417  0.17549  0.75950  1.0000
  H   H869      1.0  0.64150  0.33633  0.87804  1.0000
  H   H870      1.0  0.62372  0.37549  0.91473  1.0000
  H   H871      1.0  0.67272  0.26140  0.84711  1.0000
  C   C867      1.0  0.94455  0.19980  0.74668  1.0000
  H   H872      1.0  0.70609  0.34758  0.86698  1.0000
  H   H873      1.0  0.58245  0.31968  0.95965  1.0000
  C   C868      1.0  0.95522  0.16558  0.77780  1.0000
  C   C869      1.0  0.94076  0.16456  0.76423  1.0000
  H   H874      1.0  0.86729  0.09775  0.97783  1.0000
  H   H875      1.0  0.68927  0.16567  0.81133  1.0000
  Fe  Fe150     1.0  0.66445  0.35056  0.96523  1.0000
  H   H876      1.0  0.93405  0.15034  0.76540  1.0000
  C   C870      1.0  0.66098  0.16428  0.79882  1.0000
  C   C871      1.0  0.79906  0.24524  0.80943  1.0000
  C   C872      1.0  0.79175  0.22952  0.80181  1.0000
  C   C873      1.0  0.80306  0.22113  0.78390  1.0000
  C   C874      1.0  0.82150  0.22873  0.77312  1.0000
  C   C875      1.0  0.82869  0.24474  0.78043  1.0000
  C   C876      1.0  0.81759  0.25282  0.79869  1.0000
  H   H877      1.0  0.77733  0.22383  0.80959  1.0000
  H   H878      1.0  0.79736  0.20883  0.77827  1.0000
  H   H879      1.0  0.84278  0.25087  0.77211  1.0000
  H   H880      1.0  0.82325  0.26513  0.80436  1.0000
  C   C877      1.0  0.69070  0.32223  0.92634  1.0000
  C   C878      1.0  0.67094  0.31649  0.92624  1.0000
  C   C879      1.0  0.66893  0.30173  0.91371  1.0000
  C   C880      1.0  0.68669  0.29258  0.90111  1.0000
  C   C881      1.0  0.70659  0.29815  0.90117  1.0000
  C   C882      1.0  0.70856  0.31307  0.91370  1.0000
  H   H881      1.0  0.65701  0.32389  0.93524  1.0000
  H   H882      1.0  0.65347  0.29760  0.91359  1.0000
  H   H883      1.0  0.72035  0.29128  0.89128  1.0000
  H   H884      1.0  0.72389  0.31762  0.91353  1.0000
  C   C883      1.0  0.93353  0.16947  0.92537  1.0000
  C   C884      1.0  0.91742  0.16083  0.94010  1.0000
  Fe  Fe151     1.0  0.98590  0.15924  0.86145  1.0000
  H   H885      1.0  0.90938  0.16894  0.95312  1.0000
  C   C885      1.0  0.78550  0.19143  0.95555  1.0000
  C   C886      1.0  0.77313  0.20865  0.94535  1.0000
  C   C887      1.0  0.76178  0.20617  0.92948  1.0000
  C   C888      1.0  0.76247  0.18638  0.92394  1.0000
  H   H886      1.0  0.49369  0.37892  0.90183  1.0000
  H   H887      1.0  0.77259  0.22401  0.94951  1.0000
  H   H888      1.0  0.75231  0.21951  0.92175  1.0000
  C   C889      1.0  0.51714  0.31221  0.75653  1.0000
  H   H889      1.0  0.96593  0.21490  0.75895  1.0000
  C   C890      1.0  0.63877  0.21294  0.80432  1.0000
  C   C891      1.0  0.65385  0.21714  0.78654  1.0000
  C   C892      1.0  0.67466  0.21838  0.78897  1.0000
  C   C893      1.0  0.68070  0.21519  0.80920  1.0000
  C   C894      1.0  0.66557  0.21152  0.82713  1.0000
  C   C895      1.0  0.64461  0.21040  0.82467  1.0000
  H   H890      1.0  0.64984  0.21857  0.77083  1.0000
  H   H891      1.0  0.68625  0.22129  0.77503  1.0000
  H   H892      1.0  0.67017  0.20890  0.84282  1.0000
  H   H893      1.0  0.63303  0.20708  0.83853  1.0000
  C   C896      1.0  0.55457  0.32634  0.91770  1.0000
  C   C897      1.0  0.56407  0.31652  0.93560  1.0000
  C   C898      1.0  0.57586  0.32726  0.94550  1.0000
  C   C899      1.0  0.57809  0.34810  0.93772  1.0000
  C   C900      1.0  0.56915  0.35772  0.91942  1.0000
  C   C901      1.0  0.55757  0.34691  0.90939  1.0000
  H   H894      1.0  0.56186  0.30062  0.94218  1.0000
  H   H895      1.0  0.57078  0.37381  0.91320  1.0000
  H   H896      1.0  0.55041  0.35468  0.89563  1.0000
  C   C902      1.0  0.55821  0.32525  0.78227  1.0000
  C   C903      1.0  0.56320  0.33406  0.76110  1.0000
  C   C904      1.0  0.56982  0.32140  0.74517  1.0000
  C   C905      1.0  0.57220  0.29967  0.75020  1.0000
  C   C906      1.0  0.56793  0.29057  0.77153  1.0000
  C   C907      1.0  0.56065  0.30340  0.78758  1.0000
  H   H897      1.0  0.56163  0.35087  0.75691  1.0000
  C   C908      1.0  0.53426  0.39054  0.94969  1.0000
  H   H898      1.0  0.56968  0.27377  0.77554  1.0000
  H   H899      1.0  0.55707  0.29649  0.80397  1.0000
  H   H900      1.0  0.67801  0.32979  0.85904  1.0000
  H   H901      1.0  0.62600  0.34755  0.92152  1.0000
  H   H902      1.0  0.68995  0.25040  0.92896  1.0000
  H   H903      1.0  0.71679  0.19293  0.76900  1.0000
  C   C909      1.0  0.66659  0.26477  0.81484  1.0000
  H   H904      1.0  0.94706  0.13178  0.89345  1.0000
  H   H905      1.0  0.69723  0.37135  0.89438  1.0000
  C   C910      1.0  0.66081  0.26259  0.83683  1.0000
  C   C911      1.0  0.80394  0.22688  0.88623  1.0000
  H   H906      1.0  0.50875  0.32869  0.95144  1.0000
  H   H907      1.0  0.49681  0.25872  0.81166  1.0000
  H   H908      1.0  0.81227  0.18726  0.85976  1.0000
  H   H909      1.0  0.71965  0.28177  0.94868  1.0000
  Fe  Fe152     1.0  0.61621  0.35655  0.97213  1.0000
  C   C912      1.0  0.61427  0.26636  0.79670  1.0000
  C   C913      1.0  0.49289  0.21320  0.75077  1.0000
  S   S306      1.0  0.80097  0.19562  0.97394  1.0000
  H   H910      1.0  0.52483  0.24907  0.80532  1.0000
  N   N73       1.0  0.63042  0.26474  0.81053  1.0000
  H   H911      1.0  0.98069  0.14640  0.93599  1.0000
  C   C914      1.0  0.81992  0.21901  0.91836  1.0000
  C   C915      1.0  0.62457  0.26291  0.83207  1.0000
  S   S307      1.0  0.83542  0.21740  0.75098  1.0000
  N   N74       1.0  0.69438  0.26347  0.95556  1.0000
  H   H912      1.0  0.52671  0.25942  0.76750  1.0000
  C   C916      1.0  0.65352  0.34461  0.88114  1.0000
  H   H913      1.0  0.52978  0.28794  0.73726  1.0000
  C   C917      1.0  0.66419  0.36752  0.90068  1.0000
  S   S308      1.0  0.64098  0.32816  0.97626  1.0000
  C   C918      1.0  0.82295  0.19786  0.91640  1.0000
  C   C919      1.0  0.98008  0.11613  0.92802  1.0000
  N   N75       1.0  0.64876  0.35791  0.89599  1.0000
  N   N76       1.0  0.51442  0.27996  0.79043  1.0000
  C   C920      1.0  0.95862  0.20098  0.76055  1.0000
  C   C921      1.0  0.68493  0.36424  0.89005  1.0000
  H   H914      1.0  0.51396  0.40084  0.91600  1.0000
  S   S309      1.0  0.52511  0.30599  0.85147  1.0000
  C   C922      1.0  0.67605  0.25951  0.96857  1.0000
  S   S310      1.0  0.53776  0.31292  0.90744  1.0000
  H   H915      1.0  0.50225  0.30375  0.80980  1.0000
  Fe  Fe153     1.0  0.52011  0.32447  0.87878  1.0000
  S   S311      1.0  0.96259  0.14352  0.79633  1.0000
  C   C923      1.0  0.65106  0.26596  0.80183  1.0000
  S   S312      1.0  0.60810  0.19117  0.74670  1.0000
  C   C924      1.0  0.68990  0.35080  0.87480  1.0000
  H   H916      1.0  0.54522  0.39801  0.93657  1.0000
  H   H917      1.0  0.63510  0.26004  0.86264  1.0000
  H   H918      1.0  0.93769  0.18426  0.92722  1.0000
  C   C925      1.0  0.93884  0.13998  0.90632  1.0000
  H   H919      1.0  0.81772  0.17507  0.89845  1.0000
  H   H920      1.0  0.72614  0.16596  0.76527  1.0000
  C   C926      1.0  0.50801  0.30020  0.79388  1.0000
  H   H921      1.0  0.63471  0.16568  0.78188  1.0000
  N   N77       1.0  0.69347  0.17271  0.77748  1.0000
  H   H922      1.0  0.72113  0.17355  0.79139  1.0000
  C   C927      1.0  0.77451  0.16910  0.93443  1.0000
  C   C928      1.0  0.94441  0.15911  0.90845  1.0000
  C   C929      1.0  0.70268  0.25097  0.93837  1.0000
  H   H923      1.0  0.60816  0.26216  0.83895  1.0000
  N   N78       1.0  0.52235  0.37729  0.94155  1.0000
  S   S313      1.0  0.89336  0.12891  0.95746  1.0000
  H   H924      1.0  0.82975  0.18633  0.92851  1.0000
  C   C930      1.0  0.62741  0.36052  0.90808  1.0000
  H   H925      1.0  0.77497  0.15372  0.93032  1.0000
  H   H926      1.0  0.91914  0.11616  0.91971  1.0000
  C   C931      1.0  0.81610  0.19160  0.89939  1.0000
  H   H927      1.0  0.91499  0.15173  0.82411  1.0000
  S   S314      1.0  0.98109  0.17779  0.82969  1.0000
  H   H928      1.0  0.90405  0.22339  0.78514  1.0000
  H   H929      1.0  0.87045  0.21408  0.77665  1.0000
  H   H930      1.0  0.61514  0.36057  0.89795  1.0000
  C   C932      1.0  0.78613  0.17162  0.95011  1.0000
  S   S315      1.0  0.58932  0.36365  0.95163  1.0000
  H   H931      1.0  0.93443  0.17852  0.83125  1.0000
  C   C933      1.0  0.91204  0.16768  0.81617  1.0000
  H   H932      1.0  0.52320  0.40277  0.95750  1.0000
  C   C934      1.0  0.63968  0.26173  0.84554  1.0000
  C   C935      1.0  0.52071  0.35742  0.95163  1.0000
  H   H933      1.0  0.82447  0.22389  0.93196  1.0000
  S   S316      1.0  0.83452  0.13643  0.98108  1.0000
  C   C936      1.0  0.90596  0.20779  0.79410  1.0000
  C   C937      1.0  0.88014  0.19858  0.77502  1.0000
  H   H934      1.0  0.92927  0.21448  0.81135  1.0000
  H   H935      1.0  0.50417  0.19961  0.74706  1.0000
  H   H936      1.0  0.86875  0.18727  0.77702  1.0000
  C   C938      1.0  0.91220  0.14147  0.93829  1.0000
  H   H937      1.0  0.79648  0.21210  0.85396  1.0000
  C   C939      1.0  0.52151  0.27544  0.77029  1.0000
  C   C940      1.0  0.96394  0.18396  0.77604  1.0000
  N   N79       1.0  0.89478  0.19307  0.79076  1.0000
  C   C941      1.0  0.92020  0.20289  0.80889  1.0000
  H   H938      1.0  0.79556  0.15825  0.95793  1.0000
  S   S317      1.0  0.62252  0.23779  0.74337  1.0000
  C   C942      1.0  0.89788  0.17313  0.80132  1.0000
  C   C943      1.0  0.92301  0.13114  0.92129  1.0000
  H   H939      1.0  0.79637  0.23835  0.87458  1.0000
  H   H940      1.0  0.97530  0.18493  0.78614  1.0000
  C   C944      1.0  0.92313  0.18271  0.82005  1.0000
  H   H941      1.0  0.78526  0.19185  0.87288  1.0000
  C   C945      1.0  0.65136  0.16715  0.78058  1.0000
  H   H942      1.0  0.88968  0.16122  0.79806  1.0000
  H   H943      1.0  0.80764  0.25012  0.90472  1.0000
  H   H944      1.0  0.92480  0.18043  0.73786  1.0000
  H   H945      1.0  0.60189  0.25646  0.80416  1.0000
  H   H946      1.0  0.62124  0.26070  0.78139  1.0000
  C   C946      1.0  0.81033  0.23366  0.90321  1.0000
  H   H947      1.0  0.51918  0.32482  0.74347  1.0000
  Fe  Fe154     1.0  0.57755  0.20793  0.73607  1.0000
  Fe  Fe155     1.0  0.98526  0.14702  0.81819  1.0000
  H   H948      1.0  0.68308  0.26500  0.80795  1.0000
  C   C947      1.0  0.68218  0.16713  0.79698  1.0000
  H   H949      1.0  0.60670  0.28286  0.79337  1.0000
  C   C948      1.0  0.71547  0.17637  0.77567  1.0000
  S   S318      1.0  0.49103  0.34333  0.82895  1.0000
  H   H950      1.0  0.70902  0.23480  0.94500  1.0000
  Fe  Fe156     1.0  0.86748  0.14289  0.98221  1.0000
  C   C949      1.0  0.93535  0.18165  0.74877  1.0000
  C   C950      1.0  0.51303  0.26303  0.80839  1.0000
  H   H951      1.0  0.54434  0.38133  0.96139  1.0000
  H   H952      1.0  0.96506  0.11424  0.93805  1.0000
  C   C951      1.0  0.52304  0.29149  0.75305  1.0000
  H   H953      1.0  0.69292  0.18032  0.74405  1.0000
  S   S319      1.0  0.88589  0.24780  0.74078  1.0000
  H   H954      1.0  0.65563  0.17526  0.74649  1.0000
  H   H955      1.0  0.71557  0.25774  0.92707  1.0000
  H   H956      1.0  0.91864  0.29935  0.74137  1.0000
  C   C952      1.0  0.70517  0.27849  0.95898  1.0000
  C   C953      1.0  0.98908  0.13424  0.92693  1.0000
  H   H957      1.0  0.52885  0.35097  0.96518  1.0000
  C   C954      1.0  0.50926  0.34476  0.94405  1.0000
  H   H958      1.0  0.66752  0.24757  0.96590  1.0000
  C   C955      1.0  0.69747  0.29022  0.97557  1.0000
  S   S320      1.0  0.98784  0.12821  0.85062  1.0000
  H   H959      1.0  0.70569  0.30258  0.97784  1.0000
  C   C956      1.0  0.50108  0.37285  0.91599  1.0000
  H   H960      1.0  0.49104  0.34262  0.91984  1.0000
  H   H961      1.0  0.98299  0.08711  0.91571  1.0000
  Fe  Fe157     1.0  0.59039  0.25048  0.73445  1.0000
  Fe  Fe158     1.0  0.48980  0.31335  0.85146  1.0000
  N   N80       1.0  0.50604  0.58138  0.07280  1.0000
  H   H962      1.0  0.69087  0.57873  0.14902  1.0000
  C   C957      1.0  0.70420  0.77220  0.19634  1.0000
  Fe  Fe159     1.0  0.52298  0.65908  0.11539  1.0000
  S   S321      1.0  0.51415  0.63559  0.14367  1.0000
  S   S322      1.0  0.54978  0.67693  0.11675  1.0000
  Fe  Fe160     1.0  0.51587  0.61380  0.11994  1.0000
  S   S323      1.0  0.52925  0.57941  0.12683  1.0000
  H   H963      1.0  0.81015  0.69384  0.17451  1.0000
  H   H964      1.0  0.56810  0.68900  0.21388  1.0000
  S   S324      1.0  0.52675  0.63652  0.09174  1.0000
  S   S325      1.0  0.96815  0.77965  0.14937  1.0000
  H   H965      1.0  0.49234  0.70008  0.18729  1.0000
  S   S326      1.0  0.61323  0.73388  0.18641  1.0000
  C   C958      1.0  0.85547  0.60572  0.22661  1.0000
  S   S327      1.0  0.85877  0.97013  0.12628  1.0000
  S   S328      1.0  0.58230  0.77288  0.20656  1.0000
  C   C959      1.0  0.66344  0.57148  0.13846  1.0000
  Fe  Fe161     1.0  0.57823  0.74285  0.19618  1.0000
  S   S329      1.0  0.54908  0.73950  0.18231  1.0000
  Fe  Fe162     1.0  0.61740  0.76185  0.20052  1.0000
  S   S330      1.0  0.64270  0.78200  0.18565  1.0000
  H   H966      1.0  0.85439  0.92330  0.12439  1.0000
  H   H967      1.0  0.83283  0.90985  0.12446  1.0000
  Fe  Fe163     1.0  0.64361  0.50947  0.10775  1.0000
  S   S331      1.0  0.67521  0.50371  0.08692  1.0000
  S   S332      1.0  0.62424  0.54027  0.09579  1.0000
  C   C960      1.0  0.55504  0.65664  0.17465  1.0000
  Fe  Fe164     1.0  0.68916  0.49883  0.11733  1.0000
  S   S333      1.0  0.71854  0.51188  0.12102  1.0000
  H   H968      1.0  0.90801  0.82236  0.21317  1.0000
  S   S334      1.0  0.65808  0.50653  0.13759  1.0000
  H   H969      1.0  0.69802  0.75697  0.17162  1.0000
  C   C961      1.0  0.51941  0.77463  0.22660  1.0000
  S   S335      1.0  0.74863  0.60989  0.19387  1.0000
  H   H970      1.0  0.91877  0.85613  0.19406  1.0000
  C   C962      1.0  0.52770  0.60624  0.05257  1.0000
  S   S336      1.0  0.77839  0.56623  0.21128  1.0000
  H   H971      1.0  0.51511  0.62538  0.02567  1.0000
  Fe  Fe165     1.0  0.78211  0.60018  0.20098  1.0000
  S   S337      1.0  0.81058  0.61017  0.17880  1.0000
  Fe  Fe166     1.0  0.74401  0.57670  0.20767  1.0000
  S   S338      1.0  0.72102  0.55707  0.20019  1.0000
  H   H972      1.0  0.62593  0.79149  0.22825  1.0000
  H   H973      1.0  0.58874  0.65055  0.16479  1.0000
  S   S339      1.0  0.80461  0.94764  0.13915  1.0000
  Fe  Fe167     1.0  0.61367  0.71708  0.21967  1.0000
  C   C963      1.0  0.81359  0.76487  0.23078  1.0000
  H   H974      1.0  0.69246  0.63025  0.22076  1.0000
  Fe  Fe168     1.0  0.72961  0.88562  0.22659  1.0000
  C   C964      1.0  0.94263  0.89807  0.16362  1.0000
  H   H975      1.0  0.69475  0.50925  0.21913  1.0000
  C   C965      1.0  0.67036  0.55837  0.10489  1.0000
  H   H976      1.0  0.72259  0.54975  0.08806  1.0000
  S   S340      1.0  0.61990  0.74438  0.23328  1.0000
  S   S341      1.0  0.72440  0.86011  0.20946  1.0000
  H   H977      1.0  0.80343  0.72824  0.20279  1.0000
  C   C966      1.0  0.65608  0.56409  0.12249  1.0000
  S   S342      1.0  0.86252  0.72541  0.21935  1.0000
  C   C967      1.0  0.57613  0.65800  0.17558  1.0000
  S   S343      1.0  0.89396  0.94562  0.17304  1.0000
  H   H978      1.0  0.70589  0.78581  0.22398  1.0000
  C   C968      1.0  0.87978  0.62877  0.23155  1.0000
  C   C969      1.0  0.51287  0.61265  0.03857  1.0000
  Fe  Fe169     1.0  0.86830  0.69098  0.21765  1.0000
  S   S344      1.0  0.86531  0.67867  0.18806  1.0000
  H   H979      1.0  0.74945  0.52346  0.22258  1.0000
  H   H980      1.0  0.65511  0.64423  0.21602  1.0000
  C   C970      1.0  0.94041  0.75417  0.17256  1.0000
  C   C971      1.0  0.92851  0.74548  0.19130  1.0000
  C   C972      1.0  0.93097  0.75027  0.21093  1.0000
  H   H981      1.0  0.93841  0.75043  0.15741  1.0000
  H   H982      1.0  0.91746  0.73509  0.19056  1.0000
  C   C973      1.0  0.95720  0.77253  0.19294  1.0000
  C   C974      1.0  0.67209  0.73087  0.19310  1.0000
  C   C975      1.0  0.49471  0.60311  0.04169  1.0000
  H   H983      1.0  0.82684  0.70917  0.19796  1.0000
  H   H984      1.0  0.65257  0.57573  0.15231  1.0000
  C   C976      1.0  0.94539  0.89771  0.14172  1.0000
  H   H985      1.0  0.49192  0.55467  0.08865  1.0000
  C   C977      1.0  0.66803  0.68617  0.23255  1.0000
  H   H986      1.0  0.63943  0.56263  0.12373  1.0000
  H   H987      1.0  0.94732  0.76756  0.22682  1.0000
  C   C978      1.0  0.91352  0.92728  0.16049  1.0000
  C   C979      1.0  0.92683  0.91281  0.17291  1.0000
  C   C980      1.0  0.91602  0.92666  0.13866  1.0000
  H   H988      1.0  0.90601  0.93773  0.12887  1.0000
  C   C981      1.0  0.78549  0.93986  0.16089  1.0000
  C   C982      1.0  0.78075  0.95005  0.17881  1.0000
  C   C983      1.0  0.76563  0.94344  0.19593  1.0000
  C   C984      1.0  0.75556  0.92621  0.19559  1.0000
  C   C985      1.0  0.76062  0.91571  0.17787  1.0000
  C   C986      1.0  0.77521  0.92278  0.16043  1.0000
  H   H989      1.0  0.78832  0.96337  0.17928  1.0000
  H   H990      1.0  0.76164  0.95182  0.20943  1.0000
  H   H991      1.0  0.75270  0.90264  0.17729  1.0000
  C   C987      1.0  0.82499  0.62931  0.18283  1.0000
  C   C988      1.0  0.84035  0.63587  0.16622  1.0000
  C   C989      1.0  0.85245  0.65092  0.16828  1.0000
  C   C990      1.0  0.84969  0.65942  0.18712  1.0000
  C   C991      1.0  0.83448  0.65279  0.20406  1.0000
  C   C992      1.0  0.82195  0.63787  0.20181  1.0000
  H   H992      1.0  0.84284  0.62937  0.15152  1.0000
  H   H993      1.0  0.86411  0.65595  0.15511  1.0000
  H   H994      1.0  0.83210  0.65937  0.21865  1.0000
  H   H995      1.0  0.81008  0.63298  0.21474  1.0000
  C   C993      1.0  0.75555  0.50939  0.23255  1.0000
  H   H996      1.0  0.70514  0.56692  0.07120  1.0000
  C   C994      1.0  0.81889  0.90077  0.18747  1.0000
  C   C995      1.0  0.69869  0.56748  0.11870  1.0000
  N   N81       1.0  0.79758  0.69689  0.20679  1.0000
  S   S345      1.0  0.62873  0.68307  0.22258  1.0000
  C   C996      1.0  0.71961  0.52360  0.14352  1.0000
  C   C997      1.0  0.73760  0.53255  0.14454  1.0000
  C   C998      1.0  0.73841  0.54300  0.16168  1.0000
  C   C999      1.0  0.72118  0.54455  0.17795  1.0000
  C   C1000     1.0  0.70324  0.53563  0.17687  1.0000
  C   C1001     1.0  0.70249  0.52510  0.15987  1.0000
  H   H997      1.0  0.75094  0.53150  0.13194  1.0000
  H   H998      1.0  0.75233  0.54980  0.16232  1.0000
  H   H999      1.0  0.68971  0.53720  0.18914  1.0000
  H   H1000     1.0  0.68854  0.51841  0.15929  1.0000
  H   H1001     1.0  0.78702  0.66823  0.17200  1.0000
  S   S346      1.0  0.73590  0.91911  0.21702  1.0000
  H   H1002     1.0  0.52253  0.66629  0.18685  1.0000
  H   H1003     1.0  0.53131  0.69066  0.23103  1.0000
  C   C1002     1.0  0.70600  0.55392  0.08462  1.0000
  H   H1004     1.0  0.86067  0.92188  0.19579  1.0000
  H   H1005     1.0  0.75193  0.48853  0.21138  1.0000
  H   H1006     1.0  0.85866  0.89496  0.12807  1.0000
  H   H1007     1.0  0.65743  0.72665  0.20341  1.0000
  H   H1008     1.0  0.81406  0.89492  0.15711  1.0000
  C   C1003     1.0  0.64935  0.79888  0.20129  1.0000
  Fe  Fe170     1.0  0.49189  0.64685  0.08942  1.0000
  H   H1009     1.0  0.53540  0.58592  0.08078  1.0000
  H   H1010     1.0  0.54173  0.61377  0.05048  1.0000
  C   C1004     1.0  0.67212  0.82351  0.20563  1.0000
  C   C1005     1.0  0.66587  0.81068  0.19315  1.0000
  H   H1011     1.0  0.64113  0.48383  0.20844  1.0000
  S   S347      1.0  0.77642  0.81915  0.21389  1.0000
  C   C1006     1.0  0.65427  0.48314  0.21713  1.0000
  H   H1012     1.0  0.67391  0.80984  0.17713  1.0000
  H   H1013     1.0  0.96809  0.78308  0.19368  1.0000
  C   C1007     1.0  0.55610  0.56909  0.11920  1.0000
  C   C1008     1.0  0.56332  0.54801  0.12623  1.0000
  C   C1009     1.0  0.58431  0.53900  0.11966  1.0000
  C   C1010     1.0  0.59811  0.55096  0.10568  1.0000
  C   C1011     1.0  0.59090  0.57206  0.09873  1.0000
  C   C1012     1.0  0.57006  0.58115  0.10558  1.0000
  H   H1014     1.0  0.55261  0.53856  0.13674  1.0000
  H   H1015     1.0  0.58964  0.52273  0.12504  1.0000
  H   H1016     1.0  0.60147  0.58141  0.08789  1.0000
  H   H1017     1.0  0.56475  0.59740  0.10011  1.0000
  C   C1013     1.0  0.93190  0.91200  0.12936  1.0000
  H   H1018     1.0  0.92163  0.83477  0.12078  1.0000
  H   H1019     1.0  0.94515  0.81633  0.12569  1.0000
  H   H1020     1.0  0.94534  0.84356  0.12502  1.0000
  C   C1014     1.0  0.52655  0.68978  0.21551  1.0000
  C   C1015     1.0  0.54916  0.69449  0.13492  1.0000
  C   C1016     1.0  0.56833  0.69983  0.13825  1.0000
  C   C1017     1.0  0.56860  0.71336  0.15290  1.0000
  C   C1018     1.0  0.54960  0.72221  0.16389  1.0000
  C   C1019     1.0  0.53037  0.71720  0.16027  1.0000
  C   C1020     1.0  0.53015  0.70312  0.14613  1.0000
  H   H1021     1.0  0.58310  0.69330  0.12957  1.0000
  H   H1022     1.0  0.58350  0.71720  0.15541  1.0000
  H   H1023     1.0  0.51562  0.72416  0.16856  1.0000
  H   H1024     1.0  0.51533  0.69909  0.14370  1.0000
  H   H1025     1.0  0.71434  0.78221  0.18569  1.0000
  N   N82       1.0  0.54365  0.67818  0.20224  1.0000
  C   C1021     1.0  0.56429  0.67969  0.20313  1.0000
  H   H1026     1.0  0.86293  0.60585  0.21021  1.0000
  C   C1022     1.0  0.58085  0.66954  0.18996  1.0000
  C   C1023     1.0  0.94540  0.76376  0.21168  1.0000
  C   C1024     1.0  0.66144  0.82509  0.22615  1.0000
  H   H1027     1.0  0.68480  0.83259  0.19917  1.0000
  C   C1025     1.0  0.53889  0.66696  0.18813  1.0000
  C   C1026     1.0  0.66715  0.49879  0.21225  1.0000
  H   H1028     1.0  0.55121  0.64831  0.16299  1.0000
  C   C1027     1.0  0.68487  0.57329  0.13656  1.0000
  C   C1028     1.0  0.79866  0.68929  0.18812  1.0000
  Fe  Fe171     1.0  0.82536  0.97063  0.14362  1.0000
  H   H1029     1.0  0.66390  0.51184  0.19990  1.0000
  N   N83       1.0  0.68141  0.74588  0.20172  1.0000
  H   H1030     1.0  0.83259  0.58652  0.22324  1.0000
  H   H1031     1.0  0.51199  0.68220  0.21893  1.0000
  H   H1032     1.0  0.59718  0.67100  0.19067  1.0000
  H   H1033     1.0  0.68357  0.71636  0.19160  1.0000
  C   C1029     1.0  0.63880  0.80034  0.22188  1.0000
  C   C1030     1.0  0.67711  0.74739  0.22294  1.0000
  C   C1031     1.0  0.85533  0.91554  0.16559  1.0000
  C   C1032     1.0  0.78330  0.69091  0.22403  1.0000
  H   H1034     1.0  0.81527  0.79184  0.20666  1.0000
  C   C1033     1.0  0.68447  0.49728  0.22295  1.0000
  N   N84       1.0  0.84215  0.90850  0.15486  1.0000
  H   H1035     1.0  0.95292  0.88726  0.17335  1.0000
  H   H1036     1.0  0.90915  0.79312  0.19291  1.0000
  H   H1037     1.0  0.66733  0.73778  0.17735  1.0000
  C   C1034     1.0  0.78560  0.67486  0.18655  1.0000
  Fe  Fe172     1.0  0.74803  0.83954  0.22880  1.0000
  H   H1038     1.0  0.81442  0.71140  0.22454  1.0000
  Fe  Fe173     1.0  0.98721  0.85152  0.14318  1.0000
  H   H1039     1.0  0.93388  0.91188  0.11241  1.0000
  H   H1040     1.0  0.82752  0.90925  0.21528  1.0000
  H   H1041     1.0  0.71539  0.56857  0.11753  1.0000
  C   C1035     1.0  0.52399  0.59052  0.06973  1.0000
  H   H1042     1.0  0.86943  0.92165  0.15710  1.0000
  S   S348      1.0  0.57844  0.72458  0.22872  1.0000
  H   H1043     1.0  0.80420  0.89554  0.19566  1.0000
  C   C1036     1.0  0.75700  0.48984  0.22623  1.0000
  C   C1037     1.0  0.82448  0.90057  0.16560  1.0000
  Fe  Fe174     1.0  0.86811  0.96919  0.15834  1.0000
  C   C1038     1.0  0.69490  0.75793  0.18848  1.0000
  C   C1039     1.0  0.80549  0.78423  0.22002  1.0000
  S   S349      1.0  0.97726  0.82906  0.17205  1.0000
  C   C1040     1.0  0.77000  0.67652  0.22300  1.0000
  C   C1041     1.0  0.83192  0.90851  0.19843  1.0000
  H   H1044     1.0  0.77853  0.91498  0.14652  1.0000
  Fe  Fe175     1.0  0.74157  0.61667  0.22745  1.0000
  N   N85       1.0  0.92738  0.82882  0.15274  1.0000
  C   C1042     1.0  0.92081  0.81052  0.16293  1.0000
  C   C1043     1.0  0.92605  0.84526  0.16359  1.0000
  C   C1044     1.0  0.91365  0.80795  0.18478  1.0000
  C   C1045     1.0  0.91909  0.84323  0.18547  1.0000
  C   C1046     1.0  0.91304  0.82435  0.19613  1.0000
  C   C1047     1.0  0.93517  0.83102  0.12991  1.0000
  H   H1045     1.0  0.92170  0.79754  0.15428  1.0000
  H   H1046     1.0  0.93089  0.85987  0.15545  1.0000
  C   C1048     1.0  0.81120  0.71219  0.20804  1.0000
  C   C1049     1.0  0.50188  0.56578  0.09154  1.0000
  H   H1047     1.0  0.66453  0.55260  0.09255  1.0000
  H   H1048     1.0  0.51245  0.74686  0.21728  1.0000
  C   C1050     1.0  0.95472  0.76777  0.17331  1.0000
  H   H1049     1.0  0.92509  0.91321  0.18980  1.0000
  S   S350      1.0  0.96492  0.87941  0.12908  1.0000
  N   N86       1.0  0.69141  0.55982  0.10333  1.0000
  C   C1051     1.0  0.85045  0.91562  0.18752  1.0000
  H   H1050     1.0  0.70199  0.53974  0.07987  1.0000
  C   C1052     1.0  0.84736  0.90901  0.13181  1.0000
  H   H1051     1.0  0.52262  0.70593  0.20726  1.0000
  S   S351      1.0  0.83505  0.96778  0.17560  1.0000
  C   C1053     1.0  0.66462  0.65382  0.22129  1.0000
  C   C1054     1.0  0.69814  0.65797  0.23111  1.0000
  H   H1052     1.0  0.53518  0.77359  0.21750  1.0000
  C   C1055     1.0  0.68580  0.64586  0.22396  1.0000
  H   H1053     1.0  0.51693  0.55647  0.09607  1.0000
  C   C1056     1.0  0.65565  0.67400  0.22552  1.0000
  H   H1054     1.0  0.76119  0.65703  0.20326  1.0000
  C   C1057     1.0  0.77124  0.66842  0.20415  1.0000
  C   C1058     1.0  0.69947  0.77421  0.21785  1.0000
  H   H1055     1.0  0.87346  0.64480  0.22458  1.0000
  C   C1059     1.0  0.78509  0.79410  0.22685  1.0000
  H   H1056     1.0  0.89115  0.62143  0.21906  1.0000
  H   H1057     1.0  0.49374  0.57376  0.10522  1.0000
  H   H1058     1.0  0.82956  0.75790  0.22578  1.0000
  C   C1060     1.0  0.50666  0.75956  0.22653  1.0000
  S   S352      1.0  0.89904  0.68574  0.23080  1.0000
  Fe  Fe176     1.0  0.98796  0.80430  0.15113  1.0000
  C   C1061     1.0  0.68585  0.76173  0.23127  1.0000
  C   C1062     1.0  0.49137  0.58761  0.05917  1.0000
  H   H1059     1.0  0.66653  0.73779  0.23348  1.0000
  S   S353      1.0  0.77550  0.60890  0.23357  1.0000
  C   C1063     1.0  0.83824  0.59479  0.23387  1.0000
  N   N87       1.0  0.77474  0.80094  0.29602  1.0000
  N   N88       1.0  0.76970  0.49303  0.26444  1.0000
  Fe  Fe177     1.0  0.51440  0.86151  0.30701  1.0000
  S   S354      1.0  0.53493  0.83635  0.32489  1.0000
  S   S355      1.0  0.52670  0.85991  0.27236  1.0000
  H   H1060     1.0  0.59624  0.91449  0.41579  1.0000
  H   H1061     1.0  0.52934  0.76158  0.32872  1.0000
  Fe  Fe178     1.0  0.53275  0.85866  0.34807  1.0000
  S   S356      1.0  0.56410  0.86306  0.35760  1.0000
  H   H1062     1.0  0.63625  0.81479  0.24995  1.0000
  S   S357      1.0  0.51325  0.88466  0.32952  1.0000
  S   S358      1.0  0.85028  0.49822  0.34436  1.0000
  Fe  Fe179     1.0  0.72831  0.85773  0.26930  1.0000
  Fe  Fe180     1.0  0.87844  0.48954  0.36205  1.0000
  S   S359      1.0  0.88797  0.51456  0.37780  1.0000
  C   C1064     1.0  0.71606  0.95712  0.30576  1.0000
  H   H1063     1.0  0.73762  0.92856  0.30962  1.0000
  Fe  Fe181     1.0  0.62688  0.96267  0.35398  1.0000
  S   S360      1.0  0.64401  0.95228  0.38235  1.0000
  S   S361      1.0  0.59636  0.95175  0.34911  1.0000
  H   H1064     1.0  0.57839  0.77515  0.30494  1.0000
  H   H1065     1.0  0.58216  0.81721  0.34785  1.0000
  Fe  Fe182     1.0  0.67343  0.95307  0.35809  1.0000
  S   S362      1.0  0.70213  0.92832  0.35948  1.0000
  H   H1066     1.0  0.54916  0.74250  0.34066  1.0000
  H   H1067     1.0  0.57389  0.93910  0.39246  1.0000
  S   S363      1.0  0.73396  0.85579  0.30300  1.0000
  C   C1065     1.0  0.57518  0.80469  0.34396  1.0000
  S   S364      1.0  0.94847  0.65564  0.35163  1.0000
  C   C1066     1.0  0.83487  0.60657  0.26782  1.0000
  H   H1068     1.0  0.98153  0.64274  0.29472  1.0000
  Fe  Fe183     1.0  0.50438  0.82619  0.34190  1.0000
  C   C1067     1.0  0.93204  0.65367  0.33303  1.0000
  C   C1068     1.0  0.93174  0.63459  0.32632  1.0000
  C   C1069     1.0  0.91898  0.63350  0.31109  1.0000
  C   C1070     1.0  0.90648  0.65146  0.30237  1.0000
  C   C1071     1.0  0.90669  0.67055  0.30910  1.0000
  C   C1072     1.0  0.91933  0.67161  0.32449  1.0000
  H   H1069     1.0  0.94112  0.62061  0.33308  1.0000
  H   H1070     1.0  0.89698  0.68447  0.30262  1.0000
  H   H1071     1.0  0.91932  0.68640  0.32972  1.0000
  N   N89       1.0  0.72777  0.93475  0.27893  1.0000
  C   C1073     1.0  0.58105  0.85777  0.27450  1.0000
  C   C1074     1.0  0.94346  0.68854  0.26974  1.0000
  C   C1075     1.0  0.80122  0.75503  0.24824  1.0000
  H   H1072     1.0  0.75539  0.81386  0.32192  1.0000
  H   H1073     1.0  0.55931  0.97294  0.37945  1.0000
  C   C1076     1.0  0.70901  0.90809  0.34365  1.0000
  C   C1077     1.0  0.69877  0.90718  0.32639  1.0000
  C   C1078     1.0  0.70627  0.89134  0.31344  1.0000
  C   C1079     1.0  0.72365  0.87621  0.31813  1.0000
  C   C1080     1.0  0.73344  0.87706  0.33557  1.0000
  C   C1081     1.0  0.72632  0.89298  0.34807  1.0000
  H   H1074     1.0  0.68539  0.91883  0.32283  1.0000
  H   H1075     1.0  0.69848  0.89069  0.30009  1.0000
  H   H1076     1.0  0.74678  0.86545  0.33937  1.0000
  H   H1077     1.0  0.73431  0.89356  0.36134  1.0000
  C   C1082     1.0  0.91298  0.52386  0.37172  1.0000
  C   C1083     1.0  0.91604  0.54088  0.38092  1.0000
  C   C1084     1.0  0.93505  0.54967  0.37529  1.0000
  C   C1085     1.0  0.95133  0.54144  0.36042  1.0000
  C   C1086     1.0  0.94847  0.52409  0.35168  1.0000
  C   C1087     1.0  0.92947  0.51538  0.35724  1.0000
  H   H1078     1.0  0.90349  0.54751  0.39225  1.0000
  H   H1079     1.0  0.93702  0.56291  0.38228  1.0000
  H   H1080     1.0  0.96102  0.51744  0.34035  1.0000
  H   H1081     1.0  0.92760  0.50212  0.35026  1.0000
  C   C1088     1.0  0.84498  0.51549  0.28037  1.0000
  C   C1089     1.0  0.82771  0.51462  0.29655  1.0000
  H   H1082     1.0  0.82911  0.50410  0.31108  1.0000
  H   H1083     1.0  0.79528  0.52671  0.30703  1.0000
  C   C1090     1.0  0.57290  0.88781  0.35540  1.0000
  C   C1091     1.0  0.56078  0.90646  0.34772  1.0000
  C   C1092     1.0  0.56834  0.92571  0.34582  1.0000
  C   C1093     1.0  0.58818  0.92673  0.35143  1.0000
  C   C1094     1.0  0.60037  0.90809  0.35915  1.0000
  C   C1095     1.0  0.59275  0.88879  0.36111  1.0000
  H   H1084     1.0  0.54549  0.90613  0.34330  1.0000
  H   H1085     1.0  0.55869  0.93997  0.33991  1.0000
  H   H1086     1.0  0.61564  0.90853  0.36361  1.0000
  H   H1087     1.0  0.60234  0.87451  0.36704  1.0000
  C   C1096     1.0  0.53590  0.83351  0.26916  1.0000
  C   C1097     1.0  0.55246  0.82823  0.25301  1.0000
  C   C1098     1.0  0.56127  0.80715  0.25209  1.0000
  C   C1099     1.0  0.55333  0.79131  0.26719  1.0000
  C   C1100     1.0  0.53614  0.79661  0.28262  1.0000
  C   C1101     1.0  0.52745  0.81754  0.28355  1.0000
  H   H1088     1.0  0.57473  0.88166  0.30515  1.0000
  H   H1089     1.0  0.93555  0.66618  0.25267  1.0000
  H   H1090     1.0  0.52941  0.78453  0.29395  1.0000
  H   H1091     1.0  0.51417  0.82130  0.29558  1.0000
  C   C1102     1.0  0.58284  0.94522  0.40213  1.0000
  Fe  Fe184     1.0  0.87189  0.48413  0.31803  1.0000
  C   C1103     1.0  0.95896  0.65223  0.27290  1.0000
  C   C1104     1.0  0.80536  0.54018  0.27486  1.0000
  H   H1092     1.0  0.68174  0.76347  0.24793  1.0000
  S   S365      1.0  0.87290  0.71218  0.26861  1.0000
  C   C1105     1.0  0.84214  0.52838  0.26098  1.0000
  C   C1106     1.0  0.82795  0.59517  0.25465  1.0000
  H   H1093     1.0  0.82015  0.55023  0.24312  1.0000
  C   C1107     1.0  0.57274  0.78111  0.31988  1.0000
  H   H1094     1.0  0.57203  0.86891  0.26307  1.0000
  C   C1108     1.0  0.74025  0.91574  0.27180  1.0000
  C   C1109     1.0  0.54663  0.75661  0.32868  1.0000
  H   H1095     1.0  0.72989  0.90680  0.26599  1.0000
  S   S366      1.0  0.97504  0.55269  0.35132  1.0000
  H   H1096     1.0  0.93268  0.70149  0.26287  1.0000
  S   S367      1.0  0.81160  0.73149  0.26300  1.0000
  S   S368      1.0  0.65639  0.96181  0.32977  1.0000
  H   H1097     1.0  0.82676  0.79652  0.25648  1.0000
  C   C1110     1.0  0.60739  0.93886  0.42754  1.0000
  C   C1111     1.0  0.60552  0.89067  0.30268  1.0000
  S   S369      1.0  0.70326  0.87923  0.25346  1.0000
  Fe  Fe185     1.0  0.87902  0.67899  0.26235  1.0000
  C   C1112     1.0  0.80877  0.78189  0.28457  1.0000
  C   C1113     1.0  0.78971  0.78361  0.29857  1.0000
  C   C1114     1.0  0.82229  0.54054  0.25813  1.0000
  H   H1098     1.0  0.62185  0.85706  0.25743  1.0000
  H   H1099     1.0  0.49181  0.82319  0.25642  1.0000
  H   H1100     1.0  0.74761  0.90520  0.28480  1.0000
  S   S370      1.0  0.89094  0.64941  0.28304  1.0000
  H   H1101     1.0  0.64830  0.87498  0.26753  1.0000
  H   H1102     1.0  0.88574  0.52445  0.33126  1.0000
  S   S371      1.0  0.78014  0.55521  0.27293  1.0000
  N   N90       1.0  0.49178  0.79229  0.24993  1.0000
  H   H1103     1.0  0.78223  0.69717  0.23876  1.0000
  H   H1104     1.0  0.82025  0.76776  0.28611  1.0000
  H   H1105     1.0  0.93739  0.58224  0.32631  1.0000
  C   C1115     1.0  0.80827  0.52724  0.29403  1.0000
  H   H1106     1.0  0.91074  0.52402  0.31476  1.0000
  N   N91       1.0  0.55632  0.77350  0.33358  1.0000
  H   H1107     1.0  0.75181  0.78751  0.32018  1.0000
  H   H1108     1.0  0.75672  0.79159  0.24942  1.0000
  C   C1116     1.0  0.78053  0.76459  0.25470  1.0000
  N   N92       1.0  0.96869  0.67498  0.29386  1.0000
  H   H1109     1.0  0.96020  0.63676  0.26863  1.0000
  H   H1110     1.0  0.85529  0.52898  0.24819  1.0000
  C   C1117     1.0  0.77839  0.81699  0.27998  1.0000
  H   H1111     1.0  0.76117  0.52600  0.25643  1.0000
  C   C1118     1.0  0.79718  0.81573  0.26560  1.0000
  Fe  Fe186     1.0  0.58451  0.75388  0.23849  1.0000
  C   C1119     1.0  0.81243  0.79803  0.26793  1.0000
  C   C1120     1.0  0.72826  0.93918  0.29878  1.0000
  H   H1112     1.0  0.79453  0.49343  0.28176  1.0000
  Fe  Fe187     1.0  0.97431  0.62843  0.35814  1.0000
  N   N93       1.0  0.58228  0.96631  0.40093  1.0000
  S   S372      1.0  0.73484  0.58427  0.24110  1.0000
  S   S373      1.0  0.91608  0.74018  0.23483  1.0000
  Fe  Fe188     1.0  0.70048  0.85159  0.23817  1.0000
  H   H1113     1.0  0.74122  0.80899  0.30204  1.0000
  S   S374      1.0  0.49667  0.79341  0.34277  1.0000
  H   H1114     1.0  0.71594  0.96019  0.32179  1.0000
  Fe  Fe189     1.0  0.76959  0.57577  0.24361  1.0000
  H   H1115     1.0  0.52178  0.80253  0.23860  1.0000
  C   C1121     1.0  0.51171  0.79095  0.23853  1.0000
  C   C1122     1.0  0.98124  0.67836  0.30949  1.0000
  C   C1123     1.0  0.59089  0.88009  0.29687  1.0000
  Fe  Fe190     1.0  0.84464  0.71589  0.25153  1.0000
  H   H1116     1.0  0.87460  0.58600  0.36162  1.0000
  S   S375      1.0  0.97318  0.60101  0.38453  1.0000
  H   H1117     1.0  0.75289  0.91986  0.25852  1.0000
  C   C1124     1.0  0.76216  0.51072  0.25175  1.0000
  H   H1118     1.0  0.77086  0.75704  0.26820  1.0000
  S   S376      1.0  0.87002  0.50063  0.28432  1.0000
  H   H1119     1.0  0.77008  0.50961  0.29013  1.0000
  H   H1120     1.0  0.78686  0.77078  0.31119  1.0000
  C   C1125     1.0  0.71572  0.94809  0.26544  1.0000
  H   H1121     1.0  0.53558  0.77563  0.36279  1.0000
  N   N94       1.0  0.89934  0.55230  0.32791  1.0000
  C   C1126     1.0  0.88366  0.56171  0.34173  1.0000
  C   C1127     1.0  0.91823  0.55987  0.32193  1.0000
  C   C1128     1.0  0.88682  0.57898  0.35019  1.0000
  C   C1129     1.0  0.92198  0.57700  0.33022  1.0000
  C   C1130     1.0  0.90614  0.58661  0.34442  1.0000
  H   H1122     1.0  0.63782  0.89683  0.29666  1.0000
  C   C1131     1.0  0.89564  0.53427  0.31919  1.0000
  H   H1123     1.0  0.93086  0.55216  0.31138  1.0000
  H   H1124     1.0  0.58853  0.84384  0.26687  1.0000
  C   C1132     1.0  0.60665  0.96038  0.42629  1.0000
  H   H1125     1.0  0.90904  0.59961  0.35133  1.0000
  C   C1133     1.0  0.54898  0.78129  0.35223  1.0000
  C   C1134     1.0  0.58239  0.79682  0.32483  1.0000
  C   C1135     1.0  0.85209  0.61742  0.26000  1.0000
  H   H1126     1.0  0.55890  0.84045  0.24158  1.0000
  N   N95       1.0  0.86229  0.61668  0.23970  1.0000
  H   H1127     1.0  0.86890  0.55536  0.34688  1.0000
  S   S377      1.0  0.56478  0.76485  0.26799  1.0000
  C   C1136     1.0  0.55833  0.79693  0.35775  1.0000
  S   S378      1.0  0.72400  0.82947  0.25624  1.0000
  S   S379      1.0  0.84881  0.68173  0.24868  1.0000
  C   C1137     1.0  0.59546  0.93119  0.41535  1.0000
  S   S380      1.0  0.50483  0.84471  0.36816  1.0000
  H   H1128     1.0  0.59520  0.80299  0.31380  1.0000
  H   H1129     1.0  0.61756  0.92818  0.43758  1.0000
  H   H1130     1.0  0.55221  0.80339  0.37234  1.0000
  H   H1131     1.0  0.91890  0.61874  0.30587  1.0000
  H   H1132     1.0  0.85722  0.62651  0.27025  1.0000
  N   N96       1.0  0.59684  0.86798  0.28097  1.0000
  C   C1138     1.0  0.61713  0.86631  0.27034  1.0000
  H   H1133     1.0  0.82680  0.60713  0.28392  1.0000
  C   C1139     1.0  0.63220  0.87652  0.27592  1.0000
  H   H1134     1.0  0.88742  0.53950  0.30504  1.0000
  C   C1140     1.0  0.62632  0.88875  0.29221  1.0000
  H   H1135     1.0  0.71545  0.94461  0.24964  1.0000
  H   H1136     1.0  0.76657  0.83074  0.27806  1.0000
  S   S381      1.0  0.98587  0.60940  0.33176  1.0000
  C   C1141     1.0  0.75488  0.80279  0.31083  1.0000
  H   H1137     1.0  0.56954  0.85243  0.28838  1.0000
  H   H1138     1.0  0.55337  0.75226  0.31275  1.0000
  H   H1139     1.0  0.79953  0.82809  0.25232  1.0000
  H   H1140     1.0  0.60073  0.90038  0.31517  1.0000
  Fe  Fe191     1.0  0.89129  0.71928  0.23596  1.0000
  H   H1141     1.0  0.95378  0.70670  0.28958  1.0000
  C   C1142     1.0  0.94515  0.66877  0.26390  1.0000
  C   C1143     1.0  0.95543  0.69138  0.28486  1.0000
  H   H1142     1.0  0.69855  0.68755  0.24109  1.0000
  C   C1144     1.0  0.70347  0.96628  0.27185  1.0000
  S   S382      1.0  0.75480  0.86558  0.24367  1.0000
  C   C1145     1.0  0.77699  0.49455  0.28430  1.0000
  H   H1143     1.0  0.81446  0.58685  0.26045  1.0000
  Fe  Fe192     1.0  0.98596  0.58204  0.35800  1.0000
  C   C1146     1.0  0.77252  0.78416  0.24413  1.0000
  H   H1144     1.0  0.61629  0.96657  0.43525  1.0000
  C   C1147     1.0  0.97084  0.65568  0.28779  1.0000
  C   C1148     1.0  0.59406  0.97395  0.41270  1.0000
  H   H1145     1.0  0.88878  0.62994  0.24441  1.0000
  H   H1146     1.0  0.98641  0.66345  0.31956  1.0000
  H   H1147     1.0  0.75880  0.67156  0.23673  1.0000
  H   H1148     1.0  0.97154  0.68870  0.32060  1.0000
  H   H1149     1.0  0.57449  0.80324  0.24004  1.0000
  S   S383      1.0  0.66777  0.84198  0.24195  1.0000
  H   H1150     1.0  0.77233  0.48178  0.29703  1.0000
  H   H1151     1.0  0.66107  0.70140  0.23652  1.0000
  H   H1152     1.0  0.69375  0.97677  0.26122  1.0000
  C   C1149     1.0  0.70364  0.97075  0.29216  1.0000
  C   C1150     1.0  0.64469  0.81355  0.23416  1.0000
  S   S384      1.0  0.72464  0.64839  0.23533  1.0000
  C   C1151     1.0  0.68919  0.67819  0.23531  1.0000
  C   C1152     1.0  0.68882  0.47991  0.23825  1.0000
