data_image0
_chemical_formula_structural       CSFeS2FeS2FeSFeS3HC2S2HCH3C6H4C6H3C7H3NC6H7CNHC3H4CNHCHC2H3CH2CHCH2CHCH2CH2C2HC3H6NCH2CHC3H3CHCNH2CH3CSCFeHC4H2FeCHFeS2CFeSNSFeS2FeSFeHFeS3FeSHFeS2FeSC2S2Fe2S2FeSFeS3FeS2FeS2FeSFeS3H2SH2C6H4CHC6H6C6H4C6H3C2HC7H4C2SH3C4H2CSHC3H2CHSNC2HNC3H2CH2CNC2HC2H3SH2CH2CHC4SCHC2HCHC3H2C2SH2CH2CHFeNC6H8SCH2CH2NH2SHC6HFeCH3SCHNCHC2H2C3H2NH2C2H2CHCHCHNCHC2HCHCH5C3SC2Fe2CS3FeS2FeS2FeSFeS5HSC6H4C6H4CHSH2CH2CHCH2FeH2C6H4C3H2CFeC2HNC2SCH3CHC2SH2C2HC2HCNHSNC6H8CHNCHC3H2CH3CHCHCH3C2HCH2C2SC2HFeHNHCH2C2SH3CFeHCHC2NHCSH2SFeS2FeS2FeSC2SHC5H2C6H4C6HNH3NC5H2CH2CHC2H2CH5C2H2CHCNH2SHCH2CHCHCFeS2FeS2FeSFeS3FeS2FeS2FeSFeS3H3C2SCHFeHCFeSHNS2CFeSCFeSHFeSFeS3FeS2FeS2FeSFeS3H3FeC5H4C6H3CHC4H10CH7C6H4C7H3C3HCH3C8H4CNC6H2C6H4C6H4CH2CNCHC3SH2CNC3HC2H2CH6C2SHC2H5NH5N2C2H4C3HC7HC2H2C3HCHNH6C4HSHS2CHC2HC6HSHCNCHSHNCHNCH3CH10CFeHC4HCNC2H4C2SHC2HNFeS2FeS2FeS2FeS2HS2FeH3C6H4C2HC3SCHC7H6C2NH2SC2H3CSCH2CHCH4SHFeHCSHCNC2FeHC5FeHCHC3H5SCH3FeCFeSFeS2FeSFeS3FeSHFeS2FeSFeS3FeS3FeSFeS2CFeS2FeSHCS3C4HCHSC4HC3FeH7C6H4C2HC3HSH2C6H4C4HCH2CHC6H5NC2HC3H3C2H4NC3HCH6C4H4CHCNH6CFeSCFeHNH4C4H2CHC2NCH2CNHFeSCFeSCFeSHSHFeHSFeS2NFeSHSCHC3HCH2C3HCHFeSC5H3CFeC4HSH2CHC3HC2H6SH2C2HNCH2CSCHCNCH2C3HSCHCHCH3C3NCHC2H2CH2C2FeSFeHSCFeSFeS3FeS2FeS2FeSFeS3FeS2FeS2FeSFeS3FeCSFeHSHC2S2C6H4C6H4C6H4C6H4C4NCH5C2HCHNC2H2CH2CHCHCH3CH2CH2CH3CHCH4SC2H2CH3C2H3NCH2CH3CH2SH3C2H3CNC3H3C3HCNH2CH2CH3CNHCFeS2FeS2FeSFeS3FeS2FeSCFeSFeS3HFeSHFeSFeSFeS3CSFeS2Fe2CS2H3NH3C6H4C6H5C2H4C3HC2HFeSHC6H4CSC3H3C7H4NC4HCH3CH2CNC6H2CH2NC6H3CH4CHCH2SC2H3CH2C3NH2CSCHCHNHCH2C2SH2C2HCHCH5CH3CHCFeS2FeS2FeSFeS3FeSHFeS2FeS2C2HC3H3C6H4C2SC6H4C5HCH2CHC4HCH2CNC6HNHCHC2H4CH7CNC5H5CH2CH4NCH3CH2SCHCHC2HNC2H2NCH4SFeSCHCH3SH3C2HC3FeS2FeS2FeSFeS3FeS2FeSCFeSFeS3FeSHFeS2FeSCS2FeCSFeH2C2HS2HFeHCHC3HC2HCNH2C6H4C6H4CH2C6H4C2HCHCH2CHC3H6CHCH2C2HNHC3H2CH3CHSHC2HCNHCHC6H2NCH2SCHNH2FeHCH2C2HCHC2H2SHS2HC2H3CH5C2HSHC2NH2CFeS2FeS2FeSFeS3FeS2FeS2FeSFeS3NFeS2HCFeHCHC3H3C4HNC2H2C2H4C6H2CHC6H4C3H2C6H4C4HCH3C7H4CH2CSHCH4CHC2HCHC9H4NS2C2HNC6H12SH2C3H2C5SCHFeHN2H4CH4FeHSHSC4NHCHSC2H2CH4C3HCFeS2FeS2FeH3SCFeS2FeS2FeNFeHS2HSHCHC6H5FeCH3C3H2C2HCH2CSHC2HCSNH4C2FeSCFeS2FeSFeS4HFeS2FeS2FeSFeS3FeS2FeS2FeHFeS3H2C4H4C6H4C2HC3HCH2CH2CHC6H4SHC6H4CHCH2NCNHC2H4FeC3HNSHC2HSC2H2CSC2HC2H7C2FeC6H3FeH3NC3H5CHC2HCHC3H3CHNCHCHNC2H2CH2CHNHCH2CHCHCHCH2CH2C4NCHC4HCHCHCHCHFeS2FeS2FeSFeS3CFeS2FeS2FeSFeS3H2CNFeS2FeSFeSFeS3CHC4HCH2C6H7C7H4C5H4C2NC7H6C4H2CHC3HC6H6CNC6H2CH5CHSH2C2NHCH2NCHNC2H2CH5CHC2H2C2NCH4CHCHSC2N2H2CHC2H4C2H2C2NC2HCH4C2HCHC2H2C2HCHCHC2HC2H5CH2CHCHCSCH4CHCH2FeS2FeSFeSFeS3FeS2FeS2FeSFeS3H3C6SH3C6H4C6H4C5HCHC2HSCH2CH6NC2H3C2H2C4HNH2C2SH4NHCH3C6HCNCHCHCH3C2HCHNH2CNH5CHCFeS2FeS2FeSFeS3HSCFeS2FeS2FeSFeNS2FeS2FeSFeSFeS3HCNH2C3H3CH3C6H4C6H4C6H4C4HCHC2HC2HC5H2CHC2H2CFeH2C3H2NC6H9CHC2NCH3CH2C2HC2HC2H2CHCHCHCHC2HCSHCSHSHCHNH3CHSH4C6H2CHCH4NHC3H3C2H4SHSHFeSFeSNCSFeS2FeS2FeSFeS3C6H4C6H4NC6H5C3H2C2HSHC2H2NC6H10CHC2H3CSCHCNHCH2CHC2NCHCH2CSC3H2CFe2CHFeCHCHCHSH8C3HCH2C3S2HSHFeHSFeHSH2NS2FeSHFeS2FeSFeS3FeS2FeS2FeSFeS3FeSHFeS2FeCFeS2FeS2FeS2FeSFeS3C3SH2C3H2C6H4C6H4C6H4C6H6C6H2C2HC6H4CH4CH4SCHC2H5CS2NC6H4CHC3H2CH2CHC2H3C2H5CH3C2NCHCNH2C4H2CH3CH2CH6CH2CHFeC2FeNC2H2C4H2CHCHC4H2C2H2NC6H7NC4HSHFeHCNCH3CHCH2C2H2C3SNHSCHFeSCFeHSCH2CHSHFeS2FeS2FeSFeCS3HC6H5C9H6SHNC7H5C2HCH4SCNHCHC2HNHCSCFeHCHC2H2C2SHCH2NC6H4C2NHCHC2H6CH2C2S2H2C2FeS2FeSHFeS2FeSH2NFeS3CHSC2H2C6H4NH2C6H2CHC4SCH4C2HC2H2CFeHCFeCSFeSCHCH3C2SCSCH2CH2FeCNHCSHCHC2HFe2S2FeSHFeSFeS3FeSCFeS2FeSFeS3HSHS2H2SFeSFeS2FeS2FeSFeS3FeS2FeS2FeSFeS3C6H2NHC6H5C2H3C2HCHC2HC4H3CSHCH2CNCH2C8H4C6H4C6H4C6H4C6H4NC6H8CSCH2C2HSHNHCH4C2H2CNCHFeC2H6C3HNCH4CH2CH2CHCHSHCNHC2HCSH2NC3HC2HCHCH4CHCH2C2NCFeHCHCH3CFeC2H2CHCHCH3C2H2C2SHSFeSFeCSCFeS2FeSH2FeS2FeSNFeS2CSHC6H4C6H4SH2CH3FeCHC2H6SCNC2H3CHSH3Fe
_chemical_formula_sum              "C1728 S576 Fe288 H1728 N144"
_cell_length_a       72.9951
_cell_length_b       72.097
_cell_length_c       72.4008
_cell_angle_alpha    81.2443
_cell_angle_beta     81.3
_cell_angle_gamma    81.2913

_space_group_name_H-M_alt    "P 1"
_space_group_IT_number       1

loop_
  _space_group_symop_operation_xyz
  'x, y, z'

loop_
  _atom_site_type_symbol
  _atom_site_label
  _atom_site_symmetry_multiplicity
  _atom_site_fract_x
  _atom_site_fract_y
  _atom_site_fract_z
  _atom_site_occupancy
  C   C1        1.0  0.10390  0.41505  0.29442  1.0000
  S   S1        1.0  0.22530  0.36915  0.13370  1.0000
  Fe  Fe1       1.0  0.11407  0.37501  0.15841  1.0000
  S   S2        1.0  0.11450  0.39044  0.18295  1.0000
  S   S3        1.0  0.13687  0.37794  0.13298  1.0000
  Fe  Fe2       1.0  0.07542  0.36217  0.17479  1.0000
  S   S4        1.0  0.07366  0.37646  0.20041  1.0000
  S   S5        1.0  0.05041  0.34642  0.17599  1.0000
  Fe  Fe3       1.0  0.08420  0.40030  0.18039  1.0000
  S   S6        1.0  0.06916  0.42938  0.18304  1.0000
  Fe  Fe4       1.0  0.10388  0.36507  0.20080  1.0000
  S   S7        1.0  0.11597  0.35227  0.22752  1.0000
  S   S8        1.0  0.08415  0.38704  0.15443  1.0000
  S   S9        1.0  0.10530  0.34857  0.17650  1.0000
  H   H1        1.0  0.19487  0.36204  0.16288  1.0000
  C   C2        1.0  0.02853  0.35874  0.17055  1.0000
  C   C3        1.0  0.01219  0.35018  0.17665  1.0000
  S   S10       1.0  0.11262  0.47038  0.22949  1.0000
  S   S11       1.0  0.07085  0.37709  0.30324  1.0000
  H   H2        1.0  0.02729  0.42322  0.19228  1.0000
  C   C4        1.0  0.02719  0.37660  0.15974  1.0000
  H   H3        1.0  0.01309  0.33636  0.18499  1.0000
  H   H4        1.0  0.09035  0.43917  0.26230  1.0000
  H   H5        1.0  0.03967  0.38327  0.15482  1.0000
  C   C5        1.0  0.10413  0.35989  0.24857  1.0000
  C   C6        1.0  0.08826  0.37341  0.24834  1.0000
  C   C7        1.0  0.07821  0.37847  0.26528  1.0000
  C   C8        1.0  0.08427  0.37049  0.28255  1.0000
  C   C9        1.0  0.10041  0.35732  0.28287  1.0000
  C   C10       1.0  0.11028  0.35195  0.26586  1.0000
  H   H6        1.0  0.08363  0.37992  0.23515  1.0000
  H   H7        1.0  0.06568  0.38862  0.26501  1.0000
  H   H8        1.0  0.10510  0.35107  0.29620  1.0000
  H   H9        1.0  0.12258  0.34147  0.26610  1.0000
  C   C11       1.0  0.09854  0.45823  0.21937  1.0000
  C   C12       1.0  0.10256  0.43864  0.21944  1.0000
  C   C13       1.0  0.09270  0.42941  0.20920  1.0000
  C   C14       1.0  0.07894  0.43982  0.19885  1.0000
  C   C15       1.0  0.07411  0.45915  0.19986  1.0000
  C   C16       1.0  0.08408  0.46839  0.20989  1.0000
  H   H10       1.0  0.11383  0.43077  0.22665  1.0000
  H   H11       1.0  0.09604  0.41435  0.20898  1.0000
  H   H12       1.0  0.06322  0.46723  0.19222  1.0000
  C   C17       1.0  0.13191  0.39247  0.29375  1.0000
  C   C18       1.0  0.20065  0.37294  0.13347  1.0000
  C   C19       1.0  0.19260  0.38054  0.11714  1.0000
  C   C20       1.0  0.17301  0.38267  0.11745  1.0000
  C   C21       1.0  0.16124  0.37696  0.13395  1.0000
  C   C22       1.0  0.16926  0.36976  0.15038  1.0000
  C   C23       1.0  0.18883  0.36783  0.15013  1.0000
  H   H13       1.0  0.20145  0.38464  0.10422  1.0000
  H   H14       1.0  0.16698  0.38838  0.10468  1.0000
  H   H15       1.0  0.16042  0.36533  0.16321  1.0000
  N   N1        1.0  0.20208  0.33556  0.10656  1.0000
  C   C24       1.0  0.21040  0.34032  0.08855  1.0000
  C   C25       1.0  0.18302  0.33831  0.11074  1.0000
  C   C26       1.0  0.19964  0.34874  0.07433  1.0000
  C   C27       1.0  0.17181  0.34663  0.09685  1.0000
  C   C28       1.0  0.18022  0.35199  0.07856  1.0000
  C   C29       1.0  0.21357  0.32672  0.12130  1.0000
  H   H16       1.0  0.01815  0.40979  0.31496  1.0000
  H   H17       1.0  0.17638  0.33468  0.12504  1.0000
  H   H18       1.0  0.23124  0.44612  0.10023  1.0000
  H   H19       1.0  0.05844  0.33927  0.21943  1.0000
  H   H20       1.0  0.17172  0.35875  0.06772  1.0000
  H   H21       1.0  0.21585  0.31112  0.12154  1.0000
  H   H22       1.0  0.22547  0.33774  0.08505  1.0000
  C   C30       1.0  0.23736  0.44079  0.11308  1.0000
  N   N2        1.0  0.10254  0.41320  0.27615  1.0000
  H   H23       1.0  0.07465  0.33590  0.26602  1.0000
  C   C31       1.0  0.11350  0.49228  0.27234  1.0000
  C   C32       1.0  0.10084  0.44326  0.13965  1.0000
  C   C33       1.0  0.00979  0.38551  0.15465  1.0000
  H   H24       1.0  0.05368  0.34235  0.29522  1.0000
  H   H25       1.0  0.11508  0.41812  0.12808  1.0000
  H   H26       1.0  0.07800  0.34035  0.23124  1.0000
  H   H27       1.0  0.14316  0.38414  0.30079  1.0000
  C   C34       1.0  0.02122  0.34361  0.26579  1.0000
  N   N3        1.0  0.05239  0.33784  0.24952  1.0000
  H   H28       1.0  0.13970  0.41289  0.14913  1.0000
  C   C35       1.0  0.13054  0.39082  0.27507  1.0000
  H   H29       1.0  0.12672  0.48448  0.29766  1.0000
  C   C36       1.0  0.24210  0.47314  0.11589  1.0000
  C   C37       1.0  0.02024  0.43599  0.18420  1.0000
  H   H30       1.0  0.22796  0.47980  0.12126  1.0000
  H   H31       1.0  0.09003  0.44544  0.13051  1.0000
  H   H32       1.0  0.11965  0.40632  0.31794  1.0000
  C   C38       1.0  0.02851  0.34429  0.28239  1.0000
  H   H33       1.0  0.24079  0.38943  0.03705  1.0000
  H   H34       1.0  0.13844  0.43444  0.17324  1.0000
  C   C39       1.0  0.12810  0.43696  0.16354  1.0000
  H   H35       1.0  0.00900  0.39908  0.14583  1.0000
  C   C40       1.0  0.08589  0.47163  0.15340  1.0000
  H   H36       1.0  0.06893  0.31816  0.23277  1.0000
  H   H37       1.0  0.08072  0.48347  0.20992  1.0000
  C   C41       1.0  0.11865  0.40482  0.30343  1.0000
  H   H38       1.0  0.22734  0.33210  0.11892  1.0000
  C   C42       1.0  0.06501  0.33368  0.23243  1.0000
  H   H39       1.0  0.15674  0.34946  0.10046  1.0000
  H   H40       1.0  0.14064  0.38111  0.26743  1.0000
  C   C43       1.0  0.11579  0.40153  0.26636  1.0000
  H   H41       1.0  0.11479  0.40007  0.25186  1.0000
  H   H42       1.0  0.07386  0.42454  0.27664  1.0000
  C   C44       1.0  0.08718  0.42443  0.26689  1.0000
  C   C45       1.0  0.05964  0.33819  0.26581  1.0000
  H   H43       1.0  0.09347  0.42432  0.30223  1.0000
  C   C46       1.0  0.11494  0.42785  0.13819  1.0000
  C   C47       1.0  0.11379  0.45218  0.16465  1.0000
  C   C48       1.0  0.12877  0.42487  0.15006  1.0000
  H   H44       1.0  0.20640  0.35277  0.06014  1.0000
  H   H45       1.0  0.08495  0.41838  0.25429  1.0000
  H   H46       1.0  0.08718  0.48029  0.16449  1.0000
  H   H47       1.0  0.12267  0.48205  0.26449  1.0000
  H   H48       1.0  0.23263  0.41044  0.00819  1.0000
  H   H49       1.0  0.01917  0.34675  0.29523  1.0000
  N   N4        1.0  0.10056  0.45533  0.15259  1.0000
  C   C49       1.0  0.04785  0.34166  0.28241  1.0000
  H   H50       1.0  0.00294  0.40554  0.18651  1.0000
  H   H51       1.0  0.02646  0.43651  0.16917  1.0000
  C   C50       1.0  0.11570  0.49357  0.29090  1.0000
  H   H52       1.0  0.02353  0.44847  0.18980  1.0000
  C   C51       1.0  0.23899  0.35599  0.00913  1.0000
  C   C52       1.0  0.03344  0.34033  0.24938  1.0000
  C   C53       1.0  0.23907  0.38336  0.02475  1.0000
  H   H53       1.0  0.11319  0.46125  0.17541  1.0000
  H   H54       1.0  0.23281  0.41195  0.11233  1.0000
  H   H55       1.0  0.08668  0.48113  0.13978  1.0000
  C   C54       1.0  0.01090  0.40763  0.32918  1.0000
  H   H56       1.0  0.20687  0.33028  0.13540  1.0000
  C   C55       1.0  0.23830  0.42144  0.11974  1.0000
  N   N5        1.0  0.00002  0.43554  0.18593  1.0000
  H   H57       1.0  0.07189  0.46675  0.15668  1.0000
  H   H58       1.0  0.02307  0.36002  0.32378  1.0000
  C   C56       1.0  0.23452  0.39524  0.00839  1.0000
  H   H59       1.0  0.00619  0.34554  0.26570  1.0000
  H   H60       1.0  0.02767  0.33975  0.23653  1.0000
  H   H61       1.0  0.24061  0.34078  0.00942  1.0000
  C   C57       1.0  0.24118  0.36371  0.02519  1.0000
  S   S12       1.0  0.24176  0.38735  0.08047  1.0000
  C   C58       1.0  0.99468  0.35935  0.17200  1.0000
  Fe  Fe5       1.0  0.11271  0.49839  0.21116  1.0000
  H   H62       1.0  0.01552  0.41175  0.37425  1.0000
  C   C59       1.0  0.09366  0.16856  0.64028  1.0000
  C   C60       1.0  0.01675  0.20910  0.55605  1.0000
  C   C61       1.0  0.03324  0.17043  0.44968  1.0000
  C   C62       1.0  0.02694  0.18271  0.46317  1.0000
  H   H63       1.0  0.02315  0.24976  0.39951  1.0000
  H   H64       1.0  0.17305  0.04299  0.53686  1.0000
  Fe  Fe6       1.0  0.09612  0.39185  0.35799  1.0000
  C   C63       1.0  0.12516  0.10956  0.40629  1.0000
  H   H65       1.0  0.03089  0.49786  0.36543  1.0000
  Fe  Fe7       1.0  0.10007  0.34795  0.36522  1.0000
  S   S13       1.0  0.07315  0.34708  0.35438  1.0000
  S   S14       1.0  0.11678  0.32106  0.37853  1.0000
  C   C64       1.0  0.15034  0.34268  0.65329  1.0000
  Fe  Fe8       1.0  0.06223  0.37085  0.37128  1.0000
  S   S15       1.0  0.03349  0.36879  0.38675  1.0000
  N   N6        1.0  0.14566  0.10655  0.40375  1.0000
  S   S16       1.0  0.08867  0.37085  0.38355  1.0000
  Fe  Fe9       1.0  0.17724  0.08841  0.58415  1.0000
  S   S17       1.0  0.20629  0.09621  0.58056  1.0000
  S   S18       1.0  0.15153  0.11009  0.57945  1.0000
  Fe  Fe10      1.0  0.19118  0.04544  0.59266  1.0000
  S   S19       1.0  0.22127  0.05016  0.58988  1.0000
  Fe  Fe11      1.0  0.21051  0.07468  0.60587  1.0000
  H   H66       1.0  0.04101  0.37078  0.62646  1.0000
  Fe  Fe12      1.0  0.21434  0.07113  0.56489  1.0000
  S   S20       1.0  0.23347  0.07350  0.53772  1.0000
  S   S21       1.0  0.18076  0.06861  0.61094  1.0000
  S   S22       1.0  0.18500  0.06467  0.56620  1.0000
  Fe  Fe13      1.0  0.20103  0.02110  0.47018  1.0000
  S   S23       1.0  0.17270  0.01313  0.46905  1.0000
  H   H67       1.0  0.15694  0.35073  0.66185  1.0000
  Fe  Fe14      1.0  0.20468  0.04030  0.43019  1.0000
  S   S24       1.0  0.17694  0.03349  0.42549  1.0000
  S   S25       1.0  0.22057  0.05664  0.40580  1.0000
  Fe  Fe15      1.0  0.16694  0.04298  0.45395  1.0000
  S   S26       1.0  0.13995  0.06302  0.45965  1.0000
  C   C65       1.0  0.00085  0.26246  0.58198  1.0000
  C   C66       1.0  0.11285  0.16460  0.64102  1.0000
  S   S27       1.0  0.19433  0.05143  0.45763  1.0000
  S   S28       1.0  0.21411  0.01095  0.44302  1.0000
  Fe  Fe16      1.0  0.09784  0.24976  0.62470  1.0000
  Fe  Fe17      1.0  0.08690  0.23998  0.58853  1.0000
  S   S29       1.0  0.08888  0.20875  0.59816  1.0000
  S   S30       1.0  0.07496  0.25042  0.56133  1.0000
  Fe  Fe18      1.0  0.07434  0.21761  0.62553  1.0000
  S   S31       1.0  0.05030  0.20440  0.64310  1.0000
  Fe  Fe19      1.0  0.11529  0.21251  0.60858  1.0000
  S   S32       1.0  0.14162  0.19106  0.60750  1.0000
  S   S33       1.0  0.07016  0.24861  0.61525  1.0000
  S   S34       1.0  0.11462  0.24352  0.59689  1.0000
  Fe  Fe20      1.0  0.09384  0.21846  0.43177  1.0000
  S   S35       1.0  0.08401  0.19020  0.43142  1.0000
  S   S36       1.0  0.08448  0.24276  0.40940  1.0000
  Fe  Fe21      1.0  0.10694  0.20542  0.47064  1.0000
  S   S37       1.0  0.09754  0.17685  0.47350  1.0000
  S   S38       1.0  0.12192  0.21020  0.49421  1.0000
  Fe  Fe22      1.0  0.11053  0.17660  0.44341  1.0000
  S   S39       1.0  0.13214  0.15195  0.43450  1.0000
  Fe  Fe23      1.0  0.07206  0.19259  0.46155  1.0000
  S   S40       1.0  0.04263  0.19031  0.47567  1.0000
  S   S41       1.0  0.12146  0.20472  0.44102  1.0000
  S   S42       1.0  0.08037  0.22128  0.46140  1.0000
  H   H68       1.0  0.20210  0.00920  0.56603  1.0000
  H   H69       1.0  0.13995  0.17352  0.49270  1.0000
  S   S43       1.0  0.10046  0.26929  0.64610  1.0000
  H   H70       1.0  0.04801  0.16553  0.44674  1.0000
  H   H71       1.0  0.06936  0.15852  0.63387  1.0000
  C   C67       1.0  0.08802  0.23950  0.54255  1.0000
  C   C68       1.0  0.10540  0.22888  0.54476  1.0000
  C   C69       1.0  0.11582  0.22024  0.52971  1.0000
  C   C70       1.0  0.10870  0.22175  0.51254  1.0000
  C   C71       1.0  0.09127  0.23235  0.51033  1.0000
  C   C72       1.0  0.08098  0.24131  0.52530  1.0000
  H   H72       1.0  0.11101  0.22759  0.55797  1.0000
  H   H73       1.0  0.12945  0.21246  0.53140  1.0000
  H   H74       1.0  0.08589  0.23390  0.49701  1.0000
  H   H75       1.0  0.06760  0.24967  0.52350  1.0000
  C   C73       1.0  0.03520  0.19662  0.63007  1.0000
  H   H76       1.0  0.01871  0.48337  0.63698  1.0000
  C   C74       1.0  0.13837  0.08813  0.45550  1.0000
  C   C75       1.0  0.15411  0.09733  0.44888  1.0000
  C   C76       1.0  0.15206  0.11712  0.44374  1.0000
  C   C77       1.0  0.13431  0.12797  0.44517  1.0000
  C   C78       1.0  0.11870  0.11895  0.45295  1.0000
  C   C79       1.0  0.12075  0.09912  0.45803  1.0000
  H   H77       1.0  0.16780  0.08914  0.44709  1.0000
  H   H78       1.0  0.16427  0.12397  0.43796  1.0000
  H   H79       1.0  0.10494  0.12708  0.45416  1.0000
  H   H80       1.0  0.10849  0.09217  0.46332  1.0000
  H   H81       1.0  0.01078  0.20319  0.64992  1.0000
  H   H82       1.0  0.14714  0.07649  0.41027  1.0000
  C   C80       1.0  0.14947  0.13308  0.58606  1.0000
  C   C81       1.0  0.13314  0.14580  0.58349  1.0000
  C   C82       1.0  0.13061  0.16377  0.58964  1.0000
  C   C83       1.0  0.14449  0.16922  0.59831  1.0000
  C   C84       1.0  0.16090  0.15659  0.60059  1.0000
  C   C85       1.0  0.16336  0.13859  0.59458  1.0000
  H   H83       1.0  0.12226  0.14163  0.57700  1.0000
  H   H84       1.0  0.11790  0.17334  0.58784  1.0000
  H   H85       1.0  0.17170  0.16067  0.60728  1.0000
  H   H86       1.0  0.17597  0.12894  0.59671  1.0000
  C   C86       1.0  0.22921  0.05570  0.52569  1.0000
  C   C87       1.0  0.22810  0.05933  0.50633  1.0000
  C   C88       1.0  0.22357  0.04532  0.49698  1.0000
  C   C89       1.0  0.22086  0.02752  0.50688  1.0000
  C   C90       1.0  0.22245  0.02376  0.52611  1.0000
  C   C91       1.0  0.22624  0.03797  0.53562  1.0000
  H   H87       1.0  0.23025  0.07311  0.49869  1.0000
  H   H88       1.0  0.22260  0.04819  0.48206  1.0000
  H   H89       1.0  0.99414  0.23931  0.39284  1.0000
  C   C92       1.0  0.09729  0.32173  0.66116  1.0000
  C   C93       1.0  0.04329  0.49674  0.63683  1.0000
  H   H90       1.0  0.05952  0.37534  0.63853  1.0000
  C   C94       1.0  0.02784  0.36341  0.35157  1.0000
  C   C95       1.0  0.10814  0.29889  0.38589  1.0000
  C   C96       1.0  0.09062  0.29580  0.38231  1.0000
  C   C97       1.0  0.08387  0.27837  0.38922  1.0000
  C   C98       1.0  0.09430  0.26397  0.40019  1.0000
  C   C99       1.0  0.11189  0.26699  0.40369  1.0000
  C   C100      1.0  0.11885  0.28424  0.39633  1.0000
  H   H91       1.0  0.08224  0.30682  0.37422  1.0000
  H   H92       1.0  0.07033  0.27618  0.38627  1.0000
  H   H93       1.0  0.12020  0.25597  0.41189  1.0000
  H   H94       1.0  0.13254  0.28634  0.39898  1.0000
  C   C101      1.0  0.08049  0.44408  0.36825  1.0000
  C   C102      1.0  0.09889  0.44133  0.35930  1.0000
  S   S44       1.0  0.10992  0.36898  0.34039  1.0000
  H   H95       1.0  0.02663  0.25872  0.56299  1.0000
  H   H96       1.0  0.07269  0.43216  0.37227  1.0000
  H   H97       1.0  0.00279  0.19795  0.47785  1.0000
  C   C103      1.0  0.09959  0.33354  0.64402  1.0000
  C   C104      1.0  0.09934  0.29420  0.64455  1.0000
  C   C105      1.0  0.10147  0.30600  0.62736  1.0000
  C   C106      1.0  0.10161  0.32561  0.62712  1.0000
  H   H98       1.0  0.10334  0.29999  0.61427  1.0000
  H   H99       1.0  0.10342  0.33462  0.61376  1.0000
  C   C107      1.0  0.03685  0.22133  0.40568  1.0000
  S   S45       1.0  0.21554  0.00972  0.49548  1.0000
  H   H100      1.0  0.08700  0.12812  0.62518  1.0000
  C   C108      1.0  0.12244  0.14733  0.63618  1.0000
  C   C109      1.0  0.15897  0.02394  0.55838  1.0000
  C   C110      1.0  0.09706  0.30222  0.66140  1.0000
  H   H101      1.0  0.04953  0.22574  0.40883  1.0000
  H   H102      1.0  0.11977  0.11318  0.61228  1.0000
  C   C111      1.0  0.02411  0.49563  0.64006  1.0000
  H   H103      1.0  0.06665  0.20519  0.52438  1.0000
  S   S46       1.0  0.10081  0.21896  0.63701  1.0000
  N   N7        1.0  0.00255  0.24895  0.61424  1.0000
  C   C112      1.0  0.15335  0.00596  0.56290  1.0000
  C   C113      1.0  0.16849  0.02910  0.54055  1.0000
  H   H104      1.0  0.02308  0.21239  0.50188  1.0000
  N   N8        1.0  0.14361  0.15525  0.51837  1.0000
  C   C114      1.0  0.14583  0.13694  0.52703  1.0000
  C   C115      1.0  0.14667  0.12185  0.51669  1.0000
  C   C116      1.0  0.05487  0.36493  0.63095  1.0000
  H   H105      1.0  0.12708  0.17655  0.53302  1.0000
  H   H106      1.0  0.01768  0.18170  0.40393  1.0000
  C   C117      1.0  0.01818  0.35756  0.33869  1.0000
  H   H107      1.0  0.12037  0.17500  0.64494  1.0000
  H   H108      1.0  0.11940  0.10470  0.63721  1.0000
  C   C118      1.0  0.04197  0.18965  0.61300  1.0000
  N   N9        1.0  0.00448  0.20994  0.39761  1.0000
  C   C119      1.0  0.02109  0.24256  0.60981  1.0000
  C   C120      1.0  0.14205  0.17100  0.52941  1.0000
  H   H109      1.0  0.11969  0.12379  0.41050  1.0000
  C   C121      1.0  0.01603  0.19801  0.63661  1.0000
  C   C122      1.0  0.17246  0.01606  0.52757  1.0000
  H   H110      1.0  0.03495  0.17798  0.58966  1.0000
  H   H111      1.0  0.10857  0.48704  0.35474  1.0000
  H   H112      1.0  0.01499  0.20804  0.57129  1.0000
  S   S47       1.0  0.09981  0.35822  0.64323  1.0000
  H   H113      1.0  0.13864  0.11605  0.62414  1.0000
  H   H114      1.0  0.22045  0.00995  0.53373  1.0000
  C   C123      1.0  0.02991  0.24582  0.59131  1.0000
  H   H115      1.0  0.02882  0.39982  0.64735  1.0000
  H   H116      1.0  0.14637  0.00167  0.57689  1.0000
  C   C124      1.0  0.00521  0.35241  0.37730  1.0000
  H   H117      1.0  0.03158  0.41810  0.34175  1.0000
  C   C125      1.0  0.00357  0.19302  0.62579  1.0000
  C   C126      1.0  0.00577  0.22882  0.39662  1.0000
  C   C127      1.0  0.03527  0.20212  0.40693  1.0000
  C   C128      1.0  0.07233  0.46223  0.37253  1.0000
  S   S48       1.0  0.00124  0.37610  0.64547  1.0000
  C   C129      1.0  0.05541  0.20411  0.51598  1.0000
  H   H118      1.0  0.05825  0.46411  0.37984  1.0000
  C   C130      1.0  0.02963  0.18381  0.60264  1.0000
  C   C131      1.0  0.14262  0.14431  0.48883  1.0000
  H   H119      1.0  0.14927  0.18276  0.52116  1.0000
  C   C132      1.0  0.00114  0.17037  0.44408  1.0000
  H   H120      1.0  0.15632  0.03367  0.56885  1.0000
  C   C133      1.0  0.01976  0.25593  0.57734  1.0000
  C   C134      1.0  0.10884  0.45702  0.35429  1.0000
  C   C135      1.0  0.08238  0.47786  0.36776  1.0000
  H   H121      1.0  0.06547  0.36322  0.61838  1.0000
  H   H122      1.0  0.19974  0.09827  0.39700  1.0000
  C   C136      1.0  0.02203  0.23480  0.40047  1.0000
  C   C137      1.0  0.02031  0.16401  0.44041  1.0000
  S   S49       1.0  0.18202  0.01637  0.60303  1.0000
  H   H123      1.0  0.11992  0.10828  0.39299  1.0000
  H   H124      1.0  0.03995  0.37047  0.34635  1.0000
  C   C138      1.0  0.17442  0.08534  0.40346  1.0000
  H   H125      1.0  0.11944  0.09905  0.41776  1.0000
  H   H126      1.0  0.14855  0.10736  0.52360  1.0000
  C   C139      1.0  0.09435  0.13831  0.62965  1.0000
  H   H127      1.0  0.02520  0.15422  0.43023  1.0000
  Fe  Fe24      1.0  0.18545  0.00452  0.44080  1.0000
  N   N10       1.0  0.09135  0.31046  0.42744  1.0000
  C   C140      1.0  0.08041  0.29615  0.43139  1.0000
  C   C141      1.0  0.08476  0.32771  0.41844  1.0000
  C   C142      1.0  0.06255  0.29880  0.42582  1.0000
  C   C143      1.0  0.06695  0.33087  0.41275  1.0000
  C   C144      1.0  0.05584  0.31629  0.41636  1.0000
  C   C145      1.0  0.11010  0.30759  0.43319  1.0000
  H   H128      1.0  0.08570  0.28235  0.43827  1.0000
  H   H129      1.0  0.09353  0.33896  0.41513  1.0000
  H   H130      1.0  0.05426  0.28717  0.42832  1.0000
  H   H131      1.0  0.06190  0.34445  0.40530  1.0000
  H   H132      1.0  0.04218  0.31855  0.41157  1.0000
  H   H133      1.0  0.12013  0.31398  0.42170  1.0000
  H   H134      1.0  0.10985  0.31424  0.44610  1.0000
  H   H135      1.0  0.11550  0.29230  0.43595  1.0000
  S   S50       1.0  0.11016  0.41860  0.35438  1.0000
  C   C146      1.0  0.00773  0.18862  0.46727  1.0000
  H   H136      1.0  0.04670  0.20363  0.55336  1.0000
  H   H137      1.0  0.18275  0.13108  0.39260  1.0000
  C   C147      1.0  0.02140  0.36091  0.37088  1.0000
  H   H138      1.0  0.21389  0.01931  0.39742  1.0000
  H   H139      1.0  0.04458  0.24059  0.58790  1.0000
  N   N11       1.0  0.11318  0.13449  0.63050  1.0000
  H   H140      1.0  0.14847  0.16663  0.54266  1.0000
  H   H141      1.0  0.12311  0.45504  0.34747  1.0000
  S   S51       1.0  0.22412  0.08180  0.62922  1.0000
  H   H142      1.0  0.17976  0.02022  0.51373  1.0000
  C   C148      1.0  0.15546  0.12170  0.39862  1.0000
  C   C149      1.0  0.05428  0.33069  0.63481  1.0000
  C   C150      1.0  0.14189  0.15903  0.49956  1.0000
  C   C151      1.0  0.02143  0.21145  0.51711  1.0000
  C   C152      1.0  0.01039  0.18573  0.60890  1.0000
  C   C153      1.0  0.00929  0.40867  0.36256  1.0000
  H   H143      1.0  0.13755  0.35157  0.64886  1.0000
  Fe  Fe25      1.0  0.08154  0.37011  0.33148  1.0000
  C   C154      1.0  0.14502  0.12559  0.49746  1.0000
  H   H144      1.0  0.02921  0.23495  0.62058  1.0000
  H   H145      1.0  0.05700  0.21445  0.50297  1.0000
  H   H146      1.0  0.14700  0.13388  0.54200  1.0000
  S   S52       1.0  0.06848  0.39382  0.34781  1.0000
  C   C155      1.0  0.15487  0.08851  0.40598  1.0000
  H   H147      1.0  0.05750  0.18966  0.51175  1.0000
  N   N12       1.0  0.03675  0.20779  0.52655  1.0000
  C   C156      1.0  0.03461  0.20663  0.54580  1.0000
  H   H148      1.0  0.18172  0.07110  0.40550  1.0000
  C   C157      1.0  0.17504  0.11901  0.39613  1.0000
  C   C158      1.0  0.18454  0.10067  0.39863  1.0000
  H   H149      1.0  0.14815  0.13603  0.39711  1.0000
  H   H150      1.0  0.14127  0.14749  0.47391  1.0000
  C   C159      1.0  0.10062  0.47519  0.35840  1.0000
  C   C160      1.0  0.01889  0.19665  0.40279  1.0000
  C   C161      1.0  0.23833  0.03049  0.63982  1.0000
  H   H151      1.0  0.14555  0.11406  0.48923  1.0000
  H   H152      1.0  0.05674  0.18833  0.60798  1.0000
  N   N13       1.0  0.05355  0.34676  0.64295  1.0000
  H   H153      1.0  0.08604  0.18183  0.64412  1.0000
  H   H154      1.0  0.16040  0.34022  0.64049  1.0000
  C   C162      1.0  0.05103  0.34600  0.66215  1.0000
  C   C163      1.0  0.12320  0.11621  0.62588  1.0000
  H   H155      1.0  0.05632  0.33130  0.61959  1.0000
  H   H156      1.0  0.22705  0.03514  0.55059  1.0000
  C   C164      1.0  0.00109  0.21252  0.54652  1.0000
  H   H157      1.0  0.13741  0.14453  0.63659  1.0000
  C   C165      1.0  0.08430  0.15540  0.63453  1.0000
  H   H158      1.0  0.04658  0.19153  0.41127  1.0000
  C   C166      1.0  0.00339  0.21388  0.52693  1.0000
  H   H159      1.0  0.22338  0.03264  0.63915  1.0000
  N   N14       1.0  0.24199  0.00628  0.39697  1.0000
  C   C167      1.0  0.22278  0.00628  0.39327  1.0000
  H   H160      1.0  0.05301  0.48530  0.63137  1.0000
  C   C168      1.0  0.01847  0.41222  0.34421  1.0000
  C   C169      1.0  0.14483  0.30972  0.65482  1.0000
  H   H161      1.0  0.14768  0.31100  0.63956  1.0000
  C   C170      1.0  0.00170  0.34958  0.34500  1.0000
  H   H162      1.0  0.00025  0.35025  0.39222  1.0000
  C   C171      1.0  0.05298  0.31318  0.64596  1.0000
  H   H163      1.0  0.00337  0.23996  0.64377  1.0000
  H   H164      1.0  0.05432  0.30035  0.63945  1.0000
  H   H165      1.0  0.22251  0.00580  0.37807  1.0000
  H   H166      1.0  0.23662  0.05064  0.65918  1.0000
  H   H167      1.0  0.13925  0.28075  0.65745  1.0000
  C   C172      1.0  0.99541  0.34669  0.36435  1.0000
  C   C173      1.0  0.99487  0.18265  0.45758  1.0000
  C   C174      1.0  0.02498  0.39270  0.66137  1.0000
  S   S53       1.0  0.99515  0.17899  0.59536  1.0000
  C   C175      1.0  0.24360  0.05964  0.40784  1.0000
  C   C176      1.0  0.99414  0.39984  0.33261  1.0000
  Fe  Fe26      1.0  0.07034  0.38768  0.70155  1.0000
  Fe  Fe27      1.0  0.10703  0.36500  0.71017  1.0000
  C   C177      1.0  0.09494  0.49234  0.67403  1.0000
  S   S54       1.0  0.12049  0.34065  0.72885  1.0000
  S   S55       1.0  0.09258  0.39312  0.71747  1.0000
  S   S56       1.0  0.08342  0.35839  0.69696  1.0000
  Fe  Fe28      1.0  0.09957  0.41452  0.81684  1.0000
  S   S57       1.0  0.08503  0.41938  0.84552  1.0000
  S   S58       1.0  0.10433  0.43947  0.79494  1.0000
  Fe  Fe29      1.0  0.10134  0.37240  0.82608  1.0000
  S   S59       1.0  0.08662  0.37376  0.85556  1.0000
  S   S60       1.0  0.11143  0.34406  0.81657  1.0000
  Fe  Fe30      1.0  0.06722  0.39751  0.84199  1.0000
  S   S61       1.0  0.03554  0.40555  0.84655  1.0000
  Fe  Fe31      1.0  0.10591  0.39532  0.85621  1.0000
  S   S62       1.0  0.12008  0.39605  0.88214  1.0000
  S   S63       1.0  0.08064  0.39435  0.81248  1.0000
  S   S64       1.0  0.12179  0.39220  0.82760  1.0000
  S   S65       1.0  0.20762  0.37810  0.88652  1.0000
  S   S66       1.0  0.12113  0.43052  0.68767  1.0000
  H   H168      1.0  0.23329  0.36187  0.98021  1.0000
  S   S67       1.0  0.22712  0.41028  0.91826  1.0000
  C   C178      1.0  0.14465  0.39361  0.88256  1.0000
  C   C179      1.0  0.15744  0.39070  0.86650  1.0000
  C   C180      1.0  0.17678  0.38712  0.86778  1.0000
  C   C181      1.0  0.18362  0.38659  0.88504  1.0000
  C   C182      1.0  0.17088  0.39046  0.90091  1.0000
  C   C183      1.0  0.15150  0.39391  0.89966  1.0000
  H   H169      1.0  0.15246  0.39065  0.85319  1.0000
  H   H170      1.0  0.18650  0.38427  0.85538  1.0000
  H   H171      1.0  0.17589  0.38999  0.91432  1.0000
  H   H172      1.0  0.14175  0.39629  0.91217  1.0000
  C   C184      1.0  0.11648  0.45449  0.80391  1.0000
  C   C185      1.0  0.11288  0.47411  0.79901  1.0000
  C   C186      1.0  0.12256  0.48618  0.80622  1.0000
  C   C187      1.0  0.13613  0.47861  0.81799  1.0000
  C   C188      1.0  0.14003  0.45897  0.82252  1.0000
  C   C189      1.0  0.12997  0.44692  0.81577  1.0000
  H   H173      1.0  0.10241  0.47997  0.78987  1.0000
  H   H174      1.0  0.13544  0.46581  0.68538  1.0000
  H   H175      1.0  0.15064  0.45308  0.83151  1.0000
  H   H176      1.0  0.13293  0.43177  0.81944  1.0000
  C   C190      1.0  0.01821  0.39142  0.84467  1.0000
  H   H177      1.0  0.99882  0.43636  0.69492  1.0000
  S   S68       1.0  0.22689  0.40283  0.97198  1.0000
  H   H178      1.0  0.22369  0.49419  0.94006  1.0000
  H   H179      1.0  0.14067  0.33556  0.69055  1.0000
  C   C191      1.0  0.01946  0.37230  0.85222  1.0000
  H   H180      1.0  0.09160  0.49547  0.84963  1.0000
  H   H181      1.0  0.13361  0.43348  0.86297  1.0000
  C   C192      1.0  0.11325  0.48806  0.67838  1.0000
  H   H182      1.0  0.03191  0.36544  0.85812  1.0000
  C   C193      1.0  0.12707  0.46438  0.75293  1.0000
  H   H183      1.0  0.06511  0.44860  0.88009  1.0000
  H   H184      1.0  0.04983  0.29871  0.67432  1.0000
  Fe  Fe32      1.0  0.22717  0.38295  0.90689  1.0000
  H   H185      1.0  0.13158  0.34829  0.88596  1.0000
  H   H186      1.0  0.09626  0.43133  0.88552  1.0000
  C   C194      1.0  0.11857  0.34253  0.75301  1.0000
  C   C195      1.0  0.12243  0.32606  0.76550  1.0000
  C   C196      1.0  0.12045  0.32679  0.78493  1.0000
  C   C197      1.0  0.11478  0.34403  0.79202  1.0000
  C   C198      1.0  0.11120  0.36064  0.77955  1.0000
  C   C199      1.0  0.11299  0.35987  0.76003  1.0000
  H   H187      1.0  0.12682  0.31264  0.76017  1.0000
  H   H188      1.0  0.12326  0.31393  0.79449  1.0000
  H   H189      1.0  0.10703  0.37405  0.78490  1.0000
  H   H190      1.0  0.11029  0.37270  0.75045  1.0000
  C   C200      1.0  0.00167  0.40024  0.83763  1.0000
  C   C201      1.0  0.01460  0.37482  0.69777  1.0000
  C   C202      1.0  0.09247  0.48151  0.85777  1.0000
  H   H191      1.0  0.13243  0.45317  0.76330  1.0000
  H   H192      1.0  0.06273  0.48110  0.86209  1.0000
  C   C203      1.0  0.23493  0.36788  0.99258  1.0000
  Fe  Fe33      1.0  0.10609  0.40485  0.68893  1.0000
  C   C204      1.0  0.23040  0.48046  0.88980  1.0000
  C   C205      1.0  0.22539  0.49021  0.92599  1.0000
  H   H193      1.0  0.14035  0.45273  0.87256  1.0000
  N   N15       1.0  0.11105  0.45386  0.87133  1.0000
  C   C206      1.0  0.13549  0.29105  0.68441  1.0000
  C   C207      1.0  0.07760  0.45523  0.87488  1.0000
  S   S69       1.0  0.12248  0.37676  0.68280  1.0000
  C   C208      1.0  0.17527  0.34364  0.86295  1.0000
  H   H194      1.0  0.16532  0.32878  0.90395  1.0000
  H   H195      1.0  0.15511  0.35315  0.90518  1.0000
  H   H196      1.0  0.18974  0.34238  0.86544  1.0000
  C   C209      1.0  0.07626  0.47334  0.86468  1.0000
  H   H197      1.0  0.07040  0.48066  0.67042  1.0000
  C   C210      1.0  0.13163  0.48266  0.75235  1.0000
  C   C211      1.0  0.14285  0.34692  0.87441  1.0000
  S   S70       1.0  0.08269  0.40129  0.67331  1.0000
  H   H198      1.0  0.12227  0.47824  0.85628  1.0000
  H   H199      1.0  0.13180  0.30582  0.70883  1.0000
  C   C212      1.0  0.09525  0.44557  0.87796  1.0000
  C   C213      1.0  0.17131  0.34451  0.84448  1.0000
  H   H200      1.0  0.00049  0.41508  0.83190  1.0000
  C   C214      1.0  0.12946  0.44319  0.87386  1.0000
  C   C215      1.0  0.11186  0.44136  0.74084  1.0000
  H   H201      1.0  0.12396  0.34906  0.85364  1.0000
  C   C216      1.0  0.10980  0.47162  0.86142  1.0000
  N   N16       1.0  0.22587  0.47171  0.92342  1.0000
  H   H202      1.0  0.13135  0.27795  0.69227  1.0000
  S   S71       1.0  0.14775  0.49341  0.82792  1.0000
  N   N17       1.0  0.06034  0.36130  0.77220  1.0000
  C   C217      1.0  0.04754  0.37453  0.78046  1.0000
  C   C218      1.0  0.06950  0.34666  0.78306  1.0000
  C   C219      1.0  0.04402  0.37357  0.80011  1.0000
  C   C220      1.0  0.06640  0.34535  0.80273  1.0000
  C   C221      1.0  0.05361  0.35892  0.81127  1.0000
  C   C222      1.0  0.06358  0.36239  0.75160  1.0000
  H   H203      1.0  0.04011  0.38601  0.77185  1.0000
  H   H204      1.0  0.07962  0.33614  0.77654  1.0000
  H   H205      1.0  0.03414  0.38427  0.80667  1.0000
  H   H206      1.0  0.07420  0.33409  0.81128  1.0000
  H   H207      1.0  0.05133  0.35824  0.82651  1.0000
  H   H208      1.0  0.06241  0.37737  0.74488  1.0000
  H   H209      1.0  0.07784  0.35560  0.74663  1.0000
  H   H210      1.0  0.05309  0.35534  0.74661  1.0000
  C   C223      1.0  0.00408  0.36229  0.85324  1.0000
  H   H211      1.0  0.99568  0.36200  0.68501  1.0000
  N   N18       1.0  0.11585  0.46071  0.74073  1.0000
  C   C224      1.0  0.11359  0.49323  0.72653  1.0000
  H   H212      1.0  0.20778  0.45590  0.94337  1.0000
  C   C225      1.0  0.04944  0.32878  0.67374  1.0000
  C   C226      1.0  0.03340  0.39598  0.67648  1.0000
  C   C227      1.0  0.00608  0.37162  0.68265  1.0000
  H   H213      1.0  0.09728  0.44138  0.73812  1.0000
  H   H214      1.0  0.14938  0.34710  0.82689  1.0000
  C   C228      1.0  0.05053  0.31226  0.66555  1.0000
  H   H215      1.0  0.23062  0.44328  0.93707  1.0000
  H   H216      1.0  0.99942  0.40649  0.71671  1.0000
  H   H217      1.0  0.10040  0.47189  0.71787  1.0000
  C   C229      1.0  0.15274  0.34643  0.84112  1.0000
  H   H218      1.0  0.18256  0.34381  0.83285  1.0000
  C   C230      1.0  0.12116  0.46904  0.68228  1.0000
  H   H219      1.0  0.12156  0.43454  0.72968  1.0000
  C   C231      1.0  0.12490  0.49715  0.73899  1.0000
  H   H220      1.0  0.14033  0.48553  0.76223  1.0000
  H   H221      1.0  0.17941  0.34788  0.89716  1.0000
  H   H222      1.0  0.04764  0.32828  0.68894  1.0000
  C   C232      1.0  0.01143  0.38042  0.66443  1.0000
  C   C233      1.0  0.11075  0.45417  0.68218  1.0000
  H   H223      1.0  0.01079  0.36766  0.71177  1.0000
  C   C234      1.0  0.13842  0.34758  0.85616  1.0000
  H   H224      1.0  0.12916  0.43464  0.88801  1.0000
  H   H225      1.0  0.09578  0.32756  0.67427  1.0000
  C   C235      1.0  0.16544  0.34356  0.89692  1.0000
  C   C236      1.0  0.02840  0.38688  0.69462  1.0000
  S   S72       1.0  0.03993  0.39005  0.71314  1.0000
  C   C237      1.0  0.09236  0.45847  0.67804  1.0000
  C   C238      1.0  0.22289  0.45730  0.93983  1.0000
  H   H226      1.0  0.09536  0.29321  0.67477  1.0000
  Fe  Fe34      1.0  0.23644  0.39202  0.94410  1.0000
  H   H227      1.0  0.23268  0.47639  0.87573  1.0000
  N   N19       1.0  0.16109  0.34501  0.87759  1.0000
  H   H228      1.0  0.11337  0.43265  0.75474  1.0000
  C   C239      1.0  0.10914  0.47484  0.72765  1.0000
  H   H229      1.0  0.22875  0.45210  0.90351  1.0000
  H   H230      1.0  0.04358  0.40578  0.67411  1.0000
  C   C240      1.0  0.23255  0.38754  0.99225  1.0000
  C   C241      1.0  0.14010  0.29256  0.66486  1.0000
  S   S73       1.0  0.23416  0.36458  0.93385  1.0000
  H   H231      1.0  0.00617  0.43070  0.86978  1.0000
  H   H232      1.0  0.08422  0.44715  0.67791  1.0000
  H   H233      1.0  0.22815  0.46094  0.95229  1.0000
  C   C242      1.0  0.22817  0.46677  0.90561  1.0000
  Fe  Fe35      1.0  0.09769  0.37195  0.66996  1.0000
  H   H234      1.0  0.00498  0.34764  0.85958  1.0000
  C   C243      1.0  0.14069  0.32350  0.68320  1.0000
  H   H235      1.0  0.05049  0.35871  0.66861  1.0000
  C   C244      1.0  0.08456  0.47748  0.67381  1.0000
  C   C245      1.0  0.13568  0.30664  0.69366  1.0000
  N   N20       1.0  0.14546  0.32478  0.66407  1.0000
  H   H236      1.0  0.20722  0.59170  0.05020  1.0000
  C   C246      1.0  0.18764  0.53221  0.19682  1.0000
  S   S74       1.0  0.22967  0.56111  0.11871  1.0000
  H   H237      1.0  0.21422  0.57698  0.08213  1.0000
  H   H238      1.0  0.22957  0.52326  0.06150  1.0000
  S   S75       1.0  0.13149  0.54133  0.30912  1.0000
  Fe  Fe36      1.0  0.13516  0.52160  0.17885  1.0000
  S   S76       1.0  0.13374  0.51803  0.21045  1.0000
  S   S77       1.0  0.16407  0.51521  0.16209  1.0000
  Fe  Fe37      1.0  0.09196  0.52339  0.18112  1.0000
  S   S78       1.0  0.08774  0.52047  0.21261  1.0000
  S   S79       1.0  0.06852  0.51925  0.16523  1.0000
  Fe  Fe38      1.0  0.10897  0.54054  0.20940  1.0000
  S   S80       1.0  0.10290  0.56272  0.22916  1.0000
  C   C247      1.0  0.16163  0.56480  0.23056  1.0000
  C   C248      1.0  0.08979  0.51868  0.29176  1.0000
  S   S81       1.0  0.11147  0.54575  0.17752  1.0000
  H   H239      1.0  0.18081  0.51988  0.19514  1.0000
  C   C249      1.0  0.04448  0.52607  0.17301  1.0000
  C   C250      1.0  0.03074  0.51847  0.16586  1.0000
  C   C251      1.0  0.01962  0.54579  0.19014  1.0000
  C   C252      1.0  0.03879  0.53952  0.18546  1.0000
  C   C253      1.0  0.01152  0.52442  0.17090  1.0000
  H   H240      1.0  0.00113  0.51877  0.16498  1.0000
  H   H241      1.0  0.04917  0.54560  0.19095  1.0000
  C   C254      1.0  0.12329  0.54737  0.28707  1.0000
  C   C255      1.0  0.13237  0.53816  0.27185  1.0000
  C   C256      1.0  0.12588  0.54243  0.25421  1.0000
  C   C257      1.0  0.11063  0.55638  0.25148  1.0000
  C   C258      1.0  0.10166  0.56574  0.26667  1.0000
  C   C259      1.0  0.10777  0.56103  0.28451  1.0000
  H   H242      1.0  0.14434  0.52754  0.27380  1.0000
  H   H243      1.0  0.13304  0.53527  0.24264  1.0000
  H   H244      1.0  0.08990  0.57661  0.26466  1.0000
  H   H245      1.0  0.10071  0.56825  0.29619  1.0000
  C   C260      1.0  0.21142  0.54820  0.13042  1.0000
  C   C261      1.0  0.21417  0.52845  0.13440  1.0000
  C   C262      1.0  0.19942  0.51868  0.14391  1.0000
  C   C263      1.0  0.18174  0.52847  0.14951  1.0000
  C   C264      1.0  0.17890  0.54821  0.14526  1.0000
  C   C265      1.0  0.19371  0.55800  0.13588  1.0000
  H   H246      1.0  0.22773  0.52073  0.13038  1.0000
  N   N21       1.0  0.17374  0.54655  0.20517  1.0000
  H   H247      1.0  0.16528  0.55595  0.14895  1.0000
  H   H248      1.0  0.19141  0.57327  0.13272  1.0000
  H   H249      1.0  0.06850  0.54300  0.27133  1.0000
  N   N22       1.0  0.21406  0.56580  0.03830  1.0000
  C   C266      1.0  0.21193  0.57663  0.05265  1.0000
  C   C267      1.0  0.22008  0.54680  0.04141  1.0000
  C   C268      1.0  0.21580  0.56845  0.07069  1.0000
  C   C269      1.0  0.22423  0.53821  0.05923  1.0000
  C   C270      1.0  0.22187  0.54911  0.07396  1.0000
  H   H250      1.0  0.06103  0.52243  0.26461  1.0000
  H   H251      1.0  0.19413  0.57925  0.02035  1.0000
  C   C271      1.0  0.14572  0.56863  0.20309  1.0000
  H   H252      1.0  0.22483  0.54263  0.08790  1.0000
  H   H253      1.0  0.01544  0.55670  0.19924  1.0000
  C   C272      1.0  0.00588  0.53838  0.18283  1.0000
  H   H254      1.0  0.21697  0.58718  0.01471  1.0000
  C   C273      1.0  0.09940  0.50440  0.26383  1.0000
  C   C274      1.0  0.00654  0.54873  0.32099  1.0000
  H   H255      1.0  0.13622  0.58380  0.22693  1.0000
  H   H256      1.0  0.15793  0.55078  0.18208  1.0000
  C   C275      1.0  0.17499  0.55120  0.22255  1.0000
  H   H257      1.0  0.09777  0.50327  0.24945  1.0000
  H   H258      1.0  0.19406  0.53823  0.18268  1.0000
  H   H259      1.0  0.16233  0.56818  0.24453  1.0000
  H   H260      1.0  0.13396  0.57495  0.19567  1.0000
  H   H261      1.0  0.18621  0.54430  0.23042  1.0000
  C   C276      1.0  0.15928  0.55497  0.19552  1.0000
  C   C277      1.0  0.20942  0.57469  0.01968  1.0000
  H   H262      1.0  0.20177  0.50343  0.14711  1.0000
  H   H263      1.0  0.19908  0.52700  0.20557  1.0000
  C   C278      1.0  0.14699  0.57361  0.22068  1.0000
  H   H264      1.0  0.22211  0.53820  0.03002  1.0000
  C   C279      1.0  0.07319  0.53008  0.26432  1.0000
  N   N23       1.0  0.08797  0.51759  0.27345  1.0000
  H   H265      1.0  0.07841  0.53514  0.24946  1.0000
  H   H266      1.0  0.08071  0.52911  0.29934  1.0000
  S   S82       1.0  0.11590  0.49980  0.17988  1.0000
  H   H267      1.0  0.03499  0.50817  0.15611  1.0000
  C   C280      1.0  0.03779  0.55710  0.31936  1.0000
  H   H268      1.0  0.03132  0.53390  0.30692  1.0000
  H   H269      1.0  0.21359  0.56490  0.00884  1.0000
  C   C281      1.0  0.02574  0.54550  0.31488  1.0000
  H   H270      1.0  0.05254  0.55472  0.31449  1.0000
  C   C282      1.0  0.10371  0.50676  0.30074  1.0000
  H   H271      1.0  0.10553  0.50807  0.31509  1.0000
  C   C283      1.0  0.03062  0.57202  0.32980  1.0000
  Fe  Fe39      1.0  0.12761  0.75191  0.58671  1.0000
  S   S83       1.0  0.14055  0.72123  0.58984  1.0000
  S   S84       1.0  0.14752  0.77227  0.59108  1.0000
  Fe  Fe40      1.0  0.09261  0.74151  0.57392  1.0000
  S   S85       1.0  0.10320  0.71057  0.57556  1.0000
  S   S86       1.0  0.06619  0.74979  0.56041  1.0000
  Fe  Fe41      1.0  0.11209  0.71394  0.60307  1.0000
  S   S87       1.0  0.10469  0.69397  0.63007  1.0000
  Fe  Fe42      1.0  0.13041  0.72032  0.56230  1.0000
  S   S88       1.0  0.14825  0.71029  0.53674  1.0000
  S   S89       1.0  0.09969  0.74476  0.60237  1.0000
  S   S90       1.0  0.11926  0.75108  0.55831  1.0000
  Fe  Fe43      1.0  0.10282  0.68511  0.45981  1.0000
  S   S91       1.0  0.12335  0.68471  0.43334  1.0000
  S   S92       1.0  0.10605  0.66885  0.48833  1.0000
  Fe  Fe44      1.0  0.07383  0.71291  0.44130  1.0000
  S   S93       1.0  0.09177  0.71527  0.41329  1.0000
  S   S94       1.0  0.04512  0.72832  0.44869  1.0000
  Fe  Fe45      1.0  0.09821  0.68343  0.41913  1.0000
  S   S95       1.0  0.09664  0.66693  0.39502  1.0000
  Fe  Fe46      1.0  0.11518  0.71645  0.42993  1.0000
  S   S96       1.0  0.13696  0.73655  0.42003  1.0000
  S   S97       1.0  0.07837  0.68128  0.44600  1.0000
  S   S98       1.0  0.09657  0.71667  0.45748  1.0000
  H   H272      1.0  0.22609  0.89243  0.38873  1.0000
  H   H273      1.0  0.03058  0.65730  0.37163  1.0000
  H   H274      1.0  0.06941  0.75578  0.41443  1.0000
  C   C284      1.0  0.08842  0.72661  0.52155  1.0000
  C   C285      1.0  0.23252  0.87028  0.63136  1.0000
  S   S99       1.0  0.11066  0.60370  0.63914  1.0000
  C   C286      1.0  0.24335  0.84915  0.41695  1.0000
  H   H275      1.0  0.12709  0.77664  0.38725  1.0000
  Fe  Fe47      1.0  0.08486  0.52754  0.36474  1.0000
  H   H276      1.0  0.15314  0.79096  0.47589  1.0000
  C   C287      1.0  0.05543  0.70302  0.64041  1.0000
  Fe  Fe48      1.0  0.10046  0.56322  0.37196  1.0000
  S   S100      1.0  0.10858  0.57785  0.39480  1.0000
  H   H277      1.0  0.22830  0.91743  0.38650  1.0000
  N   N24       1.0  0.16523  0.76439  0.52395  1.0000
  S   S101      1.0  0.07167  0.55472  0.37589  1.0000
  S   S102      1.0  0.11403  0.53469  0.36360  1.0000
  C   C288      1.0  0.02839  0.53866  0.36886  1.0000
  Fe  Fe49      1.0  0.21642  0.87850  0.55957  1.0000
  S   S103      1.0  0.18976  0.89350  0.54982  1.0000
  C   C289      1.0  0.14684  0.63055  0.41339  1.0000
  Fe  Fe50      1.0  0.20247  0.88319  0.59997  1.0000
  S   S104      1.0  0.17455  0.89855  0.59357  1.0000
  H   H278      1.0  0.17086  0.92179  0.50303  1.0000
  Fe  Fe51      1.0  0.17561  0.87595  0.57478  1.0000
  S   S105      1.0  0.15038  0.86137  0.57283  1.0000
  Fe  Fe52      1.0  0.19148  0.91452  0.56939  1.0000
  S   S106      1.0  0.18997  0.94594  0.55804  1.0000
  S   S107      1.0  0.20230  0.85960  0.58323  1.0000
  S   S108      1.0  0.21930  0.90052  0.57721  1.0000
  Fe  Fe53      1.0  0.16071  0.83323  0.44668  1.0000
  S   S109      1.0  0.19063  0.82006  0.44690  1.0000
  S   S110      1.0  0.13632  0.81685  0.44622  1.0000
  Fe  Fe54      1.0  0.16870  0.87138  0.45703  1.0000
  S   S111      1.0  0.19880  0.86053  0.45891  1.0000
  S   S112      1.0  0.15706  0.90021  0.46602  1.0000
  Fe  Fe55      1.0  0.19772  0.84850  0.43238  1.0000
  S   S113      1.0  0.22121  0.85417  0.40914  1.0000
  Fe  Fe56      1.0  0.18910  0.83333  0.47318  1.0000
  S   S114      1.0  0.19816  0.81670  0.49978  1.0000
  S   S115      1.0  0.16782  0.86086  0.42953  1.0000
  S   S116      1.0  0.15892  0.84507  0.47400  1.0000
  H   H279      1.0  0.24187  0.86223  0.49878  1.0000
  H   H280      1.0  0.09240  0.64399  0.36738  1.0000
  H   H281      1.0  0.15124  0.60140  0.42600  1.0000
  Fe  Fe57      1.0  0.07146  0.56708  0.34566  1.0000
  C   C290      1.0  0.23014  0.85212  0.52700  1.0000
  C   C291      1.0  0.21892  0.83946  0.53809  1.0000
  C   C292      1.0  0.21010  0.82768  0.52964  1.0000
  C   C293      1.0  0.21216  0.82882  0.51002  1.0000
  C   C294      1.0  0.22404  0.84088  0.49887  1.0000
  H   H282      1.0  0.14872  0.58866  0.39676  1.0000
  H   H283      1.0  0.21699  0.83874  0.55323  1.0000
  H   H284      1.0  0.20107  0.81824  0.53830  1.0000
  H   H285      1.0  0.22600  0.84143  0.48371  1.0000
  C   C295      1.0  0.02886  0.70171  0.62356  1.0000
  C   C296      1.0  0.16732  0.95510  0.45607  1.0000
  C   C297      1.0  0.16055  0.93795  0.46411  1.0000
  C   C298      1.0  0.16637  0.92131  0.45570  1.0000
  C   C299      1.0  0.17911  0.92194  0.43919  1.0000
  C   C300      1.0  0.18561  0.93916  0.43095  1.0000
  H   H286      1.0  0.15049  0.93767  0.47672  1.0000
  H   H287      1.0  0.18344  0.90930  0.43247  1.0000
  H   H288      1.0  0.14725  0.84798  0.53325  1.0000
  C   C301      1.0  0.23311  0.85251  0.50739  1.0000
  H   H289      1.0  0.18230  0.79945  0.63322  1.0000
  C   C302      1.0  0.19826  0.98058  0.56323  1.0000
  C   C303      1.0  0.19052  0.96415  0.57178  1.0000
  C   C304      1.0  0.18180  0.96338  0.59039  1.0000
  C   C305      1.0  0.17998  0.97928  0.60000  1.0000
  H   H290      1.0  0.14391  0.86082  0.61745  1.0000
  H   H291      1.0  0.20496  0.98132  0.54879  1.0000
  H   H292      1.0  0.17562  0.95091  0.59707  1.0000
  H   H293      1.0  0.17251  0.97885  0.61413  1.0000
  H   H294      1.0  0.06211  0.69777  0.57715  1.0000
  H   H295      1.0  0.16635  0.73998  0.54491  1.0000
  H   H296      1.0  0.18951  0.86262  0.50267  1.0000
  H   H297      1.0  0.16852  0.58692  0.63461  1.0000
  H   H298      1.0  0.15397  0.97899  0.55351  1.0000
  H   H299      1.0  0.17118  0.84428  0.53787  1.0000
  C   C306      1.0  0.15105  0.88374  0.52661  1.0000
  H   H300      1.0  0.17604  0.85975  0.62506  1.0000
  H   H301      1.0  0.99813  0.67126  0.42285  1.0000
  H   H302      1.0  0.21587  0.88903  0.43175  1.0000
  H   H303      1.0  0.15682  0.60618  0.35496  1.0000
  H   H304      1.0  0.14295  0.91392  0.52557  1.0000
  H   H305      1.0  0.16175  0.98678  0.50891  1.0000
  H   H306      1.0  0.19503  0.93965  0.41789  1.0000
  C   C307      1.0  0.13815  0.75733  0.42995  1.0000
  C   C308      1.0  0.15291  0.76800  0.42290  1.0000
  C   C309      1.0  0.15317  0.78577  0.42867  1.0000
  C   C310      1.0  0.13849  0.79317  0.44134  1.0000
  C   C311      1.0  0.12413  0.78215  0.44902  1.0000
  C   C312      1.0  0.12400  0.76426  0.44345  1.0000
  H   H307      1.0  0.16394  0.76275  0.41249  1.0000
  H   H308      1.0  0.16430  0.79410  0.42262  1.0000
  H   H309      1.0  0.11274  0.78774  0.45888  1.0000
  H   H310      1.0  0.11260  0.75619  0.44905  1.0000
  C   C313      1.0  0.09705  0.64209  0.39636  1.0000
  C   C314      1.0  0.09510  0.63454  0.38008  1.0000
  C   C315      1.0  0.09724  0.61483  0.37985  1.0000
  C   C316      1.0  0.10179  0.60243  0.39580  1.0000
  C   C317      1.0  0.10299  0.60997  0.41234  1.0000
  C   C318      1.0  0.10049  0.62972  0.41268  1.0000
  C   C319      1.0  0.99553  0.66231  0.38904  1.0000
  H   H311      1.0  0.09620  0.60926  0.36705  1.0000
  H   H312      1.0  0.10641  0.60049  0.42479  1.0000
  H   H313      1.0  0.10193  0.63532  0.42535  1.0000
  C   C320      1.0  0.02851  0.72295  0.43577  1.0000
  C   C321      1.0  0.03384  0.71858  0.41740  1.0000
  C   C322      1.0  0.02034  0.71518  0.40687  1.0000
  H   H314      1.0  0.20702  0.81482  0.63790  1.0000
  C   C323      1.0  0.14765  0.60387  0.39662  1.0000
  H   H315      1.0  0.08939  0.74112  0.52444  1.0000
  H   H316      1.0  0.04828  0.71825  0.41112  1.0000
  H   H317      1.0  0.02447  0.71215  0.39253  1.0000
  C   C324      1.0  0.11523  0.78181  0.39693  1.0000
  C   C325      1.0  0.14281  0.60819  0.36335  1.0000
  C   C326      1.0  0.14840  0.79682  0.58344  1.0000
  C   C327      1.0  0.16533  0.80408  0.58307  1.0000
  C   C328      1.0  0.16632  0.82371  0.57920  1.0000
  C   C329      1.0  0.15030  0.83639  0.57585  1.0000
  C   C330      1.0  0.13353  0.82911  0.57552  1.0000
  C   C331      1.0  0.13257  0.80944  0.57924  1.0000
  H   H318      1.0  0.17768  0.79446  0.58623  1.0000
  H   H319      1.0  0.17938  0.82900  0.57931  1.0000
  H   H320      1.0  0.12106  0.83875  0.57284  1.0000
  H   H321      1.0  0.11943  0.80411  0.57952  1.0000
  C   C332      1.0  0.10595  0.66892  0.63213  1.0000
  N   N25       1.0  0.01273  0.66342  0.39677  1.0000
  C   C333      1.0  0.09990  0.65879  0.64965  1.0000
  C   C334      1.0  0.10794  0.62886  0.63676  1.0000
  C   C335      1.0  0.11392  0.63900  0.61925  1.0000
  C   C336      1.0  0.11289  0.65891  0.61690  1.0000
  C   C337      1.0  0.02149  0.70035  0.60715  1.0000
  C   C338      1.0  0.15553  0.81319  0.62647  1.0000
  H   H322      1.0  0.11947  0.63141  0.60739  1.0000
  H   H323      1.0  0.11762  0.66647  0.60334  1.0000
  C   C339      1.0  0.04472  0.74798  0.57483  1.0000
  C   C340      1.0  0.02894  0.74638  0.56657  1.0000
  C   C341      1.0  0.02784  0.66994  0.42194  1.0000
  C   C342      1.0  0.23847  0.86579  0.64915  1.0000
  C   C343      1.0  0.02566  0.74702  0.60539  1.0000
  C   C344      1.0  0.04310  0.74817  0.59429  1.0000
  H   H324      1.0  0.03006  0.74629  0.55153  1.0000
  H   H325      1.0  0.20867  0.83590  0.62121  1.0000
  H   H326      1.0  0.02437  0.74737  0.62042  1.0000
  H   H327      1.0  0.05518  0.74956  0.60072  1.0000
  C   C345      1.0  0.13639  0.69882  0.52340  1.0000
  C   C346      1.0  0.12360  0.68659  0.53224  1.0000
  C   C347      1.0  0.11460  0.67712  0.52138  1.0000
  C   C348      1.0  0.11800  0.68024  0.50166  1.0000
  C   C349      1.0  0.13042  0.69286  0.49280  1.0000
  C   C350      1.0  0.13986  0.70187  0.50367  1.0000
  H   H328      1.0  0.12109  0.68395  0.54746  1.0000
  H   H329      1.0  0.10499  0.66738  0.52827  1.0000
  H   H330      1.0  0.13309  0.69532  0.47757  1.0000
  H   H331      1.0  0.14979  0.71126  0.49676  1.0000
  C   C351      1.0  0.22294  0.93026  0.61108  1.0000
  H   H332      1.0  0.05671  0.75077  0.52389  1.0000
  H   H333      1.0  0.17344  0.96976  0.52593  1.0000
  C   C352      1.0  0.15775  0.99319  0.54963  1.0000
  N   N26       1.0  0.03778  0.52724  0.64772  1.0000
  C   C353      1.0  0.05959  0.69961  0.60694  1.0000
  H   H334      1.0  0.04437  0.70709  0.65193  1.0000
  C   C354      1.0  0.03940  0.72424  0.49743  1.0000
  C   C355      1.0  0.24196  0.88647  0.44281  1.0000
  C   C356      1.0  0.01163  0.66821  0.41452  1.0000
  S   S117      1.0  0.18746  0.97735  0.42773  1.0000
  H   H335      1.0  0.20006  0.83771  0.64559  1.0000
  H   H336      1.0  0.14570  0.57918  0.63967  1.0000
  C   C357      1.0  0.05267  0.69854  0.59019  1.0000
  N   N27       1.0  0.08668  0.77641  0.41712  1.0000
  C   C358      1.0  0.08596  0.79345  0.42354  1.0000
  C   C359      1.0  0.05631  0.73941  0.51576  1.0000
  C   C360      1.0  0.09981  0.80516  0.41666  1.0000
  H   H337      1.0  0.18634  0.98623  0.51047  1.0000
  C   C361      1.0  0.11453  0.79925  0.40330  1.0000
  C   C362      1.0  0.07268  0.76382  0.42521  1.0000
  H   H338      1.0  0.07491  0.79789  0.43437  1.0000
  H   H339      1.0  0.09967  0.81833  0.42229  1.0000
  C   C363      1.0  0.15330  0.90274  0.52056  1.0000
  H   H340      1.0  0.13723  0.59434  0.36664  1.0000
  H   H341      1.0  0.07797  0.75355  0.43688  1.0000
  H   H342      1.0  0.02798  0.74940  0.51010  1.0000
  H   H343      1.0  0.01882  0.50630  0.34485  1.0000
  H   H344      1.0  0.05960  0.54458  0.64578  1.0000
  H   H345      1.0  0.00555  0.72668  0.45801  1.0000
  C   C364      1.0  0.01187  0.51037  0.64733  1.0000
  C   C365      1.0  0.15796  0.76376  0.49275  1.0000
  S   S118      1.0  0.08222  0.53959  0.33488  1.0000
  H   H346      1.0  0.02781  0.69879  0.57735  1.0000
  C   C366      1.0  0.99903  0.52865  0.36817  1.0000
  C   C367      1.0  0.00973  0.72335  0.44377  1.0000
  H   H347      1.0  0.05462  0.69924  0.48668  1.0000
  H   H348      1.0  0.02686  0.67418  0.43585  1.0000
  H   H349      1.0  0.16560  0.84096  0.51525  1.0000
  H   H350      1.0  0.16405  0.73904  0.51253  1.0000
  H   H351      1.0  0.12580  0.80781  0.39852  1.0000
  N   N28       1.0  0.01807  0.52635  0.36389  1.0000
  H   H352      1.0  0.23357  0.83410  0.44381  1.0000
  H   H353      1.0  0.19425  0.89590  0.49166  1.0000
  H   H354      1.0  0.15578  0.75581  0.48185  1.0000
  H   H355      1.0  0.22486  0.94713  0.58393  1.0000
  H   H356      1.0  0.10121  0.72219  0.51196  1.0000
  N   N29       1.0  0.07153  0.72599  0.51310  1.0000
  N   N30       1.0  0.04769  0.70150  0.62325  1.0000
  C   C368      1.0  0.07083  0.71147  0.50318  1.0000
  C   C369      1.0  0.04002  0.73874  0.50799  1.0000
  H   H357      1.0  0.03644  0.55712  0.64621  1.0000
  H   H358      1.0  0.24124  0.87327  0.60137  1.0000
  H   H359      1.0  0.05960  0.66032  0.38413  1.0000
  H   H360      1.0  0.02702  0.72373  0.49096  1.0000
  C   C370      1.0  0.15833  0.58065  0.64594  1.0000
  C   C371      1.0  0.23264  0.93786  0.59413  1.0000
  C   C372      1.0  0.01962  0.55423  0.37772  1.0000
  H   H361      1.0  0.08831  0.71700  0.53509  1.0000
  C   C373      1.0  0.02969  0.66069  0.38585  1.0000
  C   C374      1.0  0.20009  0.82937  0.63386  1.0000
  C   C375      1.0  0.15943  0.79352  0.50342  1.0000
  C   C376      1.0  0.15206  0.84732  0.62153  1.0000
  C   C377      1.0  0.14903  0.61099  0.41322  1.0000
  C   C378      1.0  0.03347  0.69900  0.59032  1.0000
  C   C379      1.0  0.05488  0.71047  0.49503  1.0000
  H   H362      1.0  0.14767  0.61774  0.64135  1.0000
  C   C380      1.0  0.15642  0.78347  0.48940  1.0000
  C   C381      1.0  0.14218  0.63510  0.38063  1.0000
  H   H363      1.0  0.20785  0.93349  0.61387  1.0000
  H   H364      1.0  0.15864  0.80879  0.50079  1.0000
  C   C382      1.0  0.10118  0.77044  0.40413  1.0000
  C   C383      1.0  0.16255  0.75438  0.51017  1.0000
  C   C384      1.0  0.16900  0.90716  0.50802  1.0000
  H   H365      1.0  0.06509  0.71399  0.63747  1.0000
  C   C385      1.0  0.16184  0.84972  0.52694  1.0000
  H   H366      1.0  0.13899  0.88040  0.53661  1.0000
  N   N31       1.0  0.16394  0.86958  0.52009  1.0000
  H   H367      1.0  0.10235  0.75652  0.39976  1.0000
  H   H368      1.0  0.16673  0.79163  0.53134  1.0000
  H   H369      1.0  0.16340  0.76211  0.55385  1.0000
  H   H370      1.0  0.13298  0.61772  0.35468  1.0000
  H   H371      1.0  0.05926  0.77178  0.43084  1.0000
  H   H372      1.0  0.18588  0.75330  0.54181  1.0000
  C   C386      1.0  0.16399  0.78370  0.52067  1.0000
  C   C387      1.0  0.17053  0.75445  0.54198  1.0000
  C   C388      1.0  0.17938  0.87381  0.50785  1.0000
  C   C389      1.0  0.18219  0.89262  0.50168  1.0000
  H   H373      1.0  0.16478  0.56627  0.65134  1.0000
  S   S119      1.0  0.04551  0.58528  0.33747  1.0000
  H   H374      1.0  0.04095  0.51351  0.34608  1.0000
  S   S120      1.0  0.09945  0.57730  0.34215  1.0000
  S   S121      1.0  0.99703  0.57574  0.65371  1.0000
  C   C390      1.0  0.14463  0.83049  0.62208  1.0000
  H   H375      1.0  0.07451  0.69923  0.60682  1.0000
  C   C391      1.0  0.00994  0.74514  0.59715  1.0000
  C   C392      1.0  0.17970  0.95583  0.43929  1.0000
  H   H376      1.0  0.14109  0.65793  0.39712  1.0000
  C   C393      1.0  0.10082  0.63888  0.65196  1.0000
  C   C394      1.0  0.22468  0.90485  0.39652  1.0000
  C   C395      1.0  0.23019  0.89210  0.42884  1.0000
  C   C396      1.0  0.01163  0.74473  0.57772  1.0000
  C   C397      1.0  0.17382  0.81299  0.63025  1.0000
  C   C398      1.0  0.01902  0.52607  0.65126  1.0000
  H   H377      1.0  0.99957  0.74326  0.57129  1.0000
  S   S122      1.0  0.23930  0.86828  0.53764  1.0000
  H   H378      1.0  0.16251  0.96785  0.46251  1.0000
  C   C399      1.0  0.17031  0.84661  0.62559  1.0000
  N   N32       1.0  0.18093  0.82959  0.62990  1.0000
  C   C400      1.0  0.14345  0.64270  0.39699  1.0000
  H   H379      1.0  0.14732  0.63629  0.42631  1.0000
  S   S123      1.0  0.20859  0.87672  0.62977  1.0000
  H   H380      1.0  0.13068  0.83084  0.61841  1.0000
  N   N33       1.0  0.23684  0.90052  0.41139  1.0000
  C   C401      1.0  0.04616  0.66237  0.39281  1.0000
  H   H381      1.0  0.00579  0.58719  0.34331  1.0000
  N   N34       1.0  0.14404  0.61591  0.38067  1.0000
  C   C402      1.0  0.04519  0.66698  0.41098  1.0000
  H   H382      1.0  0.06353  0.68928  0.64532  1.0000
  H   H383      1.0  0.01930  0.70352  0.63636  1.0000
  H   H384      1.0  0.08273  0.70066  0.50133  1.0000
  C   C403      1.0  0.17241  0.98458  0.51874  1.0000
  H   H385      1.0  0.04347  0.53664  0.36561  1.0000
  H   H386      1.0  0.22833  0.86580  0.66171  1.0000
  H   H387      1.0  0.13898  0.64469  0.36812  1.0000
  H   H388      1.0  0.24195  0.98145  0.41726  1.0000
  H   H389      1.0  0.00947  0.53735  0.65713  1.0000
  H   H390      1.0  0.20975  0.90790  0.40253  1.0000
  H   H391      1.0  0.02788  0.56436  0.38093  1.0000
  H   H392      1.0  0.00647  0.70131  0.60732  1.0000
  H   H393      1.0  0.05788  0.66853  0.41640  1.0000
  H   H394      1.0  0.15007  0.80002  0.62624  1.0000
  C   C404      1.0  0.04479  0.54390  0.65200  1.0000
  Fe  Fe58      1.0  0.11040  0.54838  0.33403  1.0000
  H   H395      1.0  0.22539  0.91177  0.63721  1.0000
  C   C405      1.0  0.04992  0.51277  0.64074  1.0000
  C   C406      1.0  0.19665  0.99641  0.57295  1.0000
  C   C407      1.0  0.23280  0.91815  0.62420  1.0000
  C   C408      1.0  0.00017  0.55692  0.38182  1.0000
  H   H396      1.0  0.06484  0.51351  0.63818  1.0000
  C   C409      1.0  0.01137  0.57569  0.33521  1.0000
  N   N35       1.0  0.15305  0.59285  0.66087  1.0000
  C   C410      1.0  0.00159  0.71544  0.41488  1.0000
  C   C411      1.0  0.18701  0.99601  0.59121  1.0000
  H   H397      1.0  0.99814  0.65303  0.37774  1.0000
  H   H398      1.0  0.02626  0.59757  0.65452  1.0000
  H   H399      1.0  0.99693  0.50966  0.64989  1.0000
  H   H400      1.0  0.23678  0.87916  0.45638  1.0000
  C   C412      1.0  0.02758  0.51014  0.35463  1.0000
  C   C413      1.0  0.14791  0.61182  0.65605  1.0000
  S   S124      1.0  0.07170  0.50031  0.37401  1.0000
  H   H401      1.0  0.09452  0.66639  0.66153  1.0000
  C   C414      1.0  0.99942  0.56387  0.33109  1.0000
  C   C415      1.0  0.99632  0.71930  0.43345  1.0000
  H   H402      1.0  0.21638  0.99394  0.40138  1.0000
  N   N36       1.0  0.16757  0.99820  0.53238  1.0000
  Fe  Fe59      1.0  0.11476  0.56003  0.70084  1.0000
  S   S125      1.0  0.13654  0.55163  0.72044  1.0000
  S   S126      1.0  0.08961  0.54477  0.70743  1.0000
  Fe  Fe60      1.0  0.09001  0.53584  0.85169  1.0000
  S   S127      1.0  0.10384  0.53274  0.82229  1.0000
  S   S128      1.0  0.06168  0.52500  0.85849  1.0000
  Fe  Fe61      1.0  0.12521  0.54874  0.86246  1.0000
  S   S129      1.0  0.14118  0.54695  0.83366  1.0000
  S   S130      1.0  0.13790  0.55785  0.88601  1.0000
  Fe  Fe62      1.0  0.11422  0.56015  0.82315  1.0000
  S   S131      1.0  0.11194  0.58312  0.79862  1.0000
  S   S132      1.0  0.22574  0.55317  0.88684  1.0000
  H   H403      1.0  0.07785  0.58035  0.75046  1.0000
  S   S133      1.0  0.09873  0.56444  0.85176  1.0000
  S   S134      1.0  0.11501  0.52044  0.86508  1.0000
  Fe  Fe63      1.0  0.12935  0.51974  0.83551  1.0000
  H   H404      1.0  0.12081  0.61828  0.86234  1.0000
  H   H405      1.0  0.12343  0.60051  0.82984  1.0000
  H   H406      1.0  0.11472  0.59437  0.86633  1.0000
  C   C416      1.0  0.16236  0.55449  0.88712  1.0000
  C   C417      1.0  0.17522  0.54787  0.87243  1.0000
  C   C418      1.0  0.19455  0.54725  0.87280  1.0000
  C   C419      1.0  0.20131  0.55285  0.88800  1.0000
  C   C420      1.0  0.18850  0.55888  0.90300  1.0000
  C   C421      1.0  0.16911  0.55985  0.90246  1.0000
  H   H407      1.0  0.17029  0.54364  0.86056  1.0000
  H   H408      1.0  0.20434  0.54254  0.86113  1.0000
  H   H409      1.0  0.19348  0.56333  0.91475  1.0000
  H   H410      1.0  0.15929  0.56501  0.91390  1.0000
  C   C422      1.0  0.00361  0.55898  0.85250  1.0000
  C   C423      1.0  0.02425  0.52911  0.85518  1.0000
  H   H411      1.0  0.01285  0.56193  0.71820  1.0000
  C   C424      1.0  0.03956  0.53854  0.85603  1.0000
  C   C425      1.0  0.03683  0.55828  0.85506  1.0000
  C   C426      1.0  0.01890  0.56842  0.85343  1.0000
  S   S135      1.0  0.09881  0.58909  0.69542  1.0000
  C   C427      1.0  0.12622  0.60307  0.86555  1.0000
  H   H412      1.0  0.04843  0.56571  0.85588  1.0000
  C   C428      1.0  0.15945  0.59304  0.85521  1.0000
  C   C429      1.0  0.13006  0.56064  0.74207  1.0000
  C   C430      1.0  0.13509  0.54970  0.75869  1.0000
  C   C431      1.0  0.12954  0.55651  0.77613  1.0000
  C   C432      1.0  0.11937  0.57451  0.77692  1.0000
  C   C433      1.0  0.11469  0.58563  0.76026  1.0000
  C   C434      1.0  0.11982  0.57862  0.74289  1.0000
  H   H413      1.0  0.14313  0.53584  0.75814  1.0000
  H   H414      1.0  0.13333  0.54788  0.78892  1.0000
  H   H415      1.0  0.10682  0.59956  0.76083  1.0000
  H   H416      1.0  0.11593  0.58720  0.73015  1.0000
  H   H417      1.0  0.14878  0.59113  0.80499  1.0000
  H   H418      1.0  0.18140  0.58234  0.81255  1.0000
  C   C435      1.0  0.07613  0.56519  0.75473  1.0000
  C   C436      1.0  0.15198  0.59183  0.81902  1.0000
  N   N37       1.0  0.14150  0.59750  0.85103  1.0000
  H   H419      1.0  0.15632  0.57016  0.68338  1.0000
  H   H420      1.0  0.12851  0.51137  0.73821  1.0000
  S   S136      1.0  0.07618  0.56950  0.66885  1.0000
  C   C437      1.0  0.01535  0.57014  0.70449  1.0000
  C   C438      1.0  0.03018  0.58100  0.70049  1.0000
  H   H421      1.0  0.11976  0.50131  0.80241  1.0000
  H   H422      1.0  0.03906  0.57020  0.75745  1.0000
  H   H423      1.0  0.08999  0.55685  0.75657  1.0000
  C   C439      1.0  0.17026  0.58690  0.82326  1.0000
  S   S137      1.0  0.04610  0.57960  0.71660  1.0000
  C   C440      1.0  0.17407  0.58757  0.84145  1.0000
  H   H424      1.0  0.13076  0.60051  0.87982  1.0000
  H   H425      1.0  0.13708  0.62519  0.69986  1.0000
  C   C441      1.0  0.02306  0.59004  0.66849  1.0000
  H   H426      1.0  0.01641  0.56647  0.78661  1.0000
  C   C442      1.0  0.05700  0.55643  0.80582  1.0000
  H   H427      1.0  0.18817  0.58348  0.84505  1.0000
  H   H428      1.0  0.23168  0.51021  0.88024  1.0000
  H   H429      1.0  0.06216  0.55270  0.81939  1.0000
  H   H430      1.0  0.22704  0.51889  0.91252  1.0000
  S   S138      1.0  0.23724  0.54024  0.94036  1.0000
  H   H431      1.0  0.07095  0.55995  0.74308  1.0000
  Fe  Fe64      1.0  0.07398  0.57322  0.69932  1.0000
  H   H432      1.0  0.04514  0.59971  0.67954  1.0000
  C   C443      1.0  0.00459  0.56895  0.69027  1.0000
  S   S139      1.0  0.12035  0.55493  0.67050  1.0000
  H   H433      1.0  0.14679  0.59066  0.70839  1.0000
  C   C444      1.0  0.00640  0.53926  0.85327  1.0000
  N   N38       1.0  0.06297  0.56307  0.77207  1.0000
  C   C445      1.0  0.04417  0.56615  0.77102  1.0000
  C   C446      1.0  0.06947  0.55874  0.78919  1.0000
  Fe  Fe65      1.0  0.09366  0.54179  0.67677  1.0000
  H   H434      1.0  0.02799  0.55717  0.81757  1.0000
  C   C447      1.0  0.03131  0.56410  0.78739  1.0000
  C   C448      1.0  0.03783  0.55900  0.80483  1.0000
  C   C449      1.0  0.15262  0.58526  0.67943  1.0000
  C   C450      1.0  0.00869  0.57869  0.67222  1.0000
  C   C451      1.0  0.03376  0.59123  0.68262  1.0000
  Fe  Fe66      1.0  0.10237  0.58322  0.66533  1.0000
  H   H435      1.0  0.01686  0.58367  0.85290  1.0000
  C   C452      1.0  0.13768  0.59709  0.83317  1.0000
  H   H436      1.0  0.16251  0.59313  0.86940  1.0000
  C   C453      1.0  0.14174  0.61614  0.68891  1.0000
  C   C454      1.0  0.14712  0.59680  0.69370  1.0000
  C   C455      1.0  0.22739  0.50426  0.91049  1.0000
  H   H437      1.0  0.13762  0.63870  0.66600  1.0000
  H   H438      1.0  0.99476  0.53182  0.85260  1.0000
  H   H439      1.0  0.09618  0.63130  0.66552  1.0000
  H   H440      1.0  0.10844  0.50430  0.71592  1.0000
  H   H441      1.0  0.08436  0.55701  0.79007  1.0000
  S   S140      1.0  0.08472  0.51594  0.66794  1.0000
  C   C456      1.0  0.14213  0.62374  0.66997  1.0000
  H   H442      1.0  0.02619  0.51385  0.85599  1.0000
  H   H443      1.0  0.04397  0.54349  0.66751  1.0000
  H   H444      1.0  0.12148  0.49937  0.67830  1.0000
  Fe  Fe67      1.0  0.24330  0.55371  0.91031  1.0000
  C   C457      1.0  0.22996  0.49935  0.89230  1.0000
  Fe  Fe68      1.0  0.47180  0.10654  0.09137  1.0000
  S   S141      1.0  0.45122  0.08781  0.08750  1.0000
  Fe  Fe69      1.0  0.44288  0.13299  0.11230  1.0000
  S   S142      1.0  0.41952  0.11682  0.11001  1.0000
  S   S143      1.0  0.44080  0.15761  0.12857  1.0000
  Fe  Fe70      1.0  0.43977  0.09091  0.11788  1.0000
  S   S144      1.0  0.43385  0.06594  0.14028  1.0000
  Fe  Fe71      1.0  0.43317  0.11532  0.07985  1.0000
  S   S145      1.0  0.41737  0.12365  0.05429  1.0000
  S   S146      1.0  0.46199  0.10724  0.12210  1.0000
  S   S147      1.0  0.45478  0.13377  0.08189  1.0000
  Fe  Fe72      1.0  0.46152  0.28097  0.09704  1.0000
  S   S148      1.0  0.46140  0.26519  0.07271  1.0000
  H   H445      1.0  0.25270  0.48019  0.12080  1.0000
  Fe  Fe73      1.0  0.42260  0.30336  0.09234  1.0000
  S   S149      1.0  0.41994  0.28940  0.06760  1.0000
  S   S150      1.0  0.40096  0.32820  0.10019  1.0000
  Fe  Fe74      1.0  0.43156  0.26242  0.08415  1.0000
  S   S151      1.0  0.42020  0.23634  0.07960  1.0000
  Fe  Fe75      1.0  0.44995  0.29314  0.05827  1.0000
  S   S152      1.0  0.46011  0.30142  0.02786  1.0000
  S   S153      1.0  0.43213  0.27596  0.11010  1.0000
  S   S154      1.0  0.45213  0.30947  0.08159  1.0000
  Fe  Fe76      1.0  0.44357  0.04190  0.25306  1.0000
  S   S155      1.0  0.43896  0.05548  0.27972  1.0000
  S   S156      1.0  0.44113  0.06430  0.22709  1.0000
  S   S157      1.0  0.45298  0.01435  0.30269  1.0000
  Fe  Fe77      1.0  0.42590  0.03001  0.29445  1.0000
  S   S158      1.0  0.39897  0.03393  0.31494  1.0000
  Fe  Fe78      1.0  0.46621  0.03879  0.28599  1.0000
  S   S159      1.0  0.42793  0.01756  0.26720  1.0000
  S   S160      1.0  0.47185  0.02664  0.25873  1.0000
  C   C458      1.0  0.29154  0.44668  0.11085  1.0000
  Fe  Fe79      1.0  0.28878  0.35614  0.09197  1.0000
  S   S161      1.0  0.26128  0.34462  0.09479  1.0000
  S   S162      1.0  0.31346  0.33270  0.09556  1.0000
  Fe  Fe80      1.0  0.27029  0.39596  0.07948  1.0000
  S   S163      1.0  0.27277  0.42662  0.06848  1.0000
  H   H446      1.0  0.41731  0.06981  0.31605  1.0000
  C   C459      1.0  0.40833  0.32020  0.02033  1.0000
  S   S164      1.0  0.48685  0.27303  0.11293  1.0000
  S   S165      1.0  0.27550  0.38048  0.10803  1.0000
  S   S166      1.0  0.28529  0.37249  0.06338  1.0000
  C   C460      1.0  0.43423  0.35328  0.10893  1.0000
  C   C461      1.0  0.48007  0.20847  0.09940  1.0000
  C   C462      1.0  0.28648  0.43423  0.09984  1.0000
  C   C463      1.0  0.48530  0.22403  0.10576  1.0000
  H   H447      1.0  0.40794  0.22857  0.00945  1.0000
  C   C464      1.0  0.29759  0.47925  0.02784  1.0000
  H   H448      1.0  0.37538  0.30818  0.99994  1.0000
  S   S167      1.0  0.29402  0.48208  0.11944  1.0000
  C   C465      1.0  0.39424  0.08193  0.17651  1.0000
  C   C466      1.0  0.37694  0.31778  0.03393  1.0000
  C   C467      1.0  0.29007  0.46620  0.10464  1.0000
  C   C468      1.0  0.48780  0.06664  0.14578  1.0000
  H   H449      1.0  0.41953  0.35683  0.11543  1.0000
  C   C469      1.0  0.27991  0.44132  0.08261  1.0000
  C   C470      1.0  0.27872  0.46076  0.07636  1.0000
  C   C471      1.0  0.28409  0.47308  0.08714  1.0000
  Fe  Fe81      1.0  0.25724  0.36242  0.06721  1.0000
  H   H450      1.0  0.29634  0.44123  0.12430  1.0000
  H   H451      1.0  0.29166  0.45057  0.03669  1.0000
  H   H452      1.0  0.45949  0.08449  0.01102  1.0000
  H   H453      1.0  0.48719  0.07594  0.17289  1.0000
  H   H454      1.0  0.47380  0.05751  0.11776  1.0000
  H   H455      1.0  0.27333  0.46642  0.06326  1.0000
  H   H456      1.0  0.28549  0.44608  0.00494  1.0000
  C   C472      1.0  0.37672  0.32938  0.09849  1.0000
  C   C473      1.0  0.36519  0.34690  0.09862  1.0000
  C   C474      1.0  0.34587  0.34832  0.09741  1.0000
  C   C475      1.0  0.33781  0.33214  0.09636  1.0000
  C   C476      1.0  0.34940  0.31466  0.09616  1.0000
  C   C477      1.0  0.36874  0.31328  0.09708  1.0000
  H   H457      1.0  0.37118  0.35945  0.09973  1.0000
  H   H458      1.0  0.33715  0.36185  0.09765  1.0000
  H   H459      1.0  0.34333  0.30204  0.09542  1.0000
  H   H460      1.0  0.37737  0.29969  0.09701  1.0000
  C   C478      1.0  0.44960  0.28808  0.01517  1.0000
  C   C479      1.0  0.44760  0.09537  0.01245  1.0000
  H   H461      1.0  0.28332  0.48798  0.08195  1.0000
  C   C480      1.0  0.48380  0.17441  0.09697  1.0000
  C   C481      1.0  0.42874  0.26491  0.01489  1.0000
  C   C482      1.0  0.43969  0.27347  0.02458  1.0000
  H   H462      1.0  0.41460  0.21373  0.04146  1.0000
  S   S168      1.0  0.48699  0.05417  0.29557  1.0000
  H   H463      1.0  0.42028  0.25441  0.02248  1.0000
  H   H464      1.0  0.44004  0.26900  0.03944  1.0000
  C   C483      1.0  0.43787  0.06470  0.16407  1.0000
  C   C484      1.0  0.43452  0.04844  0.17687  1.0000
  C   C485      1.0  0.43640  0.04756  0.19613  1.0000
  C   C486      1.0  0.44158  0.06301  0.20274  1.0000
  C   C487      1.0  0.44555  0.07898  0.18979  1.0000
  C   C488      1.0  0.44376  0.07982  0.17058  1.0000
  H   H465      1.0  0.43004  0.03661  0.17198  1.0000
  H   H466      1.0  0.43322  0.03521  0.20595  1.0000
  H   H467      1.0  0.44950  0.09102  0.19478  1.0000
  H   H468      1.0  0.44644  0.09239  0.16096  1.0000
  C   C489      1.0  0.42585  0.11548  0.03225  1.0000
  C   C490      1.0  0.41660  0.12294  0.01651  1.0000
  C   C491      1.0  0.28342  0.36992  0.00169  1.0000
  C   C492      1.0  0.38902  0.30335  0.00527  1.0000
  H   H469      1.0  0.43382  0.35015  0.09444  1.0000
  C   C493      1.0  0.44148  0.10175  0.03010  1.0000
  H   H470      1.0  0.40429  0.13329  0.01812  1.0000
  H   H471      1.0  0.41850  0.32636  0.13306  1.0000
  C   C494      1.0  0.41880  0.18527  0.03414  1.0000
  H   H472      1.0  0.44869  0.09583  0.04209  1.0000
  C   C495      1.0  0.42578  0.21477  0.09374  1.0000
  C   C496      1.0  0.42341  0.19797  0.08744  1.0000
  C   C497      1.0  0.42806  0.18040  0.09806  1.0000
  C   C498      1.0  0.43477  0.17958  0.11527  1.0000
  C   C499      1.0  0.43695  0.19639  0.12177  1.0000
  C   C500      1.0  0.43253  0.21401  0.11096  1.0000
  H   H473      1.0  0.41789  0.19855  0.07432  1.0000
  H   H474      1.0  0.42612  0.16752  0.09308  1.0000
  H   H475      1.0  0.44207  0.19579  0.13514  1.0000
  H   H476      1.0  0.43418  0.22697  0.11599  1.0000
  H   H477      1.0  0.28760  0.41922  0.10471  1.0000
  N   N39       1.0  0.40533  0.11222  0.17237  1.0000
  C   C501      1.0  0.39942  0.09817  0.16492  1.0000
  C   C502      1.0  0.40656  0.11041  0.19126  1.0000
  H   H478      1.0  0.48757  0.31486  0.12476  1.0000
  C   C503      1.0  0.40154  0.09432  0.20326  1.0000
  C   C504      1.0  0.39538  0.08000  0.19579  1.0000
  C   C505      1.0  0.41185  0.12852  0.15978  1.0000
  H   H479      1.0  0.39933  0.09912  0.14982  1.0000
  H   H480      1.0  0.41197  0.12115  0.19710  1.0000
  H   H481      1.0  0.39221  0.06712  0.20483  1.0000
  C   C506      1.0  0.48922  0.05738  0.11434  1.0000
  C   C507      1.0  0.41913  0.17427  0.01971  1.0000
  H   H482      1.0  0.42662  0.12482  0.15365  1.0000
  H   H483      1.0  0.40324  0.13296  0.14805  1.0000
  H   H484      1.0  0.41105  0.14103  0.16729  1.0000
  H   H485      1.0  0.29980  0.48162  0.04177  1.0000
  N   N40       1.0  0.39145  0.31427  0.02003  1.0000
  C   C508      1.0  0.41118  0.21331  0.01246  1.0000
  C   C509      1.0  0.44269  0.30797  0.14130  1.0000
  C   C510      1.0  0.41488  0.20495  0.03043  1.0000
  H   H486      1.0  0.47860  0.16492  0.10965  1.0000
  C   C511      1.0  0.28661  0.35184  0.01165  1.0000
  H   H487      1.0  0.36367  0.31272  0.03396  1.0000
  H   H488      1.0  0.44143  0.36594  0.10815  1.0000
  H   H489      1.0  0.28203  0.38230  0.00891  1.0000
  H   H490      1.0  0.48947  0.12841  0.10693  1.0000
  H   H491      1.0  0.42458  0.33426  0.03510  1.0000
  H   H492      1.0  0.38981  0.28806  0.01092  1.0000
  C   C512      1.0  0.28741  0.33599  0.00240  1.0000
  C   C513      1.0  0.39617  0.33395  0.04879  1.0000
  C   C514      1.0  0.41099  0.33002  0.03474  1.0000
  C   C515      1.0  0.29288  0.46193  0.02502  1.0000
  H   H493      1.0  0.47554  0.05947  0.15031  1.0000
  H   H494      1.0  0.39026  0.07052  0.17040  1.0000
  H   H495      1.0  0.36741  0.33079  0.05928  1.0000
  H   H496      1.0  0.42147  0.17849  0.04811  1.0000
  C   C516      1.0  0.43367  0.32414  0.13147  1.0000
  H   H497      1.0  0.46799  0.21060  0.09187  1.0000
  C   C517      1.0  0.37900  0.32788  0.04836  1.0000
  N   N41       1.0  0.44381  0.33678  0.11978  1.0000
  H   H498      1.0  0.45032  0.05654  0.31953  1.0000
  H   H499      1.0  0.28770  0.35011  0.02662  1.0000
  H   H500      1.0  0.47726  0.23792  0.10337  1.0000
  H   H501      1.0  0.47218  0.17854  0.08822  1.0000
  H   H502      1.0  0.40327  0.09252  0.21810  1.0000
  H   H503      1.0  0.47100  0.34320  0.10752  1.0000
  C   C518      1.0  0.28948  0.45938  0.00718  1.0000
  Fe  Fe82      1.0  0.24764  0.37038  0.10794  1.0000
  S   S169      1.0  0.24714  0.34855  0.04542  1.0000
  C   C519      1.0  0.46294  0.33356  0.11728  1.0000
  Fe  Fe83      1.0  0.45609  0.00336  0.27472  1.0000
  H   H504      1.0  0.43460  0.29781  0.15030  1.0000
  N   N42       1.0  0.48993  0.19085  0.10277  1.0000
  H   H505      1.0  0.28950  0.32202  0.01038  1.0000
  H   H506      1.0  0.26021  0.42118  0.15797  1.0000
  H   H507      1.0  0.39804  0.34144  0.06015  1.0000
  H   H508      1.0  0.41990  0.31729  0.00945  1.0000
  C   C520      1.0  0.24646  0.41435  0.13604  1.0000
  C   C521      1.0  0.42308  0.11700  0.99873  1.0000
  C   C522      1.0  0.47240  0.31759  0.12698  1.0000
  C   C523      1.0  0.46217  0.30476  0.13908  1.0000
  H   H509      1.0  0.49181  0.06479  0.09973  1.0000
  H   H510      1.0  0.46939  0.29205  0.14628  1.0000
  C   C524      1.0  0.29900  0.49375  0.01269  1.0000
  H   H511      1.0  0.25799  0.45537  0.14578  1.0000
  C   C525      1.0  0.41157  0.20188  0.99837  1.0000
  C   C526      1.0  0.25360  0.42661  0.14544  1.0000
  N   N43       1.0  0.41574  0.18262  0.00204  1.0000
  C   C527      1.0  0.25224  0.44593  0.13851  1.0000
  H   H512      1.0  0.42211  0.15899  0.02283  1.0000
  H   H513      1.0  0.24729  0.39933  0.14127  1.0000
  C   C528      1.0  0.43853  0.10303  0.99666  1.0000
  N   N44       1.0  0.24425  0.45275  0.12248  1.0000
  H   H514      1.0  0.24422  0.47582  0.10024  1.0000
  Fe  Fe84      1.0  0.36341  0.03110  0.63627  1.0000
  S   S170      1.0  0.33278  0.03588  0.64715  1.0000
  C   C529      1.0  0.25189  0.02034  0.38765  1.0000
  Fe  Fe85      1.0  0.35491  0.02730  0.59582  1.0000
  S   S171      1.0  0.32392  0.03207  0.60428  1.0000
  C   C530      1.0  0.30452  0.02205  0.50372  1.0000
  Fe  Fe86      1.0  0.33012  0.05459  0.61958  1.0000
  S   S172      1.0  0.31155  0.08249  0.61856  1.0000
  H   H515      1.0  0.37115  0.00265  0.53182  1.0000
  S   S173      1.0  0.36110  0.05153  0.60936  1.0000
  H   H516      1.0  0.28131  0.10426  0.63842  1.0000
  Fe  Fe87      1.0  0.36302  0.02617  0.42385  1.0000
  H   H517      1.0  0.24822  0.10910  0.58898  1.0000
  S   S174      1.0  0.39072  0.02023  0.40496  1.0000
  Fe  Fe88      1.0  0.34265  0.03995  0.46111  1.0000
  S   S175      1.0  0.31494  0.03427  0.45492  1.0000
  S   S176      1.0  0.34058  0.05327  0.48817  1.0000
  N   N45       1.0  0.28032  0.01459  0.48801  1.0000
  Fe  Fe89      1.0  0.32358  0.04656  0.42532  1.0000
  S   S177      1.0  0.30492  0.06652  0.40718  1.0000
  H   H518      1.0  0.29149  0.02462  0.64138  1.0000
  S   S178      1.0  0.35021  0.05483  0.43167  1.0000
  C   C531      1.0  0.25019  0.01796  0.62904  1.0000
  H   H519      1.0  0.29221  0.00772  0.40713  1.0000
  C   C532      1.0  0.27217  0.05154  0.42259  1.0000
  C   C533      1.0  0.28129  0.06361  0.40822  1.0000
  C   C534      1.0  0.27148  0.07367  0.39390  1.0000
  H   H520      1.0  0.42179  0.01186  0.37657  1.0000
  C   C535      1.0  0.24840  0.08207  0.62511  1.0000
  H   H521      1.0  0.27969  0.04377  0.43372  1.0000
  H   H522      1.0  0.27845  0.08302  0.38282  1.0000
  C   C536      1.0  0.26021  0.06952  0.61417  1.0000
  C   C537      1.0  0.28738  0.08152  0.62141  1.0000
  C   C538      1.0  0.27974  0.06889  0.61274  1.0000
  H   H523      1.0  0.26816  0.11740  0.59480  1.0000
  C   C539      1.0  0.27549  0.09440  0.63179  1.0000
  H   H524      1.0  0.28883  0.05905  0.60448  1.0000
  Fe  Fe90      1.0  0.32965  0.01286  0.63071  1.0000
  S   S179      1.0  0.36018  0.00659  0.62161  1.0000
  C   C540      1.0  0.35810  0.02648  0.54593  1.0000
  C   C541      1.0  0.34756  0.04438  0.54372  1.0000
  C   C542      1.0  0.34229  0.05231  0.52595  1.0000
  C   C543      1.0  0.34726  0.04236  0.51027  1.0000
  C   C544      1.0  0.35738  0.02426  0.51258  1.0000
  H   H525      1.0  0.38643  0.06551  0.37807  1.0000
  H   H526      1.0  0.34405  0.05234  0.55557  1.0000
  H   H527      1.0  0.33465  0.06641  0.52423  1.0000
  C   C545      1.0  0.44024  0.05883  0.33190  1.0000
  Fe  Fe91      1.0  0.33056  0.00723  0.44618  1.0000
  C   C546      1.0  0.37713  0.03021  0.37043  1.0000
  C   C547      1.0  0.39244  0.02264  0.37996  1.0000
  C   C548      1.0  0.40985  0.01774  0.36936  1.0000
  C   C549      1.0  0.41202  0.02065  0.34946  1.0000
  H   H528      1.0  0.36365  0.03414  0.37835  1.0000
  S   S180      1.0  0.33681  0.01896  0.41573  1.0000
  H   H529      1.0  0.40416  0.05715  0.39280  1.0000
  H   H530      1.0  0.31960  0.07883  0.56826  1.0000
  C   C550      1.0  0.25611  0.09438  0.63399  1.0000
  H   H531      1.0  0.28646  0.05370  0.65599  1.0000
  C   C551      1.0  0.44562  0.05391  0.34987  1.0000
  C   C552      1.0  0.27186  0.03290  0.48748  1.0000
  C   C553      1.0  0.27932  0.04617  0.49537  1.0000
  H   H532      1.0  0.40054  0.08202  0.38357  1.0000
  C   C554      1.0  0.29308  0.09580  0.57501  1.0000
  C   C555      1.0  0.30476  0.08105  0.56701  1.0000
  H   H533      1.0  0.36742  0.03929  0.34335  1.0000
  H   H534      1.0  0.31769  0.01787  0.50939  1.0000
  H   H535      1.0  0.27701  0.00356  0.46345  1.0000
  H   H536      1.0  0.43662  0.05271  0.37963  1.0000
  H   H537      1.0  0.29914  0.10486  0.58246  1.0000
  H   H538      1.0  0.42553  0.01701  0.34151  1.0000
  S   S181      1.0  0.38649  0.02424  0.65560  1.0000
  H   H539      1.0  0.27179  0.06287  0.54922  1.0000
  H   H540      1.0  0.45992  0.04783  0.35147  1.0000
  C   C556      1.0  0.27795  0.07196  0.55653  1.0000
  C   C557      1.0  0.40893  0.06907  0.34603  1.0000
  H   H541      1.0  0.25943  0.03741  0.48061  1.0000
  N   N46       1.0  0.27423  0.09822  0.57422  1.0000
  C   C558      1.0  0.25320  0.04968  0.42249  1.0000
  H   H542      1.0  0.27258  0.06070  0.49484  1.0000
  H   H543      1.0  0.27780  0.03239  0.38397  1.0000
  C   C559      1.0  0.29711  0.06902  0.55776  1.0000
  S   S182      1.0  0.35793  0.01194  0.45401  1.0000
  C   C560      1.0  0.26667  0.08676  0.56483  1.0000
  H   H544      1.0  0.39452  0.07457  0.34435  1.0000
  C   C561      1.0  0.40073  0.06744  0.38031  1.0000
  N   N47       1.0  0.41428  0.06406  0.36363  1.0000
  C   C562      1.0  0.37931  0.03317  0.35055  1.0000
  H   H545      1.0  0.30222  0.05100  0.50892  1.0000
  H   H546      1.0  0.36139  0.01649  0.50062  1.0000
  C   C563      1.0  0.43239  0.05671  0.36569  1.0000
  C   C564      1.0  0.36289  0.01644  0.53030  1.0000
  C   C565      1.0  0.39677  0.02855  0.33993  1.0000
  H   H547      1.0  0.30601  0.05747  0.55158  1.0000
  S   S183      1.0  0.36611  0.01646  0.56772  1.0000
  C   C566      1.0  0.29582  0.04069  0.50344  1.0000
  H   H548      1.0  0.26002  0.12622  0.57226  1.0000
  C   C567      1.0  0.26209  0.11355  0.58293  1.0000
  H   H549      1.0  0.25433  0.05991  0.60732  1.0000
  C   C568      1.0  0.27016  0.02091  0.39101  1.0000
  H   H550      1.0  0.24552  0.07925  0.38225  1.0000
  H   H551      1.0  0.27883  0.00589  0.62160  1.0000
  H   H552      1.0  0.25179  0.08892  0.56384  1.0000
  C   C569      1.0  0.25281  0.07158  0.39361  1.0000
  C   C570      1.0  0.29655  0.00910  0.49585  1.0000
  C   C571      1.0  0.26942  0.01572  0.62974  1.0000
  N   N48       1.0  0.26484  0.03877  0.65131  1.0000
  C   C572      1.0  0.27653  0.02629  0.64103  1.0000
  H   H553      1.0  0.24614  0.04034  0.43348  1.0000
  C   C573      1.0  0.27821  0.00710  0.40413  1.0000
  C   C574      1.0  0.24592  0.04065  0.65114  1.0000
  H   H554      1.0  0.24447  0.01007  0.62014  1.0000
  H   H555      1.0  0.24705  0.10408  0.64248  1.0000
  C   C575      1.0  0.27259  0.00125  0.47891  1.0000
  H   H556      1.0  0.24547  0.03155  0.37795  1.0000
  H   H557      1.0  0.25704  0.00313  0.48176  1.0000
  C   C576      1.0  0.27268  0.04971  0.66298  1.0000
  C   C577      1.0  0.42180  0.06647  0.32993  1.0000
  Fe  Fe92      1.0  0.45779  0.03311  0.75785  1.0000
  S   S184      1.0  0.44276  0.06263  0.75552  1.0000
  Fe  Fe93      1.0  0.42400  0.01675  0.77919  1.0000
  H   H558      1.0  0.32444  0.40908  0.88918  1.0000
  S   S185      1.0  0.40627  0.04524  0.77920  1.0000
  C   C578      1.0  0.30940  0.36826  0.88343  1.0000
  Fe  Fe94      1.0  0.41865  0.04992  0.74859  1.0000
  S   S186      1.0  0.40082  0.06285  0.72527  1.0000
  Fe  Fe95      1.0  0.43190  0.05545  0.78634  1.0000
  S   S187      1.0  0.43670  0.07780  0.80400  1.0000
  S   S188      1.0  0.43473  0.02105  0.74836  1.0000
  S   S189      1.0  0.44847  0.02637  0.78871  1.0000
  Fe  Fe96      1.0  0.41330  0.27917  0.95518  1.0000
  S   S190      1.0  0.41485  0.31032  0.95019  1.0000
  S   S191      1.0  0.41217  0.26249  0.98402  1.0000
  Fe  Fe97      1.0  0.41825  0.27596  0.91413  1.0000
  S   S192      1.0  0.42099  0.30703  0.90541  1.0000
  S   S193      1.0  0.42114  0.25367  0.89475  1.0000
  Fe  Fe98      1.0  0.43950  0.30320  0.92848  1.0000
  S   S194      1.0  0.46512  0.31652  0.93196  1.0000
  Fe  Fe99      1.0  0.39621  0.31159  0.92794  1.0000
  S   S195      1.0  0.37328  0.33707  0.92655  1.0000
  S   S196      1.0  0.43875  0.27191  0.93499  1.0000
  S   S197      1.0  0.39245  0.28080  0.93502  1.0000
  Fe  Fe100     1.0  0.42803  0.11156  0.90744  1.0000
  S   S198      1.0  0.43351  0.14185  0.89833  1.0000
  S   S199      1.0  0.41738  0.09163  0.89076  1.0000
  Fe  Fe101     1.0  0.43981  0.11064  0.94696  1.0000
  S   S200      1.0  0.44667  0.14015  0.94048  1.0000
  S   S201      1.0  0.44601  0.09381  0.97501  1.0000
  Fe  Fe102     1.0  0.42020  0.14715  0.92751  1.0000
  S   S202      1.0  0.40366  0.17348  0.93787  1.0000
  Fe  Fe103     1.0  0.45944  0.13253  0.91221  1.0000
  S   S203      1.0  0.48780  0.02428  0.74647  1.0000
  S   S204      1.0  0.41216  0.11775  0.93584  1.0000
  S   S205      1.0  0.45512  0.10201  0.91949  1.0000
  Fe  Fe104     1.0  0.26452  0.36550  0.92189  1.0000
  C   C579      1.0  0.42716  0.06057  0.96005  1.0000
  S   S206      1.0  0.28602  0.33908  0.92422  1.0000
  Fe  Fe105     1.0  0.25773  0.40765  0.90781  1.0000
  H   H559      1.0  0.48888  0.30071  0.99298  1.0000
  S   S207      1.0  0.27115  0.43310  0.89344  1.0000
  H   H560      1.0  0.38986  0.01074  0.76234  1.0000
  C   C580      1.0  0.28639  0.32148  0.97399  1.0000
  C   C581      1.0  0.48181  0.05004  0.80874  1.0000
  S   S208      1.0  0.26710  0.39138  0.93428  1.0000
  S   S209      1.0  0.25753  0.38172  0.89423  1.0000
  C   C582      1.0  0.27231  0.44974  0.90857  1.0000
  C   C583      1.0  0.26966  0.44487  0.92815  1.0000
  C   C584      1.0  0.26966  0.45851  0.94007  1.0000
  C   C585      1.0  0.27190  0.47722  0.93250  1.0000
  C   C586      1.0  0.27472  0.48210  0.91293  1.0000
  C   C587      1.0  0.27513  0.46833  0.90099  1.0000
  H   H561      1.0  0.26744  0.43064  0.93419  1.0000
  H   H562      1.0  0.47051  0.17184  0.92679  1.0000
  H   H563      1.0  0.42668  0.15832  0.98828  1.0000
  H   H564      1.0  0.45994  0.22262  0.92862  1.0000
  C   C588      1.0  0.34885  0.33682  0.92770  1.0000
  C   C589      1.0  0.33675  0.35384  0.92923  1.0000
  C   C590      1.0  0.31743  0.35471  0.92855  1.0000
  C   C591      1.0  0.31004  0.33856  0.92618  1.0000
  C   C592      1.0  0.32206  0.32145  0.92508  1.0000
  C   C593      1.0  0.34137  0.32057  0.92583  1.0000
  H   H565      1.0  0.34242  0.36649  0.93066  1.0000
  H   H566      1.0  0.30838  0.36797  0.92946  1.0000
  H   H567      1.0  0.31646  0.30885  0.92333  1.0000
  H   H568      1.0  0.35051  0.30740  0.92456  1.0000
  C   C594      1.0  0.41629  0.23135  0.90672  1.0000
  C   C595      1.0  0.41893  0.21562  0.89687  1.0000
  C   C596      1.0  0.41555  0.19766  0.90635  1.0000
  C   C597      1.0  0.40889  0.19552  0.92562  1.0000
  C   C598      1.0  0.40621  0.21124  0.93544  1.0000
  C   C599      1.0  0.41020  0.22901  0.92610  1.0000
  H   H569      1.0  0.42350  0.21734  0.88186  1.0000
  H   H570      1.0  0.41748  0.18564  0.89863  1.0000
  H   H571      1.0  0.40094  0.20973  0.95029  1.0000
  H   H572      1.0  0.40823  0.24097  0.93387  1.0000
  C   C600      1.0  0.43147  0.08096  0.82833  1.0000
  C   C601      1.0  0.43820  0.09595  0.83453  1.0000
  C   C602      1.0  0.43434  0.09923  0.85358  1.0000
  C   C603      1.0  0.42347  0.08767  0.86670  1.0000
  C   C604      1.0  0.41683  0.07260  0.86052  1.0000
  C   C605      1.0  0.42088  0.06918  0.84152  1.0000
  H   H573      1.0  0.44625  0.10529  0.82448  1.0000
  H   H574      1.0  0.43945  0.11095  0.85801  1.0000
  H   H575      1.0  0.40833  0.06359  0.87047  1.0000
  H   H576      1.0  0.41553  0.05763  0.83702  1.0000
  C   C606      1.0  0.39721  0.05202  0.70580  1.0000
  C   C607      1.0  0.38297  0.06045  0.69492  1.0000
  C   C608      1.0  0.37946  0.05220  0.67952  1.0000
  C   C609      1.0  0.32502  0.39439  0.88710  1.0000
  N   N49       1.0  0.46401  0.05552  0.70645  1.0000
  C   C610      1.0  0.40816  0.03536  0.70090  1.0000
  H   H577      1.0  0.37446  0.07337  0.69851  1.0000
  H   H578      1.0  0.40006  0.30491  0.99295  1.0000
  H   H579      1.0  0.27454  0.04122  0.67687  1.0000
  H   H580      1.0  0.41908  0.02862  0.70915  1.0000
  H   H581      1.0  0.43984  0.28779  0.97096  1.0000
  C   C611      1.0  0.37312  0.02290  0.74025  1.0000
  C   C612      1.0  0.42062  0.05902  0.92870  1.0000
  H   H582      1.0  0.29528  0.39626  0.88726  1.0000
  C   C613      1.0  0.44345  0.08466  0.70887  1.0000
  H   H583      1.0  0.40183  0.16566  0.98861  1.0000
  N   N50       1.0  0.46313  0.19948  0.91266  1.0000
  C   C614      1.0  0.47458  0.08139  0.71744  1.0000
  C   C615      1.0  0.46129  0.18523  0.92932  1.0000
  H   H584      1.0  0.47463  0.07906  0.81379  1.0000
  H   H585      1.0  0.45694  0.30465  0.98842  1.0000
  C   C616      1.0  0.43296  0.05507  0.94215  1.0000
  H   H586      1.0  0.38371  0.08174  0.95443  1.0000
  H   H587      1.0  0.32714  0.34204  0.88023  1.0000
  C   C617      1.0  0.45726  0.09226  0.71556  1.0000
  H   H588      1.0  0.45444  0.10642  0.71958  1.0000
  C   C618      1.0  0.36797  0.02050  0.72305  1.0000
  H   H589      1.0  0.44655  0.18229  0.93259  1.0000
  C   C619      1.0  0.43945  0.28395  0.98595  1.0000
  H   H590      1.0  0.42506  0.05533  0.91455  1.0000
  H   H591      1.0  0.26748  0.45462  0.95519  1.0000
  H   H592      1.0  0.47939  0.02768  0.70800  1.0000
  C   C620      1.0  0.36080  0.35191  0.88087  1.0000
  H   H593      1.0  0.29668  0.36234  0.88299  1.0000
  H   H594      1.0  0.46541  0.19001  0.94179  1.0000
  C   C621      1.0  0.44715  0.06622  0.70420  1.0000
  H   H595      1.0  0.41584  0.12286  0.98674  1.0000
  H   H596      1.0  0.48469  0.11703  0.93482  1.0000
  C   C622      1.0  0.46502  0.22658  0.88096  1.0000
  H   H597      1.0  0.35863  0.03146  0.71588  1.0000
  H   H598      1.0  0.37245  0.00312  0.70076  1.0000
  H   H599      1.0  0.41428  0.07094  0.99274  1.0000
  C   C623      1.0  0.29103  0.47419  0.99232  1.0000
  H   H600      1.0  0.46654  0.20321  0.86515  1.0000
  C   C624      1.0  0.37582  0.00440  0.71459  1.0000
  H   H601      1.0  0.48008  0.28783  0.96611  1.0000
  H   H602      1.0  0.46197  0.24683  0.90059  1.0000
  H   H603      1.0  0.36639  0.35223  0.86571  1.0000
  H   H604      1.0  0.27561  0.32364  0.96424  1.0000
  S   S210      1.0  0.27064  0.49416  0.94795  1.0000
  C   C625      1.0  0.28242  0.35580  0.97377  1.0000
  C   C626      1.0  0.40493  0.02737  0.68524  1.0000
  H   H605      1.0  0.27723  0.47220  0.88586  1.0000
  H   H606      1.0  0.28075  0.35741  0.95896  1.0000
  C   C627      1.0  0.46468  0.19407  0.89511  1.0000
  H   H607      1.0  0.43629  0.06043  0.69907  1.0000
  H   H608      1.0  0.48305  0.06094  0.75939  1.0000
  H   H609      1.0  0.49308  0.02205  0.80262  1.0000
  C   C628      1.0  0.39743  0.07387  0.95122  1.0000
  C   C629      1.0  0.48590  0.06767  0.81127  1.0000
  H   H610      1.0  0.41354  0.01456  0.68151  1.0000
  H   H611      1.0  0.39332  0.07214  0.92257  1.0000
  H   H612      1.0  0.28402  0.30854  0.98403  1.0000
  N   N51       1.0  0.40959  0.06989  0.96437  1.0000
  C   C630      1.0  0.40273  0.06844  0.93324  1.0000
  H   H613      1.0  0.30038  0.31910  0.96554  1.0000
  H   H614      1.0  0.36834  0.05877  0.67141  1.0000
  C   C631      1.0  0.30859  0.38718  0.88601  1.0000
  H   H615      1.0  0.35943  0.33702  0.88714  1.0000
  H   H616      1.0  0.39023  0.07194  0.98934  1.0000
  H   H617      1.0  0.27839  0.38596  0.97488  1.0000
  C   C632      1.0  0.48932  0.31086  0.92406  1.0000
  H   H618      1.0  0.37116  0.35657  0.88839  1.0000
  H   H619      1.0  0.35482  0.38822  0.88646  1.0000
  S   S211      1.0  0.48654  0.14347  0.90064  1.0000
  H   H620      1.0  0.43700  0.05779  0.97029  1.0000
  H   H621      1.0  0.46470  0.17934  0.89353  1.0000
  H   H622      1.0  0.44706  0.04820  0.93859  1.0000
  C   C633      1.0  0.46217  0.21817  0.91472  1.0000
  C   C634      1.0  0.38568  0.00903  0.74897  1.0000
  H   H623      1.0  0.28819  0.47220  0.97851  1.0000
  H   H624      1.0  0.46736  0.04774  0.80953  1.0000
  H   H625      1.0  0.42975  0.09276  0.70770  1.0000
  C   C635      1.0  0.32670  0.35682  0.88191  1.0000
  N   N52       1.0  0.34275  0.36397  0.88311  1.0000
  C   C636      1.0  0.34210  0.38254  0.88554  1.0000
  C   C637      1.0  0.40387  0.07650  0.98282  1.0000
  C   C638      1.0  0.46340  0.23194  0.89891  1.0000
  H   H626      1.0  0.45506  0.02875  0.70659  1.0000
  H   H627      1.0  0.41837  0.17871  0.97293  1.0000
  H   H628      1.0  0.36776  0.03571  0.74657  1.0000
  C   C639      1.0  0.47776  0.06296  0.71270  1.0000
  C   C640      1.0  0.39045  0.03561  0.67456  1.0000
  C   C641      1.0  0.46573  0.20751  0.87900  1.0000
  H   H629      1.0  0.27666  0.49642  0.90693  1.0000
  C   C642      1.0  0.42825  0.27052  0.99561  1.0000
  N   N53       1.0  0.28517  0.33813  0.98372  1.0000
  H   H630      1.0  0.46501  0.23729  0.86869  1.0000
  H   H631      1.0  0.40271  0.09220  0.98113  1.0000
  C   C643      1.0  0.28133  0.37196  0.98262  1.0000
  H   H632      1.0  0.26347  0.06318  0.66516  1.0000
  H   H633      1.0  0.40850  0.20858  0.98450  1.0000
  C   C644      1.0  0.41566  0.17077  0.98728  1.0000
  H   H634      1.0  0.49119  0.05453  0.71440  1.0000
  H   H635      1.0  0.48537  0.08701  0.72288  1.0000
  H   H636      1.0  0.47057  0.03669  0.68587  1.0000
  C   C645      1.0  0.46747  0.03623  0.70142  1.0000
  N   N54       1.0  0.29595  0.49102  0.99516  1.0000
  H   H637      1.0  0.48609  0.29174  0.90505  1.0000
  C   C646      1.0  0.44971  0.29309  0.99577  1.0000
  Fe  Fe106     1.0  0.42056  0.64481  0.09542  1.0000
  S   S212      1.0  0.42263  0.62351  0.12131  1.0000
  S   S213      1.0  0.40409  0.67384  0.09460  1.0000
  Fe  Fe107     1.0  0.44469  0.61845  0.07037  1.0000
  S   S214      1.0  0.44869  0.59504  0.09408  1.0000
  S   S215      1.0  0.45821  0.61464  0.04114  1.0000
  Fe  Fe108     1.0  0.41769  0.60255  0.10287  1.0000
  S   S216      1.0  0.39907  0.57895  0.11152  1.0000
  Fe  Fe109     1.0  0.45329  0.61828  0.10969  1.0000
  S   S217      1.0  0.47683  0.61742  0.12730  1.0000
  S   S218      1.0  0.41360  0.62434  0.07788  1.0000
  S   S219      1.0  0.45124  0.64117  0.08517  1.0000
  Fe  Fe110     1.0  0.43921  0.76229  0.10881  1.0000
  S   S220      1.0  0.41149  0.77972  0.10568  1.0000
  S   S221      1.0  0.44355  0.73316  0.12494  1.0000
  Fe  Fe111     1.0  0.46047  0.79244  0.08577  1.0000
  S   S222      1.0  0.43462  0.81268  0.08090  1.0000
  C   C647      1.0  0.46797  0.83276  0.11424  1.0000
  Fe  Fe112     1.0  0.42528  0.80370  0.11184  1.0000
  S   S223      1.0  0.41187  0.82410  0.13280  1.0000
  Fe  Fe113     1.0  0.42360  0.78682  0.07524  1.0000
  S   S224      1.0  0.40855  0.78270  0.05118  1.0000
  S   S225      1.0  0.45214  0.78564  0.11691  1.0000
  S   S226      1.0  0.45022  0.76734  0.07824  1.0000
  H   H638      1.0  0.42047  0.59501  0.03049  1.0000
  Fe  Fe114     1.0  0.45408  0.85510  0.26562  1.0000
  S   S227      1.0  0.45652  0.86658  0.23491  1.0000
  H   H639      1.0  0.40698  0.61485  0.04083  1.0000
  Fe  Fe115     1.0  0.41174  0.86165  0.27115  1.0000
  S   S228      1.0  0.41049  0.87295  0.24044  1.0000
  Fe  Fe116     1.0  0.43352  0.84946  0.23339  1.0000
  S   S229      1.0  0.43959  0.82848  0.21162  1.0000
  Fe  Fe117     1.0  0.43357  0.88902  0.24415  1.0000
  S   S230      1.0  0.43164  0.92001  0.23263  1.0000
  S   S231      1.0  0.43253  0.83661  0.26392  1.0000
  S   S232      1.0  0.43329  0.87918  0.27511  1.0000
  C   C648      1.0  0.36239  0.58165  0.03894  1.0000
  S   S233      1.0  0.46831  0.97251  0.27527  1.0000
  Fe  Fe118     1.0  0.29947  0.55155  0.09132  1.0000
  S   S234      1.0  0.30441  0.52378  0.07946  1.0000
  S   S235      1.0  0.32045  0.57334  0.08460  1.0000
  Fe  Fe119     1.0  0.28769  0.51246  0.10631  1.0000
  Fe  Fe120     1.0  0.27646  0.53235  0.06930  1.0000
  C   C649      1.0  0.49076  0.87589  0.27723  1.0000
  S   S236      1.0  0.28469  0.53950  0.11943  1.0000
  S   S237      1.0  0.27231  0.56098  0.07884  1.0000
  H   H640      1.0  0.26102  0.51629  0.00824  1.0000
  H   H641      1.0  0.42558  0.76686  0.17625  1.0000
  H   H642      1.0  0.46353  0.83300  0.10053  1.0000
  N   N55       1.0  0.39187  0.91986  0.27693  1.0000
  H   H643      1.0  0.41217  0.86948  0.31431  1.0000
  H   H644      1.0  0.36963  0.92206  0.26066  1.0000
  H   H645      1.0  0.40961  0.59184  0.05454  1.0000
  C   C650      1.0  0.44262  0.93442  0.24397  1.0000
  C   C651      1.0  0.43900  0.95417  0.23978  1.0000
  C   C652      1.0  0.44667  0.96601  0.24943  1.0000
  C   C653      1.0  0.45828  0.95812  0.26308  1.0000
  C   C654      1.0  0.46207  0.93836  0.26711  1.0000
  C   C655      1.0  0.45414  0.92653  0.25769  1.0000
  H   H646      1.0  0.43009  0.96035  0.22916  1.0000
  H   H647      1.0  0.44378  0.98123  0.24616  1.0000
  H   H648      1.0  0.47100  0.93217  0.27770  1.0000
  H   H649      1.0  0.45700  0.91134  0.26100  1.0000
  C   C656      1.0  0.43132  0.82763  0.18991  1.0000
  C   C657      1.0  0.41768  0.84139  0.18257  1.0000
  C   C658      1.0  0.41181  0.84006  0.16514  1.0000
  C   C659      1.0  0.41962  0.82513  0.15476  1.0000
  C   C660      1.0  0.43329  0.81139  0.16209  1.0000
  C   C661      1.0  0.43902  0.81261  0.17957  1.0000
  H   H650      1.0  0.41160  0.85301  0.19035  1.0000
  H   H651      1.0  0.40118  0.85075  0.15966  1.0000
  H   H652      1.0  0.43951  0.79986  0.15431  1.0000
  H   H653      1.0  0.44959  0.80191  0.18510  1.0000
  H   H654      1.0  0.48590  0.76663  0.10250  1.0000
  C   C662      1.0  0.39692  0.91759  0.30928  1.0000
  C   C663      1.0  0.45664  0.84250  0.12791  1.0000
  H   H655      1.0  0.48335  0.82987  0.16340  1.0000
  H   H656      1.0  0.39256  0.91457  0.24863  1.0000
  H   H657      1.0  0.38123  0.89824  0.26611  1.0000
  H   H658      1.0  0.44241  0.82772  0.30727  1.0000
  C   C664      1.0  0.41844  0.78847  0.02742  1.0000
  C   C665      1.0  0.41023  0.78355  0.01277  1.0000
  C   C666      1.0  0.37872  0.58496  0.04513  1.0000
  H   H659      1.0  0.48421  0.59594  0.01007  1.0000
  C   C667      1.0  0.45771  0.57681  0.14466  1.0000
  C   C668      1.0  0.43414  0.79807  0.02286  1.0000
  H   H660      1.0  0.39798  0.77631  0.01614  1.0000
  Fe  Fe121     1.0  0.25801  0.54704  0.10611  1.0000
  S   S238      1.0  0.26007  0.51930  0.09539  1.0000
  H   H661      1.0  0.44055  0.80200  0.03397  1.0000
  C   C669      1.0  0.37698  0.57785  0.10424  1.0000
  C   C670      1.0  0.36777  0.59299  0.09318  1.0000
  C   C671      1.0  0.35043  0.59137  0.08754  1.0000
  C   C672      1.0  0.34197  0.57471  0.09293  1.0000
  C   C673      1.0  0.35112  0.55963  0.10412  1.0000
  C   C674      1.0  0.36849  0.56122  0.10972  1.0000
  H   H662      1.0  0.37395  0.60595  0.08898  1.0000
  H   H663      1.0  0.34346  0.60317  0.07897  1.0000
  H   H664      1.0  0.34487  0.54670  0.10836  1.0000
  H   H665      1.0  0.37542  0.54940  0.11829  1.0000
  C   C675      1.0  0.44410  0.62867  0.02557  1.0000
  S   S239      1.0  0.47884  0.84109  0.28000  1.0000
  C   C676      1.0  0.37145  0.59979  0.00892  1.0000
  C   C677      1.0  0.41808  0.65314  0.01995  1.0000
  C   C678      1.0  0.43108  0.64357  0.03168  1.0000
  H   H666      1.0  0.38015  0.90035  0.29903  1.0000
  H   H667      1.0  0.40757  0.66420  0.02485  1.0000
  H   H668      1.0  0.43078  0.64747  0.04556  1.0000
  C   C679      1.0  0.38741  0.60317  0.01575  1.0000
  C   C680      1.0  0.41454  0.69011  0.10392  1.0000
  C   C681      1.0  0.40802  0.70948  0.10059  1.0000
  C   C682      1.0  0.41698  0.72279  0.10686  1.0000
  C   C683      1.0  0.43215  0.71672  0.11700  1.0000
  C   C684      1.0  0.43840  0.69734  0.12070  1.0000
  C   C685      1.0  0.42978  0.68405  0.11395  1.0000
  H   H669      1.0  0.39628  0.71419  0.09276  1.0000
  H   H670      1.0  0.41211  0.73773  0.10389  1.0000
  H   H671      1.0  0.45013  0.69259  0.12854  1.0000
  H   H672      1.0  0.43486  0.66912  0.11660  1.0000
  N   N56       1.0  0.41924  0.57738  0.15383  1.0000
  C   C686      1.0  0.42815  0.58988  0.16050  1.0000
  C   C687      1.0  0.42917  0.56461  0.14265  1.0000
  C   C688      1.0  0.44750  0.58973  0.15609  1.0000
  C   C689      1.0  0.44853  0.56414  0.13789  1.0000
  H   H673      1.0  0.47265  0.57702  0.14066  1.0000
  C   C690      1.0  0.40795  0.93228  0.30450  1.0000
  H   H674      1.0  0.41446  0.93698  0.31518  1.0000
  H   H675      1.0  0.42208  0.55504  0.13690  1.0000
  H   H676      1.0  0.25518  0.58564  0.00850  1.0000
  C   C691      1.0  0.26013  0.53142  0.00818  1.0000
  H   H677      1.0  0.38146  0.57898  0.05928  1.0000
  H   H678      1.0  0.44320  0.85026  0.12499  1.0000
  C   C692      1.0  0.40781  0.59945  0.04024  1.0000
  N   N57       1.0  0.40742  0.76229  0.15728  1.0000
  C   C693      1.0  0.40093  0.74854  0.14989  1.0000
  C   C694      1.0  0.39786  0.78019  0.15657  1.0000
  C   C695      1.0  0.38435  0.75250  0.14171  1.0000
  C   C696      1.0  0.38130  0.78469  0.14840  1.0000
  C   C697      1.0  0.37450  0.77072  0.14097  1.0000
  C   C698      1.0  0.42535  0.75820  0.16483  1.0000
  H   H679      1.0  0.40312  0.79121  0.16208  1.0000
  H   H680      1.0  0.37412  0.79908  0.14745  1.0000
  C   C699      1.0  0.38334  0.91341  0.26238  1.0000
  H   H681      1.0  0.42815  0.74305  0.17076  1.0000
  H   H682      1.0  0.43684  0.76132  0.15334  1.0000
  N   N58       1.0  0.43599  0.71450  0.06074  1.0000
  C   C700      1.0  0.42987  0.69807  0.05843  1.0000
  C   C701      1.0  0.42647  0.73166  0.05467  1.0000
  C   C702      1.0  0.41337  0.69856  0.05064  1.0000
  C   C703      1.0  0.40998  0.73267  0.04672  1.0000
  C   C704      1.0  0.40334  0.71599  0.04483  1.0000
  C   C705      1.0  0.45312  0.71373  0.06926  1.0000
  H   H683      1.0  0.43726  0.68442  0.06338  1.0000
  H   H684      1.0  0.43140  0.74474  0.05620  1.0000
  H   H685      1.0  0.40813  0.68545  0.04976  1.0000
  C   C706      1.0  0.40209  0.93470  0.27225  1.0000
  H   H686      1.0  0.45350  0.84895  0.15642  1.0000
  H   H687      1.0  0.45180  0.72523  0.07820  1.0000
  H   H688      1.0  0.45586  0.70021  0.07872  1.0000
  H   H689      1.0  0.46521  0.71519  0.05807  1.0000
  C   C707      1.0  0.25664  0.57051  0.00836  1.0000
  H   H690      1.0  0.39362  0.56616  0.15393  1.0000
  C   C708      1.0  0.44479  0.62400  0.00745  1.0000
  H   H691      1.0  0.40875  0.73446  0.15001  1.0000
  H   H692      1.0  0.37946  0.74161  0.13560  1.0000
  S   S240      1.0  0.27139  0.52229  0.04277  1.0000
  C   C709      1.0  0.39884  0.57849  0.15801  1.0000
  C   C710      1.0  0.47934  0.83090  0.14940  1.0000
  H   H693      1.0  0.42024  0.60037  0.16889  1.0000
  H   H694      1.0  0.47703  0.88189  0.27372  1.0000
  H   H695      1.0  0.41895  0.95248  0.28200  1.0000
  C   C711      1.0  0.41045  0.94100  0.28590  1.0000
  H   H696      1.0  0.39221  0.59142  0.14978  1.0000
  H   H697      1.0  0.26603  0.56362  0.03585  1.0000
  C   C712      1.0  0.48498  0.82241  0.11843  1.0000
  C   C713      1.0  0.43079  0.82586  0.31843  1.0000
  C   C714      1.0  0.36710  0.86159  0.32821  1.0000
  N   N59       1.0  0.49051  0.82164  0.13580  1.0000
  H   H698      1.0  0.40402  0.94159  0.25782  1.0000
  H   H699      1.0  0.36184  0.77413  0.13429  1.0000
  C   C715      1.0  0.38390  0.86350  0.31614  1.0000
  S   S241      1.0  0.38532  0.85997  0.29221  1.0000
  C   C716      1.0  0.41411  0.82110  0.31441  1.0000
  H   H700      1.0  0.45451  0.59998  0.16094  1.0000
  C   C717      1.0  0.46241  0.84173  0.14556  1.0000
  H   H701      1.0  0.34634  0.58640  0.01560  1.0000
  N   N60       1.0  0.39095  0.59562  0.03357  1.0000
  H   H702      1.0  0.41251  0.81944  0.30012  1.0000
  C   C718      1.0  0.35885  0.58901  0.02065  1.0000
  H   H703      1.0  0.40230  0.74635  0.04232  1.0000
  H   H704      1.0  0.39421  0.57892  0.17328  1.0000
  C   C719      1.0  0.26452  0.53851  0.02369  1.0000
  C   C720      1.0  0.39918  0.86786  0.32343  1.0000
  S   S242      1.0  0.48915  0.79861  0.07322  1.0000
  H   H705      1.0  0.39035  0.71655  0.03909  1.0000
  H   H706      1.0  0.39466  0.91082  0.32375  1.0000
  C   C721      1.0  0.38883  0.91164  0.29524  1.0000
  C   C722      1.0  0.39919  0.81913  0.32876  1.0000
  H   H707      1.0  0.35253  0.57350  0.04834  1.0000
  C   C723      1.0  0.26277  0.55809  0.02382  1.0000
  H   H708      1.0  0.45627  0.55436  0.12861  1.0000
  C   C724      1.0  0.44123  0.80313  0.00383  1.0000
  H   H709      1.0  0.35514  0.85835  0.32269  1.0000
  H   H710      1.0  0.30222  0.50730  0.01517  1.0000
  H   H711      1.0  0.39698  0.61191  0.00674  1.0000
  H   H712      1.0  0.45308  0.81096  0.00045  1.0000
  H   H713      1.0  0.45475  0.61248  0.00265  1.0000
  C   C725      1.0  0.41832  0.64790  0.00210  1.0000
  H   H714      1.0  0.38596  0.81614  0.32557  1.0000
  H   H715      1.0  0.49364  0.84181  0.23697  1.0000
  H   H716      1.0  0.49369  0.81494  0.10773  1.0000
  C   C726      1.0  0.36854  0.96461  0.44304  1.0000
  H   H717      1.0  0.38083  0.98422  0.42070  1.0000
  C   C727      1.0  0.36760  0.96409  0.40996  1.0000
  Fe  Fe122     1.0  0.34481  0.88295  0.44143  1.0000
  S   S243      1.0  0.31427  0.88625  0.43932  1.0000
  S   S244      1.0  0.35267  0.89425  0.46644  1.0000
  Fe  Fe123     1.0  0.35519  0.87175  0.40098  1.0000
  S   S245      1.0  0.32506  0.87435  0.39613  1.0000
  S   S246      1.0  0.38123  0.86656  0.37951  1.0000
  Fe  Fe124     1.0  0.32135  0.90064  0.41013  1.0000
  S   S247      1.0  0.30536  0.92868  0.40046  1.0000
  Fe  Fe125     1.0  0.32054  0.85967  0.42592  1.0000
  S   S248      1.0  0.30044  0.83884  0.43829  1.0000
  S   S249      1.0  0.35159  0.89932  0.41282  1.0000
  S   S250      1.0  0.35100  0.85495  0.43012  1.0000
  Fe  Fe126     1.0  0.31412  0.87145  0.61481  1.0000
  S   S251      1.0  0.34317  0.85768  0.60602  1.0000
  H   H718      1.0  0.27226  0.83928  0.53493  1.0000
  Fe  Fe127     1.0  0.32037  0.90833  0.59073  1.0000
  S   S252      1.0  0.34993  0.89777  0.57983  1.0000
  S   S253      1.0  0.30804  0.93792  0.58090  1.0000
  Fe  Fe128     1.0  0.33809  0.87159  0.57674  1.0000
  S   S254      1.0  0.34442  0.85497  0.55172  1.0000
  S   S255      1.0  0.30827  0.88320  0.58550  1.0000
  C   C728      1.0  0.27860  0.84287  0.42982  1.0000
  C   C729      1.0  0.27647  0.85275  0.41192  1.0000
  H   H719      1.0  0.36519  0.93092  0.47186  1.0000
  C   C730      1.0  0.35640  0.93694  0.63408  1.0000
  C   C731      1.0  0.36747  0.96615  0.57889  1.0000
  C   C732      1.0  0.37523  0.97076  0.59377  1.0000
  H   H720      1.0  0.28840  0.85782  0.40294  1.0000
  H   H721      1.0  0.34589  0.92914  0.43729  1.0000
  H   H722      1.0  0.26462  0.82824  0.45499  1.0000
  C   C733      1.0  0.34937  0.88315  0.49004  1.0000
  C   C734      1.0  0.34917  0.86359  0.49442  1.0000
  C   C735      1.0  0.34748  0.85517  0.51339  1.0000
  C   C736      1.0  0.34581  0.86621  0.52812  1.0000
  C   C737      1.0  0.34565  0.88580  0.52376  1.0000
  C   C738      1.0  0.34759  0.89418  0.50480  1.0000
  H   H723      1.0  0.35073  0.85491  0.48318  1.0000
  H   H724      1.0  0.34767  0.83999  0.51663  1.0000
  H   H725      1.0  0.34436  0.89446  0.53496  1.0000
  H   H726      1.0  0.34778  0.90930  0.50157  1.0000
  C   C739      1.0  0.27083  0.86179  0.63468  1.0000
  C   C740      1.0  0.25218  0.91396  0.62036  1.0000
  S   S256      1.0  0.37699  0.88995  0.62362  1.0000
  C   C741      1.0  0.31255  0.96745  0.44224  1.0000
  C   C742      1.0  0.31518  0.97361  0.42287  1.0000
  C   C743      1.0  0.31205  0.96208  0.41000  1.0000
  C   C744      1.0  0.30670  0.94416  0.41651  1.0000
  C   C745      1.0  0.30358  0.93821  0.43590  1.0000
  C   C746      1.0  0.30635  0.94990  0.44874  1.0000
  H   H727      1.0  0.26064  0.90981  0.39340  1.0000
  H   H728      1.0  0.31456  0.96669  0.39500  1.0000
  H   H729      1.0  0.29904  0.92459  0.44105  1.0000
  H   H730      1.0  0.30418  0.94507  0.46372  1.0000
  C   C747      1.0  0.31107  0.97501  0.62560  1.0000
  C   C748      1.0  0.30451  0.95746  0.63094  1.0000
  C   C749      1.0  0.30303  0.94619  0.61720  1.0000
  C   C750      1.0  0.30772  0.95265  0.59809  1.0000
  C   C751      1.0  0.31353  0.97051  0.59273  1.0000
  H   H731      1.0  0.43019  0.81938  0.37592  1.0000
  C   C752      1.0  0.26728  0.89827  0.42102  1.0000
  H   H732      1.0  0.29813  0.93258  0.62142  1.0000
  H   H733      1.0  0.31730  0.97552  0.57797  1.0000
  C   C753      1.0  0.39604  0.84325  0.62096  1.0000
  H   H734      1.0  0.35504  0.86812  0.65420  1.0000
  C   C754      1.0  0.43224  0.82864  0.33684  1.0000
  C   C755      1.0  0.39782  0.86967  0.34271  1.0000
  C   C756      1.0  0.38123  0.86710  0.35493  1.0000
  C   C757      1.0  0.36575  0.86338  0.34752  1.0000
  H   H735      1.0  0.37738  0.96472  0.62340  1.0000
  C   C758      1.0  0.35380  0.94197  0.46736  1.0000
  H   H736      1.0  0.40983  0.87271  0.34826  1.0000
  H   H737      1.0  0.35289  0.86134  0.35675  1.0000
  C   C759      1.0  0.36670  0.87201  0.65970  1.0000
  N   N61       1.0  0.29165  0.85620  0.51786  1.0000
  C   C760      1.0  0.30165  0.86007  0.50047  1.0000
  C   C761      1.0  0.28022  0.84233  0.52114  1.0000
  C   C762      1.0  0.30030  0.84996  0.48580  1.0000
  C   C763      1.0  0.27833  0.83214  0.50672  1.0000
  C   C764      1.0  0.28852  0.83595  0.48897  1.0000
  C   C765      1.0  0.29390  0.86621  0.53339  1.0000
  H   H738      1.0  0.31077  0.87100  0.49784  1.0000
  N   N62       1.0  0.41748  0.82679  0.35082  1.0000
  H   H739      1.0  0.30839  0.85289  0.47206  1.0000
  C   C766      1.0  0.26805  0.99274  0.41353  1.0000
  H   H740      1.0  0.34064  0.93545  0.46942  1.0000
  C   C767      1.0  0.35360  0.94121  0.43366  1.0000
  C   C768      1.0  0.41934  0.83011  0.36990  1.0000
  H   H741      1.0  0.30409  0.85744  0.54220  1.0000
  H   H742      1.0  0.35018  0.94782  0.57072  1.0000
  H   H743      1.0  0.34448  0.93053  0.60273  1.0000
  H   H744      1.0  0.28028  0.86921  0.54236  1.0000
  C   C769      1.0  0.37925  0.88284  0.64789  1.0000
  H   H745      1.0  0.38917  0.82120  0.35789  1.0000
  H   H746      1.0  0.40415  0.89606  0.64636  1.0000
  H   H747      1.0  0.40507  0.85274  0.62494  1.0000
  H   H748      1.0  0.40237  0.82841  0.62478  1.0000
  H   H749      1.0  0.37087  0.97000  0.39532  1.0000
  H   H750      1.0  0.29912  0.88001  0.52812  1.0000
  H   H751      1.0  0.40499  0.87342  0.59655  1.0000
  C   C770      1.0  0.31563  0.98147  0.60648  1.0000
  N   N63       1.0  0.39401  0.84705  0.60084  1.0000
  C   C771      1.0  0.39904  0.86336  0.59027  1.0000
  C   C772      1.0  0.38608  0.83462  0.59299  1.0000
  C   C773      1.0  0.39613  0.86757  0.57133  1.0000
  C   C774      1.0  0.38302  0.83837  0.57408  1.0000
  C   C775      1.0  0.38804  0.85499  0.56324  1.0000
  H   H752      1.0  0.40597  0.82949  0.37955  1.0000
  H   H753      1.0  0.38159  0.82196  0.60148  1.0000
  H   H754      1.0  0.39977  0.88069  0.56311  1.0000
  H   H755      1.0  0.37618  0.82882  0.56800  1.0000
  H   H756      1.0  0.38521  0.85827  0.54870  1.0000
  C   C776      1.0  0.35663  0.95134  0.58208  1.0000
  H   H757      1.0  0.28184  0.90042  0.41759  1.0000
  H   H758      1.0  0.27647  0.91824  0.60025  1.0000
  C   C777      1.0  0.35790  0.94841  0.41467  1.0000
  H   H759      1.0  0.32005  0.98703  0.41772  1.0000
  H   H760      1.0  0.27011  0.88468  0.44926  1.0000
  H   H761      1.0  0.25739  0.86314  0.39149  1.0000
  H   H762      1.0  0.42316  0.84452  0.36959  1.0000
  N   N64       1.0  0.25159  0.93324  0.59025  1.0000
  C   C778      1.0  0.25756  0.86137  0.65080  1.0000
  H   H763      1.0  0.34966  0.92405  0.63430  1.0000
  H   H764      1.0  0.27506  0.86602  0.60432  1.0000
  H   H765      1.0  0.26893  0.82144  0.50927  1.0000
  C   C779      1.0  0.25892  0.85568  0.40542  1.0000
  H   H766      1.0  0.34668  0.94679  0.64261  1.0000
  H   H767      1.0  0.35343  0.94204  0.40373  1.0000
  S   S257      1.0  0.29464  0.85687  0.63737  1.0000
  C   C780      1.0  0.35340  0.94159  0.60027  1.0000
  H   H768      1.0  0.28735  0.82803  0.47767  1.0000
  C   C781      1.0  0.26065  0.88953  0.43880  1.0000
  H   H769      1.0  0.30086  0.95245  0.64572  1.0000
  C   C782      1.0  0.26308  0.83607  0.44122  1.0000
  C   C783      1.0  0.26142  0.92169  0.60321  1.0000
  H   H770      1.0  0.25995  0.90444  0.63044  1.0000
  N   N65       1.0  0.35855  0.94960  0.44755  1.0000
  C   C784      1.0  0.40110  0.82207  0.34699  1.0000
  C   C785      1.0  0.39431  0.88773  0.65536  1.0000
  H   H771      1.0  0.38209  0.84576  0.62948  1.0000
  H   H772      1.0  0.35136  0.95336  0.47653  1.0000
  N   N66       1.0  0.36083  0.94640  0.61485  1.0000
  C   C786      1.0  0.26491  0.86613  0.61683  1.0000
  H   H773      1.0  0.25217  0.94568  0.56138  1.0000
  H   H774      1.0  0.37287  0.97096  0.45404  1.0000
  H   H775      1.0  0.30372  0.99480  0.49556  1.0000
  H   H776      1.0  0.36960  0.97433  0.56503  1.0000
  S   S258      1.0  0.31774  0.98088  0.45857  1.0000
  Fe  Fe129     1.0  0.35215  0.88513  0.61009  1.0000
  S   S259      1.0  0.32343  0.89784  0.62095  1.0000
  C   C787      1.0  0.37170  0.96072  0.61179  1.0000
  H   H777      1.0  0.38345  0.98247  0.59143  1.0000
  C   C788      1.0  0.37312  0.97215  0.42421  1.0000
  H   H778      1.0  0.36939  0.93224  0.64072  1.0000
  H   H779      1.0  0.27760  0.98632  0.48419  1.0000
  H   H780      1.0  0.27420  0.98190  0.42376  1.0000
  S   S260      1.0  0.31350  0.98871  0.64291  1.0000
  H   H781      1.0  0.27305  0.93069  0.56697  1.0000
  H   H782      1.0  0.32099  0.99478  0.60219  1.0000
  H   H783      1.0  0.26788  0.95374  0.57470  1.0000
  C   C789      1.0  0.24984  0.99253  0.40974  1.0000
  C   C790      1.0  0.24573  0.87017  0.61516  1.0000
  H   H784      1.0  0.44516  0.83260  0.33980  1.0000
  C   C791      1.0  0.25516  0.90359  0.40735  1.0000
  C   C792      1.0  0.24546  0.83937  0.43490  1.0000
  C   C793      1.0  0.26159  0.94129  0.57244  1.0000
  Fe  Fe130     1.0  0.44454  0.85746  0.74564  1.0000
  S   S261      1.0  0.43635  0.87656  0.76795  1.0000
  S   S262      1.0  0.47186  0.83887  0.74865  1.0000
  Fe  Fe131     1.0  0.40732  0.86869  0.72903  1.0000
  S   S263      1.0  0.39633  0.88846  0.75067  1.0000
  S   S264      1.0  0.38717  0.86228  0.71015  1.0000
  Fe  Fe132     1.0  0.42511  0.89741  0.74472  1.0000
  S   S265      1.0  0.43346  0.92678  0.73745  1.0000
  Fe  Fe133     1.0  0.40875  0.86558  0.77196  1.0000
  S   S266      1.0  0.39373  0.85299  0.79983  1.0000
  S   S267      1.0  0.43546  0.87899  0.72182  1.0000
  S   S268      1.0  0.41751  0.84516  0.75089  1.0000
  Fe  Fe134     1.0  0.41075  0.64762  0.92106  1.0000
  S   S269      1.0  0.41298  0.61630  0.91951  1.0000
  S   S270      1.0  0.41723  0.67072  0.89748  1.0000
  Fe  Fe135     1.0  0.40544  0.64268  0.96312  1.0000
  S   S271      1.0  0.40755  0.61119  0.96546  1.0000
  C   C794      1.0  0.28698  0.61467  0.92186  1.0000
  Fe  Fe136     1.0  0.43157  0.61356  0.94226  1.0000
  S   S272      1.0  0.45797  0.59255  0.94279  1.0000
  Fe  Fe137     1.0  0.38857  0.61662  0.94289  1.0000
  S   S273      1.0  0.36356  0.60014  0.95187  1.0000
  S   S274      1.0  0.43099  0.64456  0.94198  1.0000
  S   S275      1.0  0.38497  0.64833  0.94235  1.0000
  Fe  Fe138     1.0  0.45749  0.77024  0.91170  1.0000
  S   S276      1.0  0.45518  0.80089  0.91420  1.0000
  H   H785      1.0  0.32478  0.63411  0.92827  1.0000
  Fe  Fe139     1.0  0.41597  0.77069  0.91954  1.0000
  S   S277      1.0  0.41038  0.80180  0.92303  1.0000
  S   S278      1.0  0.39350  0.75154  0.92462  1.0000
  Fe  Fe140     1.0  0.43155  0.80501  0.89686  1.0000
  S   S279      1.0  0.43564  0.82883  0.87259  1.0000
  C   C795      1.0  0.41477  0.72423  0.96270  1.0000
  S   S280      1.0  0.43550  0.77439  0.89244  1.0000
  S   S281      1.0  0.43848  0.76372  0.93836  1.0000
  Fe  Fe141     1.0  0.28296  0.56060  0.91597  1.0000
  C   C796      1.0  0.48817  0.61279  0.94261  1.0000
  S   S282      1.0  0.30868  0.57457  0.90280  1.0000
  Fe  Fe142     1.0  0.26634  0.52494  0.93556  1.0000
  H   H786      1.0  0.39899  0.95383  0.79305  1.0000
  H   H787      1.0  0.27921  0.61267  0.91082  1.0000
  C   C797      1.0  0.34547  0.88733  0.75014  1.0000
  C   C798      1.0  0.40290  0.73936  0.96986  1.0000
  H   H788      1.0  0.47551  0.76901  0.94228  1.0000
  S   S283      1.0  0.27201  0.53718  0.90525  1.0000
  S   S284      1.0  0.27985  0.54671  0.94583  1.0000
  H   H789      1.0  0.47551  0.90702  0.73855  1.0000
  Fe  Fe143     1.0  0.25130  0.56327  0.94784  1.0000
  H   H790      1.0  0.35798  0.82440  0.75593  1.0000
  C   C799      1.0  0.44930  0.82269  0.79458  1.0000
  H   H791      1.0  0.48067  0.86979  0.71990  1.0000
  C   C800      1.0  0.43498  0.97172  0.76386  1.0000
  C   C801      1.0  0.30782  0.61784  0.94995  1.0000
  C   C802      1.0  0.46987  0.61704  0.89732  1.0000
  H   H792      1.0  0.37921  0.83364  0.74447  1.0000
  C   C803      1.0  0.46482  0.82931  0.79914  1.0000
  C   C804      1.0  0.35936  0.85510  0.77248  1.0000
  H   H793      1.0  0.49153  0.82110  0.95312  1.0000
  C   C805      1.0  0.35422  0.87211  0.78015  1.0000
  N   N67       1.0  0.35749  0.85422  0.75414  1.0000
  H   H794      1.0  0.46467  0.80679  0.84386  1.0000
  H   H795      1.0  0.34366  0.90167  0.77456  1.0000
  C   C806      1.0  0.35000  0.59154  0.93748  1.0000
  C   C807      1.0  0.33641  0.57999  0.94623  1.0000
  C   C808      1.0  0.32399  0.57432  0.93572  1.0000
  C   C809      1.0  0.32508  0.58004  0.91628  1.0000
  C   C810      1.0  0.33907  0.59109  0.90742  1.0000
  C   C811      1.0  0.35145  0.59687  0.91796  1.0000
  H   H796      1.0  0.33527  0.57568  0.96129  1.0000
  H   H797      1.0  0.31347  0.56567  0.94270  1.0000
  H   H798      1.0  0.34011  0.59548  0.89237  1.0000
  H   H799      1.0  0.36187  0.60571  0.91104  1.0000
  C   C812      1.0  0.41058  0.69324  0.90484  1.0000
  C   C813      1.0  0.42290  0.70689  0.90039  1.0000
  C   C814      1.0  0.41787  0.72476  0.90658  1.0000
  C   C815      1.0  0.40026  0.72925  0.91674  1.0000
  C   C816      1.0  0.38788  0.71565  0.92101  1.0000
  C   C817      1.0  0.39312  0.69761  0.91531  1.0000
  H   H800      1.0  0.43642  0.70361  0.89229  1.0000
  H   H801      1.0  0.42756  0.73509  0.90331  1.0000
  H   H802      1.0  0.37420  0.71909  0.92874  1.0000
  H   H803      1.0  0.38344  0.68725  0.91859  1.0000
  C   C818      1.0  0.48981  0.94535  0.77297  1.0000
  H   H804      1.0  0.34961  0.86952  0.72826  1.0000
  H   H805      1.0  0.34046  0.89990  0.74109  1.0000
  C   C819      1.0  0.40514  0.84677  0.82027  1.0000
  C   C820      1.0  0.42142  0.85412  0.82177  1.0000
  C   C821      1.0  0.43018  0.84892  0.83817  1.0000
  C   C822      1.0  0.42300  0.83603  0.85309  1.0000
  C   C823      1.0  0.40663  0.82875  0.85167  1.0000
  C   C824      1.0  0.39768  0.83420  0.83536  1.0000
  H   H806      1.0  0.42718  0.86398  0.81040  1.0000
  H   H807      1.0  0.44275  0.85473  0.83920  1.0000
  H   H808      1.0  0.40086  0.81895  0.86314  1.0000
  H   H809      1.0  0.38498  0.82857  0.83441  1.0000
  C   C825      1.0  0.38444  0.87079  0.68619  1.0000
  C   C826      1.0  0.39686  0.88183  0.67443  1.0000
  H   H810      1.0  0.27436  0.60316  0.97918  1.0000
  C   C827      1.0  0.28260  0.60605  0.94033  1.0000
  H   H811      1.0  0.27104  0.59774  0.94360  1.0000
  C   C828      1.0  0.36936  0.86596  0.67869  1.0000
  H   H812      1.0  0.40857  0.88560  0.67996  1.0000
  H   H813      1.0  0.44424  0.63629  0.89684  1.0000
  C   C829      1.0  0.38401  0.73773  0.97540  1.0000
  H   H814      1.0  0.35967  0.85740  0.68760  1.0000
  C   C830      1.0  0.41476  0.94081  0.76953  1.0000
  C   C831      1.0  0.42879  0.94268  0.75418  1.0000
  C   C832      1.0  0.43896  0.95807  0.75146  1.0000
  H   H815      1.0  0.40689  0.92891  0.77173  1.0000
  H   H816      1.0  0.44998  0.95945  0.73971  1.0000
  H   H817      1.0  0.44231  0.77655  0.83799  1.0000
  H   H818      1.0  0.44477  0.82725  0.78081  1.0000
  H   H819      1.0  0.42043  0.79210  0.83658  1.0000
  H   H820      1.0  0.43492  0.79441  0.85356  1.0000
  C   C833      1.0  0.48753  0.82251  0.93872  1.0000
  H   H821      1.0  0.42800  0.68361  0.96477  1.0000
  C   C834      1.0  0.41035  0.95486  0.78161  1.0000
  H   H822      1.0  0.43238  0.62968  0.98187  1.0000
  H   H823      1.0  0.47813  0.62484  0.94600  1.0000
  C   C835      1.0  0.28860  0.59748  0.97299  1.0000
  C   C836      1.0  0.35066  0.87006  0.74297  1.0000
  H   H824      1.0  0.47815  0.83598  0.93590  1.0000
  N   N68       1.0  0.44517  0.80468  0.82534  1.0000
  H   H825      1.0  0.37455  0.74963  0.98028  1.0000
  C   C837      1.0  0.46046  0.81100  0.82991  1.0000
  C   C838      1.0  0.42019  0.97058  0.77852  1.0000
  C   C839      1.0  0.47634  0.90450  0.75396  1.0000
  H   H826      1.0  0.35912  0.83676  0.73231  1.0000
  H   H827      1.0  0.42933  0.72577  0.95793  1.0000
  C   C840      1.0  0.31256  0.62671  0.93163  1.0000
  H   H828      1.0  0.28881  0.58215  0.97225  1.0000
  H   H829      1.0  0.25074  0.53811  0.98088  1.0000
  H   H830      1.0  0.36524  0.84269  0.78122  1.0000
  C   C841      1.0  0.36368  0.83634  0.74637  1.0000
  H   H831      1.0  0.38430  0.69293  0.96618  1.0000
  S   S285      1.0  0.25480  0.57839  0.91822  1.0000
  H   H832      1.0  0.30617  0.63100  0.90305  1.0000
  C   C842      1.0  0.43960  0.81028  0.80790  1.0000
  C   C843      1.0  0.46828  0.65102  0.89386  1.0000
  H   H833      1.0  0.41086  0.78488  0.98258  1.0000
  C   C844      1.0  0.43525  0.79119  0.83897  1.0000
  N   N69       1.0  0.40797  0.70796  0.96112  1.0000
  H   H834      1.0  0.46296  0.60440  0.89962  1.0000
  C   C845      1.0  0.38960  0.70597  0.96717  1.0000
  H   H835      1.0  0.44320  0.98326  0.76188  1.0000
  C   C846      1.0  0.37730  0.72087  0.97421  1.0000
  C   C847      1.0  0.48777  0.64901  0.89291  1.0000
  C   C848      1.0  0.42062  0.69237  0.95345  1.0000
  C   C849      1.0  0.29694  0.50645  0.97947  1.0000
  C   C850      1.0  0.45934  0.63490  0.89604  1.0000
  C   C851      1.0  0.43292  0.79840  0.98918  1.0000
  H   H836      1.0  0.41278  0.68315  0.94749  1.0000
  H   H837      1.0  0.46418  0.93426  0.77275  1.0000
  N   N70       1.0  0.48756  0.91776  0.75894  1.0000
  C   C852      1.0  0.49154  0.85099  0.74293  1.0000
  H   H838      1.0  0.31656  0.61860  0.96061  1.0000
  H   H839      1.0  0.42741  0.80543  0.80428  1.0000
  S   S286      1.0  0.44183  0.80597  0.96547  1.0000
  C   C853      1.0  0.30214  0.62496  0.91749  1.0000
  H   H840      1.0  0.47239  0.83900  0.78889  1.0000
  N   N71       1.0  0.29312  0.60749  0.95402  1.0000
  H   H841      1.0  0.40818  0.75252  0.97044  1.0000
  H   H842      1.0  0.48261  0.88964  0.75784  1.0000
  Fe  Fe144     1.0  0.43467  0.79485  0.93999  1.0000
  H   H843      1.0  0.36263  0.71945  0.97840  1.0000
  C   C854      1.0  0.48183  0.59578  0.94066  1.0000
  H   H844      1.0  0.48237  0.82871  0.82069  1.0000
  H   H845      1.0  0.35617  0.87276  0.79461  1.0000
  C   C855      1.0  0.47917  0.93245  0.76849  1.0000
  C   C856      1.0  0.47046  0.82347  0.81692  1.0000
  H   H846      1.0  0.29873  0.59882  0.98256  1.0000
  C   C857      1.0  0.25425  0.54376  0.99271  1.0000
  H   H847      1.0  0.46004  0.66494  0.89298  1.0000
  C   C858      1.0  0.34728  0.88832  0.76887  1.0000
  C   C859      1.0  0.39726  0.97476  0.71360  1.0000
  H   H848      1.0  0.46182  0.90618  0.76136  1.0000
  H   H849      1.0  0.36887  0.60551  0.99461  1.0000
  S   S287      1.0  0.41271  0.98949  0.79179  1.0000
  H   H850      1.0  0.40220  0.96248  0.72379  1.0000
  S   S288      1.0  0.48656  0.75517  0.90641  1.0000
  S   S289      1.0  0.40105  0.65833  0.98813  1.0000
  H   H851      1.0  0.30442  0.51780  0.98239  1.0000
  C   C860      1.0  0.25248  0.56331  0.99275  1.0000
  C   C861      1.0  0.41750  0.78837  0.99374  1.0000
  H   H852      1.0  0.43093  0.69782  0.94173  1.0000
  H   H853      1.0  0.40952  0.97892  0.70359  1.0000
  H   H854      1.0  0.30437  0.50108  0.96635  1.0000
  C   C862      1.0  0.49042  0.76877  0.93865  1.0000
  H   H855      1.0  0.49026  0.56710  0.93494  1.0000
  H   H856      1.0  0.28259  0.51276  0.97680  1.0000
  H   H857      1.0  0.38741  0.96988  0.70565  1.0000
  H   H858      1.0  0.40307  0.98252  0.74689  1.0000
  H   H859      1.0  0.47935  0.81070  0.93874  1.0000
  C   C863      1.0  0.43192  0.63363  0.99572  1.0000
  C   C864      1.0  0.49231  0.86571  0.72797  1.0000
  H   H860      1.0  0.48310  0.95702  0.78050  1.0000
  S   S290      1.0  0.24460  0.57860  0.97345  1.0000
  H   H861      1.0  0.49323  0.78155  0.96289  1.0000
  C   C865      1.0  0.48934  0.61554  0.89617  1.0000
  C   C866      1.0  0.39316  0.99307  0.74017  1.0000
  N   N72       1.0  0.38822  0.99091  0.72321  1.0000
  H   H862      1.0  0.26210  0.85790  0.66462  1.0000
  H   H863      1.0  0.63084  0.25914  0.00683  1.0000
  C   C867      1.0  0.52328  0.29999  0.00174  1.0000
  Fe  Fe145     1.0  0.57638  0.13186  0.11943  1.0000
  S   S291      1.0  0.58492  0.10099  0.11706  1.0000
  S   S292      1.0  0.54614  0.14315  0.12636  1.0000
  Fe  Fe146     1.0  0.61515  0.14178  0.10678  1.0000
  S   S293      1.0  0.62686  0.11174  0.10274  1.0000
  S   S294      1.0  0.63383  0.16474  0.09917  1.0000
  Fe  Fe147     1.0  0.60108  0.11142  0.08929  1.0000
  S   S295      1.0  0.59737  0.09815  0.06364  1.0000
  Fe  Fe148     1.0  0.60964  0.10413  0.13081  1.0000
  S   S296      1.0  0.62278  0.08145  0.15221  1.0000
  S   S297      1.0  0.59091  0.14211  0.09105  1.0000
  S   S298      1.0  0.59971  0.13431  0.13559  1.0000
  Fe  Fe149     1.0  0.59098  0.29796  0.09316  1.0000
  S   S299      1.0  0.59975  0.26749  0.09018  1.0000
  S   S300      1.0  0.56172  0.31093  0.08694  1.0000
  Fe  Fe150     1.0  0.63145  0.30389  0.09789  1.0000
  S   S301      1.0  0.64274  0.27336  0.09531  1.0000
  S   S302      1.0  0.64912  0.32804  0.09623  1.0000
  Fe  Fe151     1.0  0.62504  0.27666  0.07200  1.0000
  S   S303      1.0  0.63359  0.26486  0.04465  1.0000
  Fe  Fe152     1.0  0.61621  0.26681  0.11390  1.0000
  S   S304      1.0  0.61256  0.24107  0.13542  1.0000
  S   S305      1.0  0.61546  0.30742  0.07301  1.0000
  S   S306      1.0  0.60584  0.29716  0.11848  1.0000
  N   N73       1.0  0.54988  0.11494  0.02685  1.0000
  Fe  Fe153     1.0  0.60979  0.04487  0.26312  1.0000
  S   S307      1.0  0.59805  0.04756  0.29351  1.0000
  S   S308      1.0  0.59997  0.06966  0.24158  1.0000
  H   H864      1.0  0.53187  0.09157  0.13000  1.0000
  C   C868      1.0  0.50085  0.22157  0.11537  1.0000
  Fe  Fe154     1.0  0.62638  0.03348  0.30089  1.0000
  H   H865      1.0  0.51546  0.09243  0.16259  1.0000
  C   C869      1.0  0.61631  0.21793  0.06191  1.0000
  H   H866      1.0  0.63056  0.14072  0.01432  1.0000
  C   C870      1.0  0.51026  0.08503  0.15290  1.0000
  C   C871      1.0  0.51773  0.06371  0.25398  1.0000
  C   C872      1.0  0.54975  0.01783  0.25442  1.0000
  H   H867      1.0  0.56031  0.01355  0.26435  1.0000
  H   H868      1.0  0.67258  0.34099  0.14160  1.0000
  H   H869      1.0  0.60664  0.32687  0.01600  1.0000
  C   C873      1.0  0.61673  0.12191  0.00234  1.0000
  C   C874      1.0  0.50848  0.04034  0.29900  1.0000
  C   C875      1.0  0.52412  0.04917  0.29994  1.0000
  C   C876      1.0  0.54164  0.03834  0.30161  1.0000
  H   H870      1.0  0.52274  0.06442  0.29907  1.0000
  N   N74       1.0  0.68613  0.36591  0.13620  1.0000
  C   C877      1.0  0.61603  0.27279  0.03023  1.0000
  C   C878      1.0  0.61840  0.26812  0.01190  1.0000
  H   H871      1.0  0.52341  0.26427  0.12496  1.0000
  H   H872      1.0  0.71200  0.36521  0.14681  1.0000
  C   C879      1.0  0.58621  0.29135  0.02490  1.0000
  C   C880      1.0  0.59974  0.28409  0.03684  1.0000
  H   H873      1.0  0.72176  0.30722  0.08179  1.0000
  H   H874      1.0  0.55624  0.01472  0.24015  1.0000
  H   H875      1.0  0.57388  0.30049  0.02995  1.0000
  H   H876      1.0  0.59756  0.28747  0.05108  1.0000
  C   C881      1.0  0.54146  0.29937  0.09367  1.0000
  C   C882      1.0  0.52544  0.30632  0.08485  1.0000
  C   C883      1.0  0.50882  0.29804  0.09024  1.0000
  C   C884      1.0  0.60583  0.10706  0.00635  1.0000
  C   C885      1.0  0.52398  0.27585  0.11356  1.0000
  C   C886      1.0  0.54072  0.28394  0.10794  1.0000
  H   H877      1.0  0.52589  0.31826  0.07382  1.0000
  H   H878      1.0  0.69157  0.33647  0.03715  1.0000
  C   C887      1.0  0.55582  0.13540  0.99778  1.0000
  H   H879      1.0  0.55290  0.27859  0.11498  1.0000
  C   C888      1.0  0.61552  0.07788  0.17692  1.0000
  C   C889      1.0  0.62468  0.06260  0.18804  1.0000
  C   C890      1.0  0.61993  0.05969  0.20780  1.0000
  C   C891      1.0  0.60606  0.07220  0.21669  1.0000
  C   C892      1.0  0.59687  0.08749  0.20556  1.0000
  C   C893      1.0  0.60150  0.09029  0.18578  1.0000
  H   H880      1.0  0.63558  0.05294  0.18134  1.0000
  H   H881      1.0  0.62716  0.04790  0.21615  1.0000
  H   H882      1.0  0.58613  0.09726  0.21229  1.0000
  H   H883      1.0  0.59435  0.10212  0.17743  1.0000
  C   C894      1.0  0.60048  0.09958  0.02520  1.0000
  C   C895      1.0  0.60547  0.10723  0.04020  1.0000
  C   C896      1.0  0.70495  0.32062  0.06033  1.0000
  H   H884      1.0  0.59217  0.08800  0.02821  1.0000
  H   H885      1.0  0.62021  0.12815  0.04759  1.0000
  C   C897      1.0  0.62746  0.18581  0.10942  1.0000
  C   C898      1.0  0.63689  0.20141  0.10208  1.0000
  C   C899      1.0  0.63209  0.21850  0.10979  1.0000
  C   C900      1.0  0.61835  0.21985  0.12540  1.0000
  C   C901      1.0  0.60909  0.20414  0.13297  1.0000
  C   C902      1.0  0.61339  0.18725  0.12478  1.0000
  H   H886      1.0  0.64788  0.20035  0.09030  1.0000
  H   H887      1.0  0.63937  0.23050  0.10393  1.0000
  H   H888      1.0  0.59837  0.20517  0.14499  1.0000
  H   H889      1.0  0.60597  0.17532  0.13047  1.0000
  C   C903      1.0  0.53380  0.13312  0.11234  1.0000
  C   C904      1.0  0.54341  0.12272  0.09821  1.0000
  C   C905      1.0  0.53366  0.11338  0.08805  1.0000
  C   C906      1.0  0.51418  0.11508  0.09143  1.0000
  H   H890      1.0  0.69260  0.31428  0.06701  1.0000
  C   C907      1.0  0.51429  0.13501  0.11556  1.0000
  H   H891      1.0  0.55842  0.12155  0.09524  1.0000
  H   H892      1.0  0.54128  0.10454  0.07791  1.0000
  H   H893      1.0  0.61935  0.21794  0.04640  1.0000
  C   C908      1.0  0.53045  0.07657  0.25295  1.0000
  C   C909      1.0  0.70759  0.32817  0.11284  1.0000
  C   C910      1.0  0.69796  0.31240  0.11904  1.0000
  C   C911      1.0  0.68032  0.31181  0.11361  1.0000
  C   C912      1.0  0.67197  0.32717  0.10215  1.0000
  C   C913      1.0  0.68176  0.34280  0.09568  1.0000
  C   C914      1.0  0.69956  0.34323  0.10081  1.0000
  H   H894      1.0  0.70406  0.30064  0.12833  1.0000
  H   H895      1.0  0.67295  0.29970  0.11871  1.0000
  H   H896      1.0  0.67547  0.35471  0.08670  1.0000
  H   H897      1.0  0.70683  0.35542  0.09584  1.0000
  C   C915      1.0  0.51033  0.02064  0.30006  1.0000
  H   H898      1.0  0.61821  0.20294  0.06864  1.0000
  H   H899      1.0  0.50675  0.14284  0.12660  1.0000
  C   C916      1.0  0.62203  0.12931  0.01731  1.0000
  S   S309      1.0  0.63864  0.03309  0.27033  1.0000
  H   H900      1.0  0.53829  0.00903  0.25954  1.0000
  C   C917      1.0  0.54075  0.09927  0.03783  1.0000
  H   H901      1.0  0.69829  0.41210  0.10499  1.0000
  H   H902      1.0  0.66121  0.29482  0.01242  1.0000
  H   H903      1.0  0.65719  0.08114  0.32185  1.0000
  H   H904      1.0  0.53792  0.08931  0.02862  1.0000
  C   C918      1.0  0.57122  0.25041  0.06042  1.0000
  H   H905      1.0  0.55962  0.07987  0.25119  1.0000
  C   C919      1.0  0.58895  0.28731  0.00633  1.0000
  C   C920      1.0  0.56945  0.13930  0.02504  1.0000
  H   H906      1.0  0.52552  0.09153  0.25302  1.0000
  C   C921      1.0  0.54339  0.01861  0.30302  1.0000
  H   H907      1.0  0.59640  0.21368  0.09587  1.0000
  C   C922      1.0  0.51249  0.07517  0.12216  1.0000
  C   C923      1.0  0.68146  0.34858  0.14830  1.0000
  C   C924      1.0  0.56281  0.24701  0.07902  1.0000
  C   C925      1.0  0.67396  0.37550  0.12429  1.0000
  C   C926      1.0  0.70230  0.37283  0.13743  1.0000
  C   C927      1.0  0.67817  0.39215  0.11275  1.0000
  C   C928      1.0  0.70672  0.38965  0.12640  1.0000
  C   C929      1.0  0.69469  0.39923  0.11384  1.0000
  C   C930      1.0  0.54719  0.12048  0.00841  1.0000
  H   H908      1.0  0.63252  0.30792  0.03166  1.0000
  H   H909      1.0  0.62671  0.22565  0.06626  1.0000
  H   H910      1.0  0.66872  0.39946  0.10298  1.0000
  H   H911      1.0  0.57042  0.04574  0.25181  1.0000
  N   N75       1.0  0.59740  0.22719  0.06750  1.0000
  S   S310      1.0  0.50215  0.10184  0.08013  1.0000
  S   S311      1.0  0.60107  0.01614  0.26394  1.0000
  C   C931      1.0  0.52768  0.00981  0.30239  1.0000
  C   C932      1.0  0.61623  0.12218  0.03617  1.0000
  H   H912      1.0  0.56251  0.12013  0.05001  1.0000
  N   N76       1.0  0.64621  0.12861  0.15014  1.0000
  C   C933      1.0  0.64104  0.11750  0.16661  1.0000
  C   C934      1.0  0.64160  0.14785  0.14858  1.0000
  C   C935      1.0  0.63016  0.12549  0.18176  1.0000
  C   C936      1.0  0.63077  0.15636  0.16346  1.0000
  C   C937      1.0  0.62489  0.14504  0.18009  1.0000
  C   C938      1.0  0.65752  0.11990  0.13442  1.0000
  H   H913      1.0  0.64511  0.10228  0.16803  1.0000
  H   H914      1.0  0.64615  0.15673  0.13572  1.0000
  H   H915      1.0  0.62574  0.11649  0.19462  1.0000
  H   H916      1.0  0.62689  0.17161  0.16201  1.0000
  H   H917      1.0  0.61633  0.15141  0.19168  1.0000
  H   H918      1.0  0.67254  0.11811  0.13621  1.0000
  H   H919      1.0  0.65337  0.10581  0.13370  1.0000
  H   H920      1.0  0.65547  0.12873  0.12067  1.0000
  H   H921      1.0  0.57851  0.14620  0.03163  1.0000
  H   H922      1.0  0.66114  0.37000  0.12328  1.0000
  H   H923      1.0  0.56574  0.23116  0.10645  1.0000
  H   H924      1.0  0.54980  0.09096  0.04807  1.0000
  S   S312      1.0  0.72905  0.32878  0.12126  1.0000
  H   H925      1.0  0.52727  0.10493  0.04564  1.0000
  H   H926      1.0  0.54960  0.25517  0.08362  1.0000
  C   C939      1.0  0.61941  0.32178  0.00745  1.0000
  C   C940      1.0  0.70436  0.33307  0.04359  1.0000
  C   C941      1.0  0.58859  0.24027  0.05486  1.0000
  H   H927      1.0  0.49833  0.01374  0.29935  1.0000
  H   H928      1.0  0.56462  0.26125  0.05050  1.0000
  C   C942      1.0  0.50794  0.28290  0.10479  1.0000
  C   C943      1.0  0.52428  0.04441  0.25435  1.0000
  C   C944      1.0  0.58922  0.22371  0.08575  1.0000
  C   C945      1.0  0.57180  0.23350  0.09179  1.0000
  C   C946      1.0  0.56044  0.12444  0.03534  1.0000
  S   S313      1.0  0.73931  0.42205  0.10092  1.0000
  C   C947      1.0  0.55557  0.05066  0.25246  1.0000
  H   H929      1.0  0.49598  0.04249  0.11476  1.0000
  Fe  Fe155     1.0  0.59119  0.01800  0.29448  1.0000
  H   H930      1.0  0.59519  0.24325  0.04047  1.0000
  N   N77       1.0  0.73685  0.32517  0.06064  1.0000
  N   N78       1.0  0.49654  0.06685  0.12767  1.0000
  H   H931      1.0  0.71943  0.39527  0.12747  1.0000
  H   H932      1.0  0.55370  0.04522  0.30215  1.0000
  H   H933      1.0  0.72015  0.35069  0.02204  1.0000
  H   H934      1.0  0.50281  0.06852  0.25516  1.0000
  C   C948      1.0  0.50450  0.12641  0.10475  1.0000
  H   H935      1.0  0.51973  0.07488  0.10795  1.0000
  H   H936      1.0  0.49557  0.16640  0.08863  1.0000
  H   H937      1.0  0.67392  0.35208  0.16209  1.0000
  H   H938      1.0  0.69432  0.33855  0.15069  1.0000
  Fe  Fe156     1.0  0.62871  0.00460  0.27370  1.0000
  H   H939      1.0  0.73545  0.46268  0.09562  1.0000
  S   S314      1.0  0.61831  0.00424  0.30441  1.0000
  H   H940      1.0  0.51420  0.03450  0.25568  1.0000
  S   S315      1.0  0.56500  0.00452  0.30527  1.0000
  C   C949      1.0  0.54952  0.07005  0.25205  1.0000
  C   C950      1.0  0.56728  0.14465  0.00607  1.0000
  C   C951      1.0  0.50528  0.18831  0.11210  1.0000
  C   C952      1.0  0.51948  0.08454  0.13460  1.0000
  N   N79       1.0  0.54298  0.03809  0.25389  1.0000
  H   H941      1.0  0.51323  0.17440  0.11470  1.0000
  C   C953      1.0  0.72146  0.31674  0.06867  1.0000
  H   H942      1.0  0.57461  0.15580  0.99776  1.0000
  S   S316      1.0  0.64618  0.04199  0.31893  1.0000
  C   C954      1.0  0.63401  0.31112  0.01641  1.0000
  C   C955      1.0  0.72033  0.34110  0.03518  1.0000
  H   H943      1.0  0.73213  0.39277  0.02543  1.0000
  H   H944      1.0  0.50495  0.23359  0.12039  1.0000
  C   C956      1.0  0.73660  0.33677  0.04385  1.0000
  H   H945      1.0  0.51119  0.30266  0.01280  1.0000
  H   H946      1.0  0.49661  0.30361  0.08334  1.0000
  H   H947      1.0  0.52310  0.20144  0.12603  1.0000
  H   H948      1.0  0.53436  0.29028  0.00862  1.0000
  C   C957      1.0  0.51099  0.20360  0.11852  1.0000
  C   C958      1.0  0.65017  0.30379  0.00557  1.0000
  C   C959      1.0  0.60480  0.27529  1.00000  1.0000
  H   H949      1.0  0.53851  0.11327  0.00168  1.0000
  C   C960      1.0  0.49440  0.07587  0.15863  1.0000
  Fe  Fe157     1.0  0.67805  0.03697  0.41899  1.0000
  S   S317      1.0  0.70574  0.02432  0.40547  1.0000
  S   S318      1.0  0.65170  0.03495  0.40648  1.0000
  Fe  Fe158     1.0  0.69538  0.04880  0.45143  1.0000
  S   S319      1.0  0.72424  0.03648  0.44010  1.0000
  S   S320      1.0  0.69589  0.06550  0.47554  1.0000
  Fe  Fe159     1.0  0.71664  0.04974  0.41188  1.0000
  H   H950      1.0  0.71624  0.09119  0.44825  1.0000
  H   H951      1.0  0.72298  0.07953  0.42746  1.0000
  H   H952      1.0  0.72656  0.10376  0.42684  1.0000
  S   S321      1.0  0.68843  0.06372  0.42312  1.0000
  C   C961      1.0  0.64166  0.08150  0.34958  1.0000
  Fe  Fe160     1.0  0.67991  0.04526  0.58718  1.0000
  S   S322      1.0  0.70919  0.03181  0.58991  1.0000
  S   S323      1.0  0.66659  0.04128  0.56188  1.0000
  Fe  Fe161     1.0  0.67369  0.05505  0.62820  1.0000
  S   S324      1.0  0.70295  0.04245  0.63358  1.0000
  S   S325      1.0  0.65054  0.06791  0.64919  1.0000
  Fe  Fe162     1.0  0.71158  0.05660  0.60429  1.0000
  N   N80       1.0  0.74275  0.09450  0.54488  1.0000
  Fe  Fe163     1.0  0.69775  0.01898  0.61862  1.0000
  H   H953      1.0  0.67765  0.03573  0.33942  1.0000
  S   S326      1.0  0.68275  0.07118  0.59972  1.0000
  S   S327      1.0  0.66814  0.03054  0.61507  1.0000
  H   H954      1.0  0.69413  0.08387  0.38106  1.0000
  S   S328      1.0  0.68211  0.02336  0.44863  1.0000
  H   H955      1.0  0.71773  0.08980  0.53559  1.0000
  C   C962      1.0  0.64588  0.00112  0.57765  1.0000
  H   H956      1.0  0.62091  0.03368  0.38634  1.0000
  C   C963      1.0  0.68900  0.05729  0.49956  1.0000
  C   C964      1.0  0.69444  0.06605  0.51357  1.0000
  C   C965      1.0  0.68832  0.06071  0.53280  1.0000
  C   C966      1.0  0.67637  0.04684  0.53812  1.0000
  C   C967      1.0  0.67112  0.03792  0.52414  1.0000
  C   C968      1.0  0.67758  0.04294  0.50494  1.0000
  H   H957      1.0  0.70309  0.07728  0.50948  1.0000
  H   H958      1.0  0.69214  0.06783  0.54346  1.0000
  H   H959      1.0  0.66176  0.02728  0.52814  1.0000
  H   H960      1.0  0.67319  0.03620  0.49429  1.0000
  H   H961      1.0  0.68788  0.07869  0.33324  1.0000
  Fe  Fe164     1.0  0.71057  0.01233  0.43504  1.0000
  C   C969      1.0  0.72501  0.08654  0.54833  1.0000
  H   H962      1.0  0.61830  0.03569  0.35221  1.0000
  H   H963      1.0  0.70561  0.08106  0.35789  1.0000
  H   H964      1.0  0.62827  0.08173  0.34469  1.0000
  C   C970      1.0  0.66036  0.07885  0.37487  1.0000
  C   C971      1.0  0.66681  0.03370  0.36900  1.0000
  C   C972      1.0  0.65079  0.03375  0.38230  1.0000
  H   H965      1.0  0.66119  0.07705  0.38990  1.0000
  H   H966      1.0  0.68032  0.03341  0.37350  1.0000
  C   C973      1.0  0.64778  0.03586  0.34341  1.0000
  C   C974      1.0  0.66527  0.03489  0.34967  1.0000
  H   H967      1.0  0.73672  0.10933  0.56893  1.0000
  C   C975      1.0  0.63339  0.03376  0.37616  1.0000
  H   H968      1.0  0.69876  0.06068  0.37356  1.0000
  H   H969      1.0  0.73507  0.06480  0.46540  1.0000
  C   C976      1.0  0.63188  0.03477  0.35681  1.0000
  S   S329      1.0  0.73428  0.06790  0.39061  1.0000
  H   H970      1.0  0.71540  0.09226  0.56020  1.0000
  C   C977      1.0  0.72692  0.08974  0.43567  1.0000
  C   C978      1.0  0.64282  0.08036  0.36879  1.0000
  H   H971      1.0  0.64816  0.00894  0.58903  1.0000
  C   C979      1.0  0.69454  0.07594  0.36895  1.0000
  S   S330      1.0  0.73662  0.07157  0.59224  1.0000
  N   N81       1.0  0.67627  0.07867  0.36215  1.0000
  H   H972      1.0  0.68087  0.00586  0.58081  1.0000
  H   H973      1.0  0.72766  0.07093  0.55224  1.0000
  H   H974      1.0  0.63033  0.07970  0.37899  1.0000
  H   H975      1.0  0.64050  0.01167  0.56622  1.0000
  C   C980      1.0  0.67526  0.07967  0.34328  1.0000
  C   C981      1.0  0.65795  0.08121  0.33671  1.0000
  Fe  Fe165     1.0  0.59719  0.02648  0.79290  1.0000
  S   S331      1.0  0.59215  0.03423  0.76274  1.0000
  C   C982      1.0  0.66381  0.11468  0.94302  1.0000
  Fe  Fe166     1.0  0.60101  0.06690  0.79863  1.0000
  S   S332      1.0  0.59715  0.07763  0.76830  1.0000
  S   S333      1.0  0.60242  0.09003  0.81664  1.0000
  Fe  Fe167     1.0  0.57393  0.05953  0.77318  1.0000
  S   S334      1.0  0.54539  0.07311  0.76644  1.0000
  Fe  Fe168     1.0  0.61579  0.05145  0.76035  1.0000
  S   S335      1.0  0.64157  0.04718  0.73860  1.0000
  S   S336      1.0  0.57674  0.05018  0.80375  1.0000
  S   S337      1.0  0.62187  0.04234  0.79024  1.0000
  S   S338      1.0  0.71584  0.34384  0.91528  1.0000
  H   H976      1.0  0.55546  0.25610  0.89665  1.0000
  Fe  Fe169     1.0  0.60705  0.11140  0.91860  1.0000
  S   S339      1.0  0.58005  0.12940  0.91353  1.0000
  S   S340      1.0  0.61950  0.08777  0.90104  1.0000
  Fe  Fe170     1.0  0.60924  0.12850  0.95462  1.0000
  S   S341      1.0  0.58255  0.14788  0.95202  1.0000
  S   S342      1.0  0.62468  0.13099  0.97885  1.0000
  Fe  Fe171     1.0  0.57197  0.12284  0.94471  1.0000
  S   S343      1.0  0.54425  0.11460  0.95826  1.0000
  Fe  Fe172     1.0  0.59316  0.15296  0.92131  1.0000
  S   S344      1.0  0.58716  0.18274  0.90691  1.0000
  S   S345      1.0  0.59785  0.10282  0.94953  1.0000
  S   S346      1.0  0.62111  0.13551  0.92407  1.0000
  Fe  Fe173     1.0  0.61065  0.31713  0.92899  1.0000
  S   S347      1.0  0.61680  0.29314  0.95160  1.0000
  S   S348      1.0  0.62771  0.34188  0.92623  1.0000
  Fe  Fe174     1.0  0.57558  0.30081  0.92142  1.0000
  S   S349      1.0  0.57962  0.27621  0.94400  1.0000
  S   S350      1.0  0.55255  0.29776  0.90444  1.0000
  Fe  Fe175     1.0  0.58594  0.29721  0.96095  1.0000
  H   H977      1.0  0.59193  0.33235  0.98618  1.0000
  Fe  Fe176     1.0  0.60984  0.27449  0.93219  1.0000
  S   S351      1.0  0.62743  0.24671  0.92757  1.0000
  S   S352      1.0  0.57966  0.32230  0.93948  1.0000
  S   S353      1.0  0.60597  0.29813  0.90848  1.0000
  H   H978      1.0  0.67047  0.35541  0.88558  1.0000
  H   H979      1.0  0.50595  0.08023  0.76614  1.0000
  C   C983      1.0  0.51532  0.29434  0.90505  1.0000
  C   C984      1.0  0.52830  0.30271  0.91253  1.0000
  C   C985      1.0  0.52170  0.31508  0.92589  1.0000
  C   C986      1.0  0.50232  0.31931  0.93141  1.0000
  H   H980      1.0  0.65460  0.10897  0.71977  1.0000
  H   H981      1.0  0.52025  0.28489  0.89458  1.0000
  H   H982      1.0  0.53147  0.32176  0.93165  1.0000
  H   H983      1.0  0.58733  0.27672  0.88565  1.0000
  C   C987      1.0  0.59753  0.19918  0.91611  1.0000
  C   C988      1.0  0.61639  0.19563  0.91873  1.0000
  C   C989      1.0  0.62532  0.21012  0.92298  1.0000
  C   C990      1.0  0.61537  0.22811  0.92484  1.0000
  C   C991      1.0  0.59629  0.23133  0.92308  1.0000
  C   C992      1.0  0.58739  0.21691  0.91873  1.0000
  H   H984      1.0  0.62431  0.18199  0.91667  1.0000
  H   H985      1.0  0.64008  0.20753  0.92436  1.0000
  H   H986      1.0  0.58855  0.24515  0.92419  1.0000
  H   H987      1.0  0.57279  0.21968  0.91674  1.0000
  C   C993      1.0  0.52720  0.12446  0.94372  1.0000
  C   C994      1.0  0.51028  0.11699  0.94610  1.0000
  H   H988      1.0  0.52777  0.01722  0.74550  1.0000
  C   C995      1.0  0.52298  0.03092  0.75014  1.0000
  C   C996      1.0  0.51824  0.14496  0.91582  1.0000
  C   C997      1.0  0.53096  0.13880  0.92887  1.0000
  H   H989      1.0  0.50727  0.10596  0.95762  1.0000
  C   C998      1.0  0.56529  0.08833  0.87930  1.0000
  H   H990      1.0  0.52139  0.15573  0.90409  1.0000
  H   H991      1.0  0.54368  0.14512  0.92737  1.0000
  C   C999      1.0  0.53171  0.28315  0.97410  1.0000
  H   H992      1.0  0.55781  0.27171  0.87478  1.0000
  H   H993      1.0  0.68779  0.42507  0.90706  1.0000
  C   C1000     1.0  0.63563  0.06679  0.96377  1.0000
  H   H994      1.0  0.62224  0.11124  0.78345  1.0000
  C   C1001     1.0  0.69152  0.34203  0.92138  1.0000
  C   C1002     1.0  0.67899  0.35645  0.92903  1.0000
  C   C1003     1.0  0.65953  0.35586  0.93098  1.0000
  C   C1004     1.0  0.65234  0.34067  0.92574  1.0000
  C   C1005     1.0  0.66488  0.32573  0.91907  1.0000
  C   C1006     1.0  0.68433  0.32652  0.91673  1.0000
  H   H995      1.0  0.68423  0.36845  0.93272  1.0000
  H   H996      1.0  0.64999  0.36745  0.93627  1.0000
  H   H997      1.0  0.65961  0.31393  0.91495  1.0000
  H   H998      1.0  0.69386  0.31525  0.91083  1.0000
  S   S354      1.0  0.57297  0.29808  0.99096  1.0000
  H   H999      1.0  0.50463  0.27160  0.94441  1.0000
  C   C1007     1.0  0.60735  0.08878  0.84013  1.0000
  C   C1008     1.0  0.61455  0.07191  0.85040  1.0000
  C   C1009     1.0  0.61849  0.07184  0.86893  1.0000
  C   C1010     1.0  0.61488  0.08852  0.87752  1.0000
  C   C1011     1.0  0.60746  0.10531  0.86731  1.0000
  C   C1012     1.0  0.60393  0.10545  0.84868  1.0000
  H   H1000     1.0  0.61729  0.05896  0.84402  1.0000
  H   H1001     1.0  0.62423  0.05876  0.87669  1.0000
  H   H1002     1.0  0.60466  0.11827  0.87367  1.0000
  H   H1003     1.0  0.59840  0.11860  0.84086  1.0000
  C   C1013     1.0  0.64304  0.05172  0.71368  1.0000
  H   H1004     1.0  0.66442  0.30232  0.97734  1.0000
  C   C1014     1.0  0.58801  0.23265  0.87552  1.0000
  H   H1005     1.0  0.67126  0.03747  0.70966  1.0000
  H   H1006     1.0  0.61543  0.06709  0.71281  1.0000
  N   N82       1.0  0.64836  0.09245  0.74631  1.0000
  C   C1015     1.0  0.63296  0.10213  0.77573  1.0000
  N   N83       1.0  0.51464  0.03862  0.80395  1.0000
  H   H1007     1.0  0.73659  0.45770  0.96759  1.0000
  C   C1016     1.0  0.52983  0.05945  0.76023  1.0000
  C   C1017     1.0  0.53596  0.04163  0.75447  1.0000
  H   H1008     1.0  0.67855  0.11166  0.94592  1.0000
  H   H1009     1.0  0.55068  0.03618  0.75322  1.0000
  H   H1010     1.0  0.66962  0.06864  0.74816  1.0000
  H   H1011     1.0  0.66587  0.06404  0.78299  1.0000
  Fe  Fe177     1.0  0.73539  0.40693  0.92228  1.0000
  C   C1018     1.0  0.65952  0.07835  0.75580  1.0000
  C   C1019     1.0  0.73518  0.47161  0.91391  1.0000
  C   C1020     1.0  0.50386  0.03781  0.75197  1.0000
  H   H1012     1.0  0.52620  0.01429  0.79052  1.0000
  N   N84       1.0  0.68407  0.37942  0.88662  1.0000
  S   S355      1.0  0.72734  0.43679  0.90880  1.0000
  H   H1013     1.0  0.61967  0.07530  0.67792  1.0000
  C   C1021     1.0  0.68272  0.36238  0.87840  1.0000
  C   C1022     1.0  0.65745  0.07563  0.77552  1.0000
  H   H1014     1.0  0.63864  0.32203  0.96224  1.0000
  S   S356      1.0  0.71632  0.38817  0.94079  1.0000
  C   C1023     1.0  0.63717  0.31890  0.97748  1.0000
  C   C1024     1.0  0.65188  0.30784  0.98596  1.0000
  H   H1015     1.0  0.62808  0.05482  0.96914  1.0000
  H   H1016     1.0  0.62622  0.11532  0.74851  1.0000
  C   C1025     1.0  0.60557  0.33666  0.97918  1.0000
  S   S357      1.0  0.73135  0.38060  0.98995  1.0000
  C   C1026     1.0  0.66932  0.40592  0.90240  1.0000
  C   C1027     1.0  0.50163  0.13699  0.91781  1.0000
  H   H1017     1.0  0.64205  0.08550  0.80083  1.0000
  C   C1028     1.0  0.65110  0.09245  0.96902  1.0000
  C   C1029     1.0  0.66217  0.04990  0.68299  1.0000
  H   H1018     1.0  0.65684  0.41356  0.90929  1.0000
  H   H1019     1.0  0.62507  0.01509  0.73331  1.0000
  H   H1020     1.0  0.65069  0.09260  0.92260  1.0000
  H   H1021     1.0  0.63398  0.23334  0.87826  1.0000
  H   H1022     1.0  0.65478  0.38445  0.89585  1.0000
  H   H1023     1.0  0.63437  0.06479  0.93453  1.0000
  H   H1024     1.0  0.67524  0.04521  0.67477  1.0000
  C   C1030     1.0  0.64408  0.08763  0.78551  1.0000
  C   C1031     1.0  0.63917  0.07235  0.94438  1.0000
  Fe  Fe178     1.0  0.73966  0.38044  0.95871  1.0000
  C   C1032     1.0  0.70107  0.38568  0.88532  1.0000
  C   C1033     1.0  0.64843  0.08817  0.93770  1.0000
  C   C1034     1.0  0.51876  0.05573  0.80694  1.0000
  C   C1035     1.0  0.52977  0.02319  0.80039  1.0000
  C   C1036     1.0  0.66826  0.38945  0.89477  1.0000
  C   C1037     1.0  0.68661  0.41237  0.90117  1.0000
  H   H1025     1.0  0.65675  0.12699  0.95015  1.0000
  H   H1026     1.0  0.60663  0.33467  0.96411  1.0000
  H   H1027     1.0  0.68143  0.36608  0.86317  1.0000
  Fe  Fe179     1.0  0.73168  0.36514  0.92464  1.0000
  H   H1028     1.0  0.60658  0.27141  0.98596  1.0000
  H   H1029     1.0  0.53245  0.01418  0.81383  1.0000
  H   H1030     1.0  0.55371  0.13958  0.98314  1.0000
  N   N85       1.0  0.55574  0.09209  0.89637  1.0000
  C   C1038     1.0  0.53856  0.10280  0.89734  1.0000
  C   C1039     1.0  0.53094  0.11089  0.88090  1.0000
  C   C1040     1.0  0.56355  0.08378  0.91375  1.0000
  H   H1031     1.0  0.53067  0.10517  0.91089  1.0000
  H   H1032     1.0  0.51742  0.11963  0.88178  1.0000
  H   H1033     1.0  0.55814  0.09243  0.92540  1.0000
  H   H1034     1.0  0.55984  0.06925  0.91816  1.0000
  H   H1035     1.0  0.57904  0.08322  0.91165  1.0000
  C   C1041     1.0  0.59290  0.26266  0.88218  1.0000
  H   H1036     1.0  0.57860  0.07930  0.87854  1.0000
  C   C1042     1.0  0.65986  0.04554  0.70278  1.0000
  C   C1043     1.0  0.56093  0.25680  0.88140  1.0000
  H   H1037     1.0  0.56595  0.09346  0.84900  1.0000
  C   C1044     1.0  0.54089  0.10767  0.86340  1.0000
  H   H1038     1.0  0.57865  0.22275  0.87412  1.0000
  C   C1045     1.0  0.60716  0.22628  0.87471  1.0000
  C   C1046     1.0  0.61212  0.25672  0.88153  1.0000
  C   C1047     1.0  0.61925  0.23839  0.87784  1.0000
  H   H1039     1.0  0.61240  0.21170  0.87276  1.0000
  H   H1040     1.0  0.62135  0.26594  0.88473  1.0000
  H   H1041     1.0  0.66059  0.08383  0.71954  1.0000
  C   C1048     1.0  0.55811  0.09619  0.86255  1.0000
  H   H1042     1.0  0.53521  0.11400  0.85053  1.0000
  N   N86       1.0  0.58113  0.25066  0.87919  1.0000
  C   C1049     1.0  0.51075  0.06645  0.76167  1.0000
  H   H1043     1.0  0.73486  0.47545  0.89891  1.0000
  C   C1050     1.0  0.62844  0.06220  0.70461  1.0000
  H   H1044     1.0  0.55334  0.24790  0.87474  1.0000
  N   N87       1.0  0.62102  0.32531  0.98821  1.0000
  C   C1051     1.0  0.63088  0.06686  0.68483  1.0000
  C   C1052     1.0  0.64776  0.06079  0.67391  1.0000
  H   H1045     1.0  0.63660  0.09387  0.72099  1.0000
  H   H1046     1.0  0.71364  0.37764  0.87904  1.0000
  C   C1053     1.0  0.64160  0.07691  0.97621  1.0000
  H   H1047     1.0  0.63864  0.07299  0.99134  1.0000
  H   H1048     1.0  0.49735  0.32916  0.94151  1.0000
  C   C1054     1.0  0.70254  0.40232  0.89239  1.0000
  H   H1049     1.0  0.66368  0.11894  0.92762  1.0000
  N   N88       1.0  0.65415  0.09807  0.95002  1.0000
  H   H1050     1.0  0.71596  0.40739  0.89122  1.0000
  C   C1055     1.0  0.49967  0.29345  0.98361  1.0000
  H   H1051     1.0  0.50786  0.08434  0.81201  1.0000
  H   H1052     1.0  0.69529  0.35173  0.88019  1.0000
  C   C1056     1.0  0.63525  0.10432  0.75601  1.0000
  H   H1053     1.0  0.60568  0.35190  0.97993  1.0000
  C   C1057     1.0  0.52711  0.27560  0.95897  1.0000
  H   H1054     1.0  0.53318  0.05821  0.80602  1.0000
  C   C1058     1.0  0.65019  0.09496  0.72565  1.0000
  H   H1055     1.0  0.54292  0.02881  0.79367  1.0000
  C   C1059     1.0  0.50840  0.27695  0.95635  1.0000
  H   H1056     1.0  0.53800  0.26919  0.94907  1.0000
  H   H1057     1.0  0.54629  0.28226  0.97594  1.0000
  C   C1060     1.0  0.73166  0.45347  0.92247  1.0000
  H   H1058     1.0  0.65545  0.10043  0.97880  1.0000
  H   H1059     1.0  0.72923  0.43469  0.94862  1.0000
  C   C1061     1.0  0.50449  0.07059  0.81038  1.0000
  C   C1062     1.0  0.73221  0.44855  0.94183  1.0000
  C   C1063     1.0  0.49593  0.29822  0.91093  1.0000
  C   C1064     1.0  0.73953  0.48466  0.92466  1.0000
  N   N89       1.0  0.51803  0.29173  0.98631  1.0000
  C   C1065     1.0  0.49776  0.05554  0.75786  1.0000
  H   H1060     1.0  0.57117  0.00291  0.78226  1.0000
  C   C1066     1.0  0.73627  0.46165  0.95259  1.0000
  C   C1067     1.0  0.74004  0.47968  0.94406  1.0000
  C   C1068     1.0  0.49458  0.28604  0.96861  1.0000
  C   C1069     1.0  0.49749  0.12327  0.93316  1.0000
  H   H1061     1.0  0.60172  0.10119  0.99495  1.0000
  C   C1070     1.0  0.49642  0.03559  0.80498  1.0000
  H   H1062     1.0  0.52882  0.31356  0.99611  1.0000
  C   C1071     1.0  0.62204  0.00060  0.73699  1.0000
  H   H1063     1.0  0.74257  0.49847  0.91791  1.0000
  C   C1072     1.0  0.65038  0.63935  0.14338  1.0000
  H   H1064     1.0  0.51531  0.80742  0.04116  1.0000
  C   C1073     1.0  0.62243  0.75494  0.05614  1.0000
  H   H1065     1.0  0.54724  0.78853  0.09994  1.0000
  Fe  Fe180     1.0  0.62108  0.63937  0.07293  1.0000
  S   S358      1.0  0.61463  0.60956  0.07879  1.0000
  S   S359      1.0  0.63065  0.65065  0.04296  1.0000
  Fe  Fe181     1.0  0.60984  0.64594  0.11330  1.0000
  S   S360      1.0  0.60213  0.61649  0.12235  1.0000
  S   S361      1.0  0.60481  0.66691  0.13422  1.0000
  Fe  Fe182     1.0  0.62922  0.60753  0.10429  1.0000
  S   S362      1.0  0.64910  0.58126  0.11342  1.0000
  Fe  Fe183     1.0  0.58825  0.62140  0.09592  1.0000
  S   S363      1.0  0.56148  0.61395  0.08784  1.0000
  S   S364      1.0  0.63768  0.63672  0.09714  1.0000
  S   S365      1.0  0.59410  0.65150  0.08840  1.0000
  C   C1074     1.0  0.61620  0.65334  0.00968  1.0000
  Fe  Fe184     1.0  0.56677  0.77743  0.12730  1.0000
  S   S366      1.0  0.56491  0.80886  0.11980  1.0000
  S   S367      1.0  0.54098  0.76302  0.13446  1.0000
  Fe  Fe185     1.0  0.60833  0.77133  0.11553  1.0000
  S   S368      1.0  0.60987  0.80250  0.10658  1.0000
  S   S369      1.0  0.63096  0.74785  0.10783  1.0000
  Fe  Fe186     1.0  0.59077  0.80627  0.13391  1.0000
  S   S370      1.0  0.59218  0.83039  0.15072  1.0000
  Fe  Fe187     1.0  0.58386  0.80232  0.09343  1.0000
  S   S371      1.0  0.57435  0.81557  0.06532  1.0000
  S   S372      1.0  0.59107  0.77490  0.14365  1.0000
  S   S373      1.0  0.58405  0.77111  0.10032  1.0000
  H   H1066     1.0  0.63398  0.59682  0.15421  1.0000
  H   H1067     1.0  0.52713  0.80223  0.07585  1.0000
  C   C1075     1.0  0.53117  0.86474  0.23631  1.0000
  N   N90       1.0  0.52532  0.80985  0.01172  1.0000
  Fe  Fe188     1.0  0.59476  0.85722  0.25260  1.0000
  S   S374      1.0  0.57632  0.88411  0.24481  1.0000
  S   S375      1.0  0.59644  0.83114  0.23779  1.0000
  Fe  Fe189     1.0  0.60838  0.87313  0.28483  1.0000
  S   S376      1.0  0.59062  0.90118  0.27933  1.0000
  Fe  Fe190     1.0  0.56830  0.88416  0.27586  1.0000
  S   S377      1.0  0.53815  0.89537  0.28396  1.0000
  Fe  Fe191     1.0  0.59999  0.89874  0.24887  1.0000
  S   S378      1.0  0.60570  0.92454  0.22865  1.0000
  S   S379      1.0  0.58507  0.85597  0.28388  1.0000
  S   S380      1.0  0.61945  0.87193  0.25407  1.0000
  C   C1076     1.0  0.62719  0.76702  0.01768  1.0000
  H   H1068     1.0  0.51899  0.81081  0.12759  1.0000
  C   C1077     1.0  0.62825  0.78561  0.06299  1.0000
  C   C1078     1.0  0.52191  0.88014  0.28256  1.0000
  C   C1079     1.0  0.52651  0.86049  0.28607  1.0000
  C   C1080     1.0  0.51307  0.84859  0.28562  1.0000
  H   H1069     1.0  0.56862  0.63861  0.03437  1.0000
  C   C1081     1.0  0.54257  0.93999  0.26413  1.0000
  H   H1070     1.0  0.54024  0.85451  0.28962  1.0000
  H   H1071     1.0  0.51654  0.83341  0.28868  1.0000
  C   C1082     1.0  0.63443  0.96278  0.25659  1.0000
  C   C1083     1.0  0.63794  0.94306  0.26091  1.0000
  C   C1084     1.0  0.62878  0.93131  0.25268  1.0000
  C   C1085     1.0  0.61675  0.93922  0.23941  1.0000
  C   C1086     1.0  0.61342  0.95892  0.23486  1.0000
  C   C1087     1.0  0.62200  0.97072  0.24370  1.0000
  H   H1072     1.0  0.64775  0.93687  0.27066  1.0000
  H   H1073     1.0  0.63145  0.91610  0.25620  1.0000
  H   H1074     1.0  0.60418  0.96508  0.22454  1.0000
  H   H1075     1.0  0.52479  0.62076  0.04089  1.0000
  H   H1076     1.0  0.66504  0.62230  0.03202  1.0000
  H   H1077     1.0  0.64547  0.65444  0.14163  1.0000
  H   H1078     1.0  0.63743  0.79653  0.05669  1.0000
  C   C1088     1.0  0.53394  0.78364  0.10071  1.0000
  C   C1089     1.0  0.59061  0.82985  0.17552  1.0000
  C   C1090     1.0  0.59491  0.81309  0.18747  1.0000
  C   C1091     1.0  0.59605  0.81369  0.20665  1.0000
  C   C1092     1.0  0.59290  0.83099  0.21408  1.0000
  C   C1093     1.0  0.58781  0.84767  0.20234  1.0000
  C   C1094     1.0  0.58672  0.84707  0.18316  1.0000
  H   H1079     1.0  0.59802  0.79975  0.18180  1.0000
  H   H1080     1.0  0.59996  0.80069  0.21563  1.0000
  H   H1081     1.0  0.58523  0.86107  0.20786  1.0000
  H   H1082     1.0  0.58335  0.86011  0.17403  1.0000
  C   C1095     1.0  0.65819  0.60919  0.03503  1.0000
  C   C1096     1.0  0.58720  0.79943  0.01309  1.0000
  C   C1097     1.0  0.58068  0.79915  0.03251  1.0000
  C   C1098     1.0  0.58669  0.81136  0.04310  1.0000
  C   C1099     1.0  0.59969  0.82335  0.03427  1.0000
  H   H1083     1.0  0.55798  0.85105  0.24324  1.0000
  H   H1084     1.0  0.53220  0.63746  0.02091  1.0000
  H   H1085     1.0  0.57021  0.79023  0.03910  1.0000
  H   H1086     1.0  0.60395  0.83326  0.04209  1.0000
  C   C1100     1.0  0.62929  0.77884  0.03064  1.0000
  C   C1101     1.0  0.52772  0.77051  0.11577  1.0000
  N   N91       1.0  0.62699  0.77270  0.04958  1.0000
  C   C1102     1.0  0.58187  0.64270  0.02737  1.0000
  C   C1103     1.0  0.61228  0.68925  0.12653  1.0000
  C   C1104     1.0  0.60585  0.70398  0.13742  1.0000
  C   C1105     1.0  0.61129  0.72205  0.13155  1.0000
  C   C1106     1.0  0.62369  0.72533  0.11504  1.0000
  C   C1107     1.0  0.63029  0.71054  0.10420  1.0000
  C   C1108     1.0  0.62437  0.69259  0.10979  1.0000
  H   H1087     1.0  0.59653  0.70147  0.15041  1.0000
  H   H1088     1.0  0.60625  0.73332  0.14006  1.0000
  H   H1089     1.0  0.63993  0.71297  0.09145  1.0000
  H   H1090     1.0  0.62941  0.68128  0.10130  1.0000
  H   H1091     1.0  0.60894  0.88816  0.21002  1.0000
  H   H1092     1.0  0.62271  0.63136  0.15133  1.0000
  C   C1109     1.0  0.52393  0.61294  0.08907  1.0000
  C   C1110     1.0  0.53801  0.61604  0.09909  1.0000
  C   C1111     1.0  0.53306  0.62014  0.11764  1.0000
  C   C1112     1.0  0.63658  0.83630  0.19596  1.0000
  H   H1093     1.0  0.52765  0.60958  0.07482  1.0000
  H   H1094     1.0  0.54377  0.62235  0.12559  1.0000
  C   C1113     1.0  0.66304  0.60089  0.14731  1.0000
  H   H1095     1.0  0.62124  0.73944  0.01431  1.0000
  C   C1114     1.0  0.61302  0.64947  0.02936  1.0000
  C   C1115     1.0  0.59590  0.64397  0.03812  1.0000
  C   C1116     1.0  0.50802  0.80995  0.14005  1.0000
  H   H1096     1.0  0.59336  0.64058  0.05321  1.0000
  C   C1117     1.0  0.71356  0.57499  0.10285  1.0000
  C   C1118     1.0  0.70289  0.59183  0.09587  1.0000
  C   C1119     1.0  0.68318  0.59382  0.09858  1.0000
  C   C1120     1.0  0.67388  0.57893  0.10833  1.0000
  C   C1121     1.0  0.68454  0.56199  0.11508  1.0000
  C   C1122     1.0  0.70427  0.55998  0.11233  1.0000
  H   H1097     1.0  0.70994  0.60353  0.08852  1.0000
  H   H1098     1.0  0.67520  0.60694  0.09332  1.0000
  H   H1099     1.0  0.67749  0.55038  0.12266  1.0000
  H   H1100     1.0  0.71226  0.54698  0.11788  1.0000
  H   H1101     1.0  0.67937  0.64283  0.13573  1.0000
  H   H1102     1.0  0.66066  0.87227  0.32453  1.0000
  C   C1123     1.0  0.63755  0.62640  0.14880  1.0000
  N   N92       1.0  0.55540  0.70771  0.11857  1.0000
  C   C1124     1.0  0.56303  0.68985  0.11505  1.0000
  C   C1125     1.0  0.53678  0.71148  0.12494  1.0000
  C   C1126     1.0  0.55185  0.67527  0.11755  1.0000
  C   C1127     1.0  0.52515  0.69727  0.12749  1.0000
  C   C1128     1.0  0.53278  0.67906  0.12372  1.0000
  C   C1129     1.0  0.56714  0.72294  0.11600  1.0000
  H   H1103     1.0  0.57785  0.68674  0.11032  1.0000
  H   H1104     1.0  0.53087  0.72558  0.12809  1.0000
  C   C1130     1.0  0.50402  0.88782  0.27819  1.0000
  H   H1105     1.0  0.63664  0.82379  0.17070  1.0000
  H   H1106     1.0  0.54515  0.80309  0.25937  1.0000
  H   H1107     1.0  0.56887  0.72660  0.12996  1.0000
  H   H1108     1.0  0.58124  0.71892  0.10837  1.0000
  H   H1109     1.0  0.56052  0.73585  0.10776  1.0000
  C   C1131     1.0  0.51046  0.76417  0.11626  1.0000
  H   H1110     1.0  0.58218  0.79035  0.00492  1.0000
  S   S381      1.0  0.64589  0.97714  0.26734  1.0000
  H   H1111     1.0  0.52397  0.66785  0.12563  1.0000
  H   H1112     1.0  0.60877  0.94386  0.31800  1.0000
  C   C1132     1.0  0.52083  0.82862  0.24366  1.0000
  C   C1133     1.0  0.62047  0.74264  0.04358  1.0000
  N   N93       1.0  0.53169  0.94665  0.27946  1.0000
  H   H1113     1.0  0.52895  0.99459  0.30359  1.0000
  C   C1134     1.0  0.51226  0.94275  0.28416  1.0000
  H   H1114     1.0  0.50592  0.94220  0.27125  1.0000
  H   H1115     1.0  0.51035  0.70037  0.13242  1.0000
  N   N94       1.0  0.52420  0.61272  0.01365  1.0000
  C   C1135     1.0  0.50022  0.61749  0.11603  1.0000
  H   H1116     1.0  0.58336  0.95571  0.26778  1.0000
  N   N95       1.0  0.53853  0.83132  0.24572  1.0000
  C   C1136     1.0  0.63063  0.87500  0.32662  1.0000
  C   C1137     1.0  0.54389  0.84902  0.24179  1.0000
  H   H1117     1.0  0.50555  0.75393  0.12777  1.0000
  H   H1118     1.0  0.51647  0.81463  0.24683  1.0000
  C   C1138     1.0  0.54965  0.83302  0.01943  1.0000
  H   H1119     1.0  0.50039  0.90301  0.27545  1.0000
  H   H1120     1.0  0.65133  0.96412  0.30537  1.0000
  H   H1121     1.0  0.60284  0.60111  0.01554  1.0000
  H   H1122     1.0  0.53698  0.82786  0.04829  1.0000
  H   H1123     1.0  0.56116  0.81910  0.26098  1.0000
  C   C1139     1.0  0.49521  0.85627  0.28114  1.0000
  H   H1124     1.0  0.50570  0.79489  0.14406  1.0000
  C   C1140     1.0  0.66947  0.63269  0.14000  1.0000
  C   C1141     1.0  0.55213  0.81514  0.25151  1.0000
  H   H1125     1.0  0.62713  0.85443  0.15179  1.0000
  H   H1126     1.0  0.62263  0.60202  0.04008  1.0000
  C   C1142     1.0  0.64387  0.60705  0.15066  1.0000
  C   C1143     1.0  0.56124  0.94327  0.25963  1.0000
  N   N96       1.0  0.64639  0.60869  0.02046  1.0000
  C   C1144     1.0  0.63474  0.83681  0.17697  1.0000
  H   H1127     1.0  0.62448  0.90031  0.19214  1.0000
  H   H1128     1.0  0.53070  0.96078  0.30348  1.0000
  H   H1129     1.0  0.70244  0.60962  0.15088  1.0000
  H   H1130     1.0  0.69854  0.59172  0.13759  1.0000
  C   C1145     1.0  0.69567  0.60710  0.13892  1.0000
  H   H1131     1.0  0.70231  0.61460  0.12559  1.0000
  C   C1146     1.0  0.62342  0.88733  0.20251  1.0000
  H   H1132     1.0  0.63318  0.88763  0.21283  1.0000
  S   S382      1.0  0.63132  0.86801  0.30404  1.0000
  C   C1147     1.0  0.51286  0.79727  0.00760  1.0000
  C   C1148     1.0  0.55775  0.95965  0.28687  1.0000
  N   N97       1.0  0.62798  0.87003  0.19347  1.0000
  N   N98       1.0  0.67556  0.61367  0.14195  1.0000
  H   H1133     1.0  0.62130  0.88391  0.16664  1.0000
  H   H1134     1.0  0.63375  0.85245  0.21901  1.0000
  C   C1149     1.0  0.53797  0.81707  0.99753  1.0000
  H   H1135     1.0  0.56356  0.96725  0.29598  1.0000
  C   C1150     1.0  0.62598  0.87064  0.17488  1.0000
  C   C1151     1.0  0.63301  0.85312  0.20406  1.0000
  H   H1136     1.0  0.53527  0.87884  0.23393  1.0000
  H   H1137     1.0  0.63257  0.79303  0.02543  1.0000
  H   H1138     1.0  0.66774  0.58578  0.14851  1.0000
  H   H1139     1.0  0.61707  0.72848  0.04886  1.0000
  C   C1152     1.0  0.50784  0.84396  0.23794  1.0000
  C   C1153     1.0  0.53703  0.82523  0.03389  1.0000
  H   H1140     1.0  0.67537  0.96215  0.32646  1.0000
  H   H1141     1.0  0.62297  0.95628  0.29924  1.0000
  C   C1154     1.0  0.62941  0.85407  0.16633  1.0000
  C   C1155     1.0  0.52255  0.79132  0.08683  1.0000
  N   N99       1.0  0.63710  0.94246  0.32252  1.0000
  C   C1156     1.0  0.62848  0.60450  0.02540  1.0000
  C   C1157     1.0  0.61721  0.60388  0.01156  1.0000
  H   H1142     1.0  0.63992  0.82286  0.20458  1.0000
  C   C1158     1.0  0.53914  0.95606  0.29097  1.0000
  H   H1143     1.0  0.55946  0.84166  0.02258  1.0000
  H   H1144     1.0  0.61953  0.98591  0.24005  1.0000
  H   H1145     1.0  0.50336  0.95406  0.29151  1.0000
  H   H1146     1.0  0.53692  0.93175  0.25552  1.0000
  C   C1159     1.0  0.60229  0.65155  0.99886  1.0000
  C   C1160     1.0  0.62284  0.74877  0.02422  1.0000
  H   H1147     1.0  0.51172  0.92895  0.29333  1.0000
  C   C1161     1.0  0.56884  0.95323  0.27105  1.0000
  H   H1148     1.0  0.62582  0.93076  0.30226  1.0000
  C   C1162     1.0  0.59979  0.81193  0.00422  1.0000
  C   C1163     1.0  0.51426  0.62070  0.12610  1.0000
  H   H1149     1.0  0.51060  0.62342  0.14057  1.0000
  H   H1150     1.0  0.62031  0.75020  0.07119  1.0000
  C   C1164     1.0  0.50637  0.60825  0.01836  1.0000
  C   C1165     1.0  0.52492  0.81357  0.02978  1.0000
  H   H1151     1.0  0.56985  0.93787  0.24753  1.0000
  C   C1166     1.0  0.50492  0.78575  0.08786  1.0000
  H   H1152     1.0  0.56127  0.81045  0.23888  1.0000
  C   C1167     1.0  0.55025  0.82883  0.00113  1.0000
  H   H1153     1.0  0.61408  0.79286  0.06744  1.0000
  C   C1168     1.0  0.51301  0.86215  0.23444  1.0000
  C   C1169     1.0  0.62298  0.94338  0.30988  1.0000
  H   H1154     1.0  0.49824  0.61137  0.03163  1.0000
  C   C1170     1.0  0.60628  0.82353  0.01501  1.0000
  C   C1171     1.0  0.50514  0.61383  0.09739  1.0000
  H   H1155     1.0  0.54720  0.61589  0.02732  1.0000
  H   H1156     1.0  0.63418  0.77779  0.07568  1.0000
  H   H1157     1.0  0.64986  0.60955  0.04919  1.0000
  H   H1158     1.0  0.55795  0.66109  0.11478  1.0000
  H   H1159     1.0  0.51368  0.81465  0.15173  1.0000
  C   C1172     1.0  0.65085  0.95400  0.31812  1.0000
  H   H1160     1.0  0.66899  0.59657  0.03565  1.0000
  H   H1161     1.0  0.52074  0.78301  0.00613  1.0000
  C   C1173     1.0  0.53243  0.62216  0.02635  1.0000
  H   H1162     1.0  0.50282  0.87424  0.23070  1.0000
  C   C1174     1.0  0.49918  0.77161  0.10213  1.0000
  H   H1163     1.0  0.50079  0.79584  0.01890  1.0000
  C   C1175     1.0  0.58507  0.64631  0.00773  1.0000
  S   S383      1.0  0.73825  0.57417  0.10067  1.0000
  C   C1176     1.0  0.49830  0.59957  0.00614  1.0000
  H   H1164     1.0  0.74235  0.54557  0.02526  1.0000
  H   H1165     1.0  0.62949  0.65743  0.00283  1.0000
  H   H1166     1.0  0.61602  0.83322  0.00827  1.0000
  H   H1167     1.0  0.62872  0.77216  0.00268  1.0000
  C   C1177     1.0  0.65365  0.61196  0.00187  1.0000
  H   H1168     1.0  0.66788  0.61515  0.99794  1.0000
  C   C1178     1.0  0.53425  0.60907  0.99675  1.0000
  H   H1169     1.0  0.49453  0.61125  0.08950  1.0000
  H   H1170     1.0  0.67184  0.83058  0.34605  1.0000
  Fe  Fe192     1.0  0.67407  0.88353  0.57498  1.0000
  S   S384      1.0  0.68405  0.91181  0.57213  1.0000
  S   S385      1.0  0.67650  0.86809  0.54936  1.0000
  Fe  Fe193     1.0  0.66733  0.87977  0.61833  1.0000
  S   S386      1.0  0.67752  0.90723  0.61863  1.0000
  Fe  Fe194     1.0  0.66069  0.91809  0.59506  1.0000
  S   S387      1.0  0.64633  0.94721  0.59867  1.0000
  Fe  Fe195     1.0  0.70025  0.89903  0.59586  1.0000
  S   S388      1.0  0.72722  0.91106  0.59396  1.0000
  S   S389      1.0  0.64867  0.89101  0.59595  1.0000
  S   S390      1.0  0.69206  0.87001  0.59756  1.0000
  Fe  Fe196     1.0  0.66991  0.89371  0.43885  1.0000
  S   S391      1.0  0.69992  0.89182  0.42553  1.0000
  S   S392      1.0  0.66145  0.90619  0.46651  1.0000
  Fe  Fe197     1.0  0.65631  0.88669  0.40188  1.0000
  S   S393      1.0  0.68526  0.88471  0.38628  1.0000
  S   S394      1.0  0.63064  0.88605  0.38767  1.0000
  Fe  Fe198     1.0  0.69363  0.86744  0.41294  1.0000
  S   S395      1.0  0.71336  0.84074  0.40963  1.0000
  Fe  Fe199     1.0  0.68854  0.90931  0.40041  1.0000
  S   S396      1.0  0.69991  0.93527  0.38475  1.0000
  S   S397      1.0  0.66422  0.86760  0.42804  1.0000
  S   S398      1.0  0.65902  0.91275  0.41410  1.0000
  H   H1171     1.0  0.64468  0.93975  0.44330  1.0000
  H   H1172     1.0  0.70996  0.95618  0.60548  1.0000
  H   H1173     1.0  0.74170  0.89463  0.55588  1.0000
  C   C1179     1.0  0.71703  0.96846  0.42662  1.0000
  C   C1180     1.0  0.72001  0.97476  0.40728  1.0000
  C   C1181     1.0  0.71486  0.96449  0.39435  1.0000
  C   C1182     1.0  0.70641  0.94813  0.40082  1.0000
  C   C1183     1.0  0.70335  0.94197  0.42016  1.0000
  C   C1184     1.0  0.70914  0.95179  0.43300  1.0000
  S   S399      1.0  0.72169  0.98197  0.44302  1.0000
  H   H1174     1.0  0.71734  0.96928  0.37939  1.0000
  H   H1175     1.0  0.69610  0.92992  0.42537  1.0000
  H   H1176     1.0  0.70660  0.94700  0.44797  1.0000
  C   C1185     1.0  0.66281  0.95820  0.60701  1.0000
  C   C1186     1.0  0.68193  0.95209  0.60278  1.0000
  C   C1187     1.0  0.66567  0.98486  0.39583  1.0000
  C   C1188     1.0  0.63729  0.83751  0.38219  1.0000
  C   C1189     1.0  0.72091  0.88415  0.50835  1.0000
  C   C1190     1.0  0.65704  0.97308  0.61779  1.0000
  H   H1177     1.0  0.68662  0.94096  0.59411  1.0000
  H   H1178     1.0  0.71013  0.98759  0.56805  1.0000
  H   H1179     1.0  0.63738  0.83484  0.35292  1.0000
  H   H1180     1.0  0.64229  0.97775  0.62130  1.0000
  C   C1191     1.0  0.67222  0.87892  0.52643  1.0000
  C   C1192     1.0  0.67556  0.86786  0.51154  1.0000
  C   C1193     1.0  0.67267  0.87601  0.49305  1.0000
  C   C1194     1.0  0.66613  0.89530  0.48932  1.0000
  C   C1195     1.0  0.66287  0.90636  0.50420  1.0000
  C   C1196     1.0  0.66601  0.89827  0.52264  1.0000
  H   H1181     1.0  0.68038  0.85288  0.51433  1.0000
  H   H1182     1.0  0.67515  0.86731  0.48177  1.0000
  H   H1183     1.0  0.65773  0.92127  0.50149  1.0000
  H   H1184     1.0  0.66335  0.90694  0.53394  1.0000
  C   C1197     1.0  0.67874  0.96492  0.55295  1.0000
  C   C1198     1.0  0.63105  0.88257  0.36386  1.0000
  C   C1199     1.0  0.61407  0.88266  0.35687  1.0000
  C   C1200     1.0  0.66777  0.83535  0.39202  1.0000
  C   C1201     1.0  0.64829  0.83793  0.39625  1.0000
  H   H1185     1.0  0.69702  0.87101  0.64560  1.0000
  C   C1202     1.0  0.69650  0.83071  0.37008  1.0000
  H   H1186     1.0  0.60101  0.88527  0.36596  1.0000
  C   C1203     1.0  0.68948  0.97591  0.61959  1.0000
  C   C1204     1.0  0.66415  0.93991  0.34640  1.0000
  H   H1187     1.0  0.66100  0.87915  0.35706  1.0000
  S   S400      1.0  0.70631  0.98780  0.62603  1.0000
  C   C1205     1.0  0.71450  0.90261  0.64305  1.0000
  H   H1188     1.0  0.70884  0.96078  0.55045  1.0000
  H   H1189     1.0  0.62216  0.84024  0.38512  1.0000
  C   C1206     1.0  0.74197  0.87983  0.55309  1.0000
  H   H1190     1.0  0.64173  0.84084  0.41019  1.0000
  H   H1191     1.0  0.60123  0.90292  0.63204  1.0000
  H   H1192     1.0  0.62597  0.92022  0.34182  1.0000
  H   H1193     1.0  0.72656  0.98739  0.40227  1.0000
  H   H1194     1.0  0.67856  0.99540  0.42476  1.0000
  H   H1195     1.0  0.71048  0.88637  0.53739  1.0000
  N   N100      1.0  0.60302  0.88820  0.65955  1.0000
  C   C1207     1.0  0.72290  0.88363  0.52735  1.0000
  C   C1208     1.0  0.61162  0.89849  0.64212  1.0000
  H   H1196     1.0  0.64786  0.95538  0.41019  1.0000
  H   H1197     1.0  0.72351  0.89370  0.63366  1.0000
  H   H1198     1.0  0.73851  0.87009  0.60058  1.0000
  C   C1209     1.0  0.66537  0.83222  0.36031  1.0000
  C   C1210     1.0  0.66238  0.97569  0.56018  1.0000
  H   H1199     1.0  0.73510  0.86214  0.42781  1.0000
  H   H1200     1.0  0.70717  0.88733  0.50375  1.0000
  C   C1211     1.0  0.65014  0.92815  0.35071  1.0000
  C   C1212     1.0  0.70370  0.93375  0.65194  1.0000
  C   C1213     1.0  0.71556  0.92208  0.64028  1.0000
  C   C1214     1.0  0.64584  0.83451  0.36412  1.0000
  H   H1201     1.0  0.64895  0.97203  0.55837  1.0000
  N   N101      1.0  0.66352  0.97618  0.41557  1.0000
  H   H1202     1.0  0.64971  0.91794  0.36341  1.0000
  H   H1203     1.0  0.70420  0.94893  0.64972  1.0000
  C   C1215     1.0  0.66937  0.97481  0.44758  1.0000
  C   C1216     1.0  0.60369  0.86894  0.66126  1.0000
  S   S401      1.0  0.65667  0.86327  0.64634  1.0000
  H   H1204     1.0  0.67626  0.83586  0.40297  1.0000
  H   H1205     1.0  0.61704  0.91123  0.64500  1.0000
  H   H1206     1.0  0.65202  0.99238  0.39208  1.0000
  H   H1207     1.0  0.61138  0.86113  0.65020  1.0000
  N   N102      1.0  0.67606  0.83254  0.37424  1.0000
  H   H1208     1.0  0.67793  0.95313  0.54555  1.0000
  C   C1217     1.0  0.69606  0.96921  0.55572  1.0000
  H   H1209     1.0  0.60068  0.87872  0.33325  1.0000
  H   H1210     1.0  0.72522  0.92811  0.62884  1.0000
  H   H1211     1.0  0.65912  0.95174  0.46714  1.0000
  C   C1218     1.0  0.73743  0.84256  0.40758  1.0000
  C   C1219     1.0  0.66000  0.95893  0.45278  1.0000
  C   C1220     1.0  0.69522  0.96080  0.60918  1.0000
  C   C1221     1.0  0.64783  0.87923  0.35194  1.0000
  C   C1222     1.0  0.65388  0.96095  0.42065  1.0000
  C   C1223     1.0  0.65199  0.95209  0.43931  1.0000
  H   H1212     1.0  0.70166  0.82589  0.35615  1.0000
  C   C1224     1.0  0.69681  0.98420  0.56558  1.0000
  N   N103      1.0  0.66325  0.99012  0.57016  1.0000
  C   C1225     1.0  0.67037  0.98187  0.62413  1.0000
  H   H1213     1.0  0.70135  0.84457  0.37026  1.0000
  C   C1226     1.0  0.61383  0.87902  0.33831  1.0000
  H   H1214     1.0  0.70301  0.82027  0.38098  1.0000
  C   C1227     1.0  0.70051  0.87469  0.65893  1.0000
  H   H1215     1.0  0.67474  0.93887  0.35570  1.0000
  H   H1216     1.0  0.62375  0.88952  0.63532  1.0000
  H   H1217     1.0  0.73428  0.91508  0.40257  1.0000
  C   C1228     1.0  0.63671  0.92955  0.33848  1.0000
  C   C1229     1.0  0.67092  0.98335  0.42880  1.0000
  H   H1218     1.0  0.66584  0.99310  0.63278  1.0000
  C   C1230     1.0  0.73672  0.88047  0.49534  1.0000
  H   H1219     1.0  0.74257  0.99800  0.60953  1.0000
  N   N104      1.0  0.74022  0.87962  0.53321  1.0000
  H   H1220     1.0  0.73532  0.88064  0.48059  1.0000
  H   H1221     1.0  0.67595  0.98012  0.45783  1.0000
  C   C1231     1.0  0.68017  0.99452  0.57279  1.0000
  N   N105      1.0  0.70187  0.89500  0.65699  1.0000
  H   H1222     1.0  0.63521  0.99163  0.58380  1.0000
  H   H1223     1.0  0.73029  0.87360  0.56247  1.0000
  H   H1224     1.0  0.67583  0.99531  0.39317  1.0000
  H   H1225     1.0  0.67103  0.97385  0.38642  1.0000
  H   H1226     1.0  0.71397  0.86629  0.66216  1.0000
  C   C1232     1.0  0.64760  0.87532  0.33349  1.0000
  H   H1227     1.0  0.65305  0.90222  0.65482  1.0000
  C   C1233     1.0  0.66453  0.95294  0.33001  1.0000
  Fe  Fe200     1.0  0.57167  0.91105  0.77008  1.0000
  S   S402      1.0  0.57622  0.90835  0.73946  1.0000
  S   S403      1.0  0.55764  0.94044  0.77457  1.0000
  Fe  Fe201     1.0  0.58517  0.86946  0.78066  1.0000
  S   S404      1.0  0.59087  0.86369  0.75011  1.0000
  S   S405      1.0  0.58953  0.84410  0.80365  1.0000
  Fe  Fe202     1.0  0.60343  0.89091  0.74413  1.0000
  S   S406      1.0  0.62647  0.90072  0.72141  1.0000
  Fe  Fe203     1.0  0.56328  0.88168  0.74724  1.0000
  S   S407      1.0  0.54370  0.88086  0.72619  1.0000
  S   S408      1.0  0.60010  0.89554  0.77477  1.0000
  S   S409      1.0  0.55643  0.88554  0.77777  1.0000
  H   H1228     1.0  0.54759  0.82175  0.88654  1.0000
  S   S410      1.0  0.71877  0.58123  0.91085  1.0000
  C   C1234     1.0  0.50050  0.77589  0.95036  1.0000
  Fe  Fe204     1.0  0.60780  0.61491  0.94055  1.0000
  S   S411      1.0  0.60374  0.64471  0.94783  1.0000
  S   S412      1.0  0.63339  0.59354  0.94687  1.0000
  Fe  Fe205     1.0  0.56579  0.61678  0.93612  1.0000
  S   S413      1.0  0.55879  0.64620  0.94333  1.0000
  S   S414      1.0  0.54508  0.59899  0.92952  1.0000
  Fe  Fe206     1.0  0.58543  0.65177  0.92474  1.0000
  S   S415      1.0  0.58124  0.67974  0.90624  1.0000
  Fe  Fe207     1.0  0.57753  0.63685  0.96561  1.0000
  N   N106      1.0  0.50419  0.82184  0.92454  1.0000
  S   S416      1.0  0.59147  0.62260  0.91565  1.0000
  S   S417      1.0  0.58239  0.60673  0.96021  1.0000
  Fe  Fe208     1.0  0.58469  0.81591  0.91637  1.0000
  S   S418      1.0  0.57373  0.78856  0.91609  1.0000
  S   S419      1.0  0.58382  0.84085  0.89287  1.0000
  Fe  Fe209     1.0  0.59454  0.80441  0.95718  1.0000
  S   S420      1.0  0.58436  0.77630  0.95994  1.0000
  Fe  Fe210     1.0  0.59858  0.77495  0.93040  1.0000
  S   S421      1.0  0.61742  0.74832  0.92430  1.0000
  Fe  Fe211     1.0  0.56050  0.79230  0.94566  1.0000
  S   S422      1.0  0.53142  0.78794  0.95885  1.0000
  S   S423      1.0  0.61085  0.80203  0.92844  1.0000
  S   S424      1.0  0.56942  0.82077  0.94509  1.0000
  H   H1229     1.0  0.71815  0.52336  0.93559  1.0000
  C   C1235     1.0  0.49954  0.76178  0.92220  1.0000
  N   N107      1.0  0.61420  0.96350  0.74643  1.0000
  H   H1230     1.0  0.50624  0.83424  0.76477  1.0000
  H   H1231     1.0  0.57828  0.86144  0.70459  1.0000
  C   C1236     1.0  0.58804  0.98079  0.79799  1.0000
  C   C1237     1.0  0.52063  0.59852  0.93515  1.0000
  C   C1238     1.0  0.50765  0.61410  0.94006  1.0000
  H   H1232     1.0  0.52601  0.75593  0.90510  1.0000
  H   H1233     1.0  0.60836  0.70710  0.96452  1.0000
  H   H1234     1.0  0.53871  0.81360  0.98335  1.0000
  C   C1239     1.0  0.51408  0.58172  0.93343  1.0000
  H   H1235     1.0  0.51255  0.62719  0.94141  1.0000
  H   H1236     1.0  0.52256  0.80212  0.88515  1.0000
  H   H1237     1.0  0.52390  0.56962  0.92966  1.0000
  C   C1240     1.0  0.59129  0.69865  0.91155  1.0000
  C   C1241     1.0  0.60853  0.69556  0.91846  1.0000
  C   C1242     1.0  0.61652  0.71095  0.92211  1.0000
  C   C1243     1.0  0.60705  0.72940  0.91947  1.0000
  C   C1244     1.0  0.58963  0.73245  0.91292  1.0000
  C   C1245     1.0  0.58193  0.71713  0.90867  1.0000
  H   H1238     1.0  0.61596  0.68138  0.92042  1.0000
  H   H1239     1.0  0.63009  0.70855  0.92699  1.0000
  H   H1240     1.0  0.58227  0.74662  0.91072  1.0000
  H   H1241     1.0  0.56862  0.71957  0.90325  1.0000
  C   C1246     1.0  0.69560  0.58663  0.92216  1.0000
  C   C1247     1.0  0.68253  0.59908  0.91226  1.0000
  C   C1248     1.0  0.66353  0.60215  0.91996  1.0000
  C   C1249     1.0  0.65741  0.59262  0.93760  1.0000
  C   C1250     1.0  0.67059  0.58062  0.94774  1.0000
  C   C1251     1.0  0.68958  0.57770  0.94012  1.0000
  H   H1242     1.0  0.68704  0.60607  0.89836  1.0000
  H   H1243     1.0  0.65356  0.61138  0.91197  1.0000
  H   H1244     1.0  0.66600  0.57318  0.96139  1.0000
  H   H1245     1.0  0.69945  0.56812  0.94791  1.0000
  C   C1252     1.0  0.58531  0.84394  0.82852  1.0000
  C   C1253     1.0  0.58389  0.82659  0.84024  1.0000
  C   C1254     1.0  0.58284  0.82542  0.86001  1.0000
  C   C1255     1.0  0.58318  0.84166  0.86829  1.0000
  C   C1256     1.0  0.58396  0.85910  0.85663  1.0000
  C   C1257     1.0  0.58501  0.86026  0.83688  1.0000
  H   H1246     1.0  0.58410  0.81389  0.83390  1.0000
  H   H1247     1.0  0.58224  0.81190  0.86874  1.0000
  H   H1248     1.0  0.58419  0.87177  0.86288  1.0000
  H   H1249     1.0  0.58612  0.87370  0.82809  1.0000
  C   C1258     1.0  0.63362  0.89028  0.70038  1.0000
  C   C1259     1.0  0.63329  0.87102  0.69987  1.0000
  C   C1260     1.0  0.52136  0.81084  0.89635  1.0000
  C   C1261     1.0  0.53368  0.83270  0.91180  1.0000
  H   H1250     1.0  0.61855  0.93478  0.74125  1.0000
  C   C1262     1.0  0.64085  0.90142  0.68401  1.0000
  H   H1251     1.0  0.62792  0.86224  0.71241  1.0000
  C   C1263     1.0  0.59801  0.69684  0.96733  1.0000
  C   C1264     1.0  0.57464  0.72434  0.96062  1.0000
  H   H1252     1.0  0.64116  0.91634  0.68425  1.0000
  C   C1265     1.0  0.52369  0.86935  0.73318  1.0000
  C   C1266     1.0  0.52269  0.85509  0.74858  1.0000
  H   H1253     1.0  0.53440  0.85093  0.75653  1.0000
  C   C1267     1.0  0.61975  0.97249  0.75958  1.0000
  C   C1268     1.0  0.59220  0.96117  0.80289  1.0000
  C   C1269     1.0  0.58316  0.94859  0.79555  1.0000
  C   C1270     1.0  0.56956  0.95566  0.78369  1.0000
  C   C1271     1.0  0.56515  0.97528  0.77907  1.0000
  H   H1254     1.0  0.58643  0.93347  0.79935  1.0000
  H   H1255     1.0  0.55460  0.98079  0.76993  1.0000
  C   C1272     1.0  0.57452  0.98782  0.78603  1.0000
  H   H1256     1.0  0.61584  0.60699  0.98173  1.0000
  C   C1273     1.0  0.55213  0.70206  0.94866  1.0000
  C   C1274     1.0  0.56913  0.69418  0.95504  1.0000
  H   H1257     1.0  0.65793  0.56793  0.89734  1.0000
  H   H1258     1.0  0.54371  0.69322  0.94358  1.0000
  C   C1275     1.0  0.50569  0.81120  0.91013  1.0000
  Fe  Fe212     1.0  0.74246  0.56268  0.92475  1.0000
  H   H1259     1.0  0.50919  0.88567  0.71098  1.0000
  H   H1260     1.0  0.58350  0.73321  0.96497  1.0000
  C   C1276     1.0  0.54630  0.72143  0.94853  1.0000
  C   C1277     1.0  0.66000  0.54912  0.92330  1.0000
  C   C1278     1.0  0.49495  0.58029  0.93640  1.0000
  H   H1261     1.0  0.64062  0.84792  0.68319  1.0000
  H   H1262     1.0  0.57700  0.89627  0.70113  1.0000
  N   N108      1.0  0.62675  0.79851  0.86744  1.0000
  C   C1279     1.0  0.62727  0.81567  0.87311  1.0000
  C   C1280     1.0  0.62711  0.79707  0.84874  1.0000
  C   C1281     1.0  0.62865  0.83188  0.85987  1.0000
  C   C1282     1.0  0.62845  0.81301  0.83513  1.0000
  C   C1283     1.0  0.62921  0.83051  0.84078  1.0000
  C   C1284     1.0  0.62444  0.78187  0.88160  1.0000
  H   H1263     1.0  0.62606  0.81707  0.88796  1.0000
  H   H1264     1.0  0.62598  0.78365  0.84427  1.0000
  H   H1265     1.0  0.62834  0.84556  0.86451  1.0000
  H   H1266     1.0  0.62805  0.81205  0.82037  1.0000
  H   H1267     1.0  0.62937  0.84311  0.83043  1.0000
  H   H1268     1.0  0.63043  0.76849  0.87583  1.0000
  H   H1269     1.0  0.63174  0.78226  0.89394  1.0000
  H   H1270     1.0  0.60937  0.78127  0.88664  1.0000
  H   H1271     1.0  0.59488  0.94357  0.75037  1.0000
  C   C1285     1.0  0.51965  0.77656  0.94537  1.0000
  H   H1272     1.0  0.71269  0.53968  0.90561  1.0000
  C   C1286     1.0  0.50847  0.87465  0.72292  1.0000
  C   C1287     1.0  0.58455  0.88852  0.68999  1.0000
  N   N109      1.0  0.58030  0.70537  0.96056  1.0000
  C   C1288     1.0  0.68607  0.55412  0.89915  1.0000
  H   H1273     1.0  0.53316  0.72774  0.94355  1.0000
  H   H1274     1.0  0.50707  0.80289  0.99419  1.0000
  H   H1275     1.0  0.55315  0.74769  0.95477  1.0000
  C   C1289     1.0  0.67215  0.53692  0.93430  1.0000
  H   H1276     1.0  0.60258  0.95569  0.81224  1.0000
  H   H1277     1.0  0.59569  0.84371  0.67894  1.0000
  C   C1290     1.0  0.51890  0.76141  0.91778  1.0000
  C   C1291     1.0  0.51753  0.92809  0.75788  1.0000
  H   H1278     1.0  0.62109  0.96533  0.77370  1.0000
  C   C1292     1.0  0.51790  0.83256  0.92546  1.0000
  C   C1293     1.0  0.59354  0.89801  0.67361  1.0000
  H   H1279     1.0  0.66662  0.53048  0.94814  1.0000
  C   C1294     1.0  0.58526  0.86890  0.69192  1.0000
  C   C1295     1.0  0.66706  0.55783  0.90566  1.0000
  H   H1280     1.0  0.49736  0.60156  0.89746  1.0000
  H   H1281     1.0  0.54828  0.61284  0.99289  1.0000
  C   C1296     1.0  0.64060  0.86291  0.68331  1.0000
  H   H1282     1.0  0.70222  0.50599  0.93885  1.0000
  C   C1297     1.0  0.64773  0.89340  0.66732  1.0000
  H   H1283     1.0  0.68177  0.93481  0.67544  1.0000
  C   C1298     1.0  0.62445  0.60732  0.99260  1.0000
  H   H1284     1.0  0.68927  0.87039  0.67026  1.0000
  C   C1299     1.0  0.55754  0.73264  0.95471  1.0000
  H   H1285     1.0  0.64853  0.61396  0.97290  1.0000
  C   C1300     1.0  0.59491  0.85900  0.67750  1.0000
  C   C1301     1.0  0.50646  0.91557  0.75351  1.0000
  H   H1286     1.0  0.50232  0.58912  0.97922  1.0000
  C   C1302     1.0  0.50847  0.59571  0.98891  1.0000
  S   S425      1.0  0.56736  0.64404  0.99470  1.0000
  H   H1287     1.0  0.51765  0.95282  0.77120  1.0000
  C   C1303     1.0  0.69783  0.54189  0.91054  1.0000
  S   S426      1.0  0.60041  0.99614  0.80642  1.0000
  H   H1288     1.0  0.51667  0.84108  0.93680  1.0000
  S   S427      1.0  0.73904  0.54961  0.95490  1.0000
  H   H1289     1.0  0.68065  0.90026  0.68003  1.0000
  C   C1304     1.0  0.61242  0.97269  0.72869  1.0000
  H   H1290     1.0  0.52236  0.63664  0.90424  1.0000
  N   N110      1.0  0.69085  0.53369  0.92798  1.0000
  H   H1291     1.0  0.57355  0.67913  0.95512  1.0000
  H   H1292     1.0  0.54453  0.84127  0.91247  1.0000
  H   H1293     1.0  0.53466  0.59752  0.97081  1.0000
  C   C1305     1.0  0.52892  0.76894  0.92929  1.0000
  H   H1294     1.0  0.54375  0.76888  0.92558  1.0000
  S   S428      1.0  0.60815  0.81357  0.97988  1.0000
  H   H1295     1.0  0.69187  0.56138  0.88579  1.0000
  H   H1296     1.0  0.53255  0.92616  0.75372  1.0000
  H   H1297     1.0  0.60487  0.65438  0.98373  1.0000
  H   H1298     1.0  0.69983  0.52352  0.95483  1.0000
  C   C1306     1.0  0.60990  0.94398  0.75119  1.0000
  C   C1307     1.0  0.51845  0.62982  0.89288  1.0000
  C   C1308     1.0  0.62365  0.99119  0.75511  1.0000
  C   C1309     1.0  0.61638  0.99135  0.72367  1.0000
  C   C1310     1.0  0.50914  0.94306  0.76769  1.0000
  C   C1311     1.0  0.70332  0.52100  0.93986  1.0000
  H   H1299     1.0  0.59556  0.69193  0.98270  1.0000
  H   H1300     1.0  0.56056  0.83422  0.98995  1.0000
  C   C1312     1.0  0.53539  0.82174  0.89718  1.0000
  H   H1301     1.0  0.51309  0.90407  0.74580  1.0000
  C   C1313     1.0  0.52659  0.60045  0.98417  1.0000
  H   H1302     1.0  0.64534  0.55243  0.92871  1.0000
  H   H1303     1.0  0.61265  0.93781  0.76569  1.0000
  H   H1304     1.0  0.61501  0.99865  0.70958  1.0000
  H   H1305     1.0  0.52506  0.61481  0.89471  1.0000
  N   N111      1.0  0.49803  0.63143  0.89405  1.0000
  H   H1306     1.0  0.62771  0.99837  0.76570  1.0000
  C   C1314     1.0  0.50675  0.84568  0.75323  1.0000
  C   C1315     1.0  0.64279  0.61135  0.98767  1.0000
  C   C1316     1.0  0.64784  0.87404  0.66695  1.0000
  H   H1307     1.0  0.60440  0.68459  0.95985  1.0000
  H   H1308     1.0  0.59294  0.91326  0.67228  1.0000
  H   H1309     1.0  0.52447  0.63670  0.87898  1.0000
  C   C1317     1.0  0.69047  0.90629  0.66879  1.0000
  C   C1318     1.0  0.69111  0.92583  0.66635  1.0000
  H   H1310     1.0  0.60791  0.96557  0.71833  1.0000
  H   H1311     1.0  0.49490  0.80266  0.90933  1.0000
  H   H1312     1.0  0.49464  0.66160  0.89129  1.0000
  H   H1313     1.0  0.75520  0.38542  0.04808  1.0000
  S   S429      1.0  0.77988  0.34137  0.10262  1.0000
  H   H1314     1.0  0.95784  0.37598  0.11519  1.0000
  S   S430      1.0  0.78526  0.38666  0.09271  1.0000
  H   H1315     1.0  0.91744  0.47054  0.30630  1.0000
  Fe  Fe213     1.0  0.77698  0.36444  0.07806  1.0000
  S   S431      1.0  0.78938  0.35905  0.04850  1.0000
  Fe  Fe214     1.0  0.78571  0.36433  0.11805  1.0000
  S   S432      1.0  0.80474  0.36277  0.14074  1.0000
  N   N112      1.0  0.85425  0.49607  0.17097  1.0000
  C   C1319     1.0  0.87168  0.35690  0.28729  1.0000
  S   S433      1.0  0.90600  0.38356  0.29893  1.0000
  Fe  Fe215     1.0  0.90677  0.36690  0.15920  1.0000
  S   S434      1.0  0.89136  0.37420  0.18691  1.0000
  S   S435      1.0  0.89339  0.35783  0.13612  1.0000
  Fe  Fe216     1.0  0.94328  0.38072  0.16595  1.0000
  S   S436      1.0  0.93016  0.38977  0.19374  1.0000
  S   S437      1.0  0.97207  0.38849  0.15332  1.0000
  Fe  Fe217     1.0  0.91826  0.36225  0.19852  1.0000
  S   S438      1.0  0.92086  0.34287  0.22574  1.0000
  Fe  Fe218     1.0  0.90472  0.40079  0.17949  1.0000
  S   S439      1.0  0.88831  0.42954  0.18035  1.0000
  S   S440      1.0  0.93286  0.35235  0.17135  1.0000
  S   S441      1.0  0.91869  0.39432  0.15116  1.0000
  C   C1320     1.0  0.91248  0.37302  0.27813  1.0000
  C   C1321     1.0  0.92206  0.35466  0.27845  1.0000
  C   C1322     1.0  0.92477  0.34553  0.26224  1.0000
  C   C1323     1.0  0.91834  0.35490  0.24553  1.0000
  C   C1324     1.0  0.90932  0.37349  0.24504  1.0000
  C   C1325     1.0  0.90625  0.38245  0.26135  1.0000
  H   H1316     1.0  0.92687  0.34728  0.29132  1.0000
  H   H1317     1.0  0.93183  0.33119  0.26264  1.0000
  H   H1318     1.0  0.90424  0.38078  0.23223  1.0000
  H   H1319     1.0  0.89877  0.39663  0.26104  1.0000
  C   C1326     1.0  0.92073  0.46248  0.21016  1.0000
  C   C1327     1.0  0.91688  0.44437  0.21830  1.0000
  C   C1328     1.0  0.90687  0.43416  0.20917  1.0000
  C   C1329     1.0  0.90059  0.44217  0.19201  1.0000
  C   C1330     1.0  0.90468  0.46013  0.18379  1.0000
  C   C1331     1.0  0.91477  0.47026  0.19282  1.0000
  H   H1320     1.0  0.92160  0.43823  0.23164  1.0000
  H   H1321     1.0  0.90382  0.42019  0.21552  1.0000
  H   H1322     1.0  0.90057  0.46599  0.17014  1.0000
  H   H1323     1.0  0.92071  0.32384  0.14699  1.0000
  N   N113      1.0  0.94566  0.33229  0.13120  1.0000
  C   C1332     1.0  0.82948  0.36063  0.13895  1.0000
  C   C1333     1.0  0.83759  0.36100  0.15528  1.0000
  C   C1334     1.0  0.85708  0.36017  0.15459  1.0000
  C   C1335     1.0  0.86875  0.35880  0.13753  1.0000
  C   C1336     1.0  0.86069  0.35822  0.12119  1.0000
  C   C1337     1.0  0.84112  0.35924  0.12185  1.0000
  H   H1324     1.0  0.82872  0.36198  0.16859  1.0000
  H   H1325     1.0  0.86305  0.36040  0.16732  1.0000
  H   H1326     1.0  0.86959  0.35702  0.10793  1.0000
  H   H1327     1.0  0.83508  0.35883  0.10919  1.0000
  H   H1328     1.0  0.91821  0.48394  0.18610  1.0000
  C   C1338     1.0  0.76467  0.43142  0.12133  1.0000
  C   C1339     1.0  0.77329  0.44436  0.12865  1.0000
  C   C1340     1.0  0.76855  0.46392  0.12379  1.0000
  H   H1329     1.0  0.92082  0.32677  0.12187  1.0000
  H   H1330     1.0  0.78354  0.43925  0.13819  1.0000
  C   C1341     1.0  0.77476  0.36757  0.03096  1.0000
  C   C1342     1.0  0.96181  0.43465  0.18772  1.0000
  H   H1331     1.0  0.96241  0.30972  0.14600  1.0000
  S   S442      1.0  0.77926  0.47981  0.13354  1.0000
  H   H1332     1.0  0.87957  0.35445  0.27328  1.0000
  C   C1343     1.0  0.77891  0.36100  0.01332  1.0000
  C   C1344     1.0  0.95914  0.36121  0.12134  1.0000
  H   H1333     1.0  0.79176  0.35175  0.01013  1.0000
  H   H1334     1.0  0.89204  0.32305  0.28548  1.0000
  N   N114      1.0  0.82818  0.40726  0.13385  1.0000
  C   C1345     1.0  0.82057  0.40849  0.15217  1.0000
  C   C1346     1.0  0.84711  0.40636  0.12878  1.0000
  C   C1347     1.0  0.83202  0.40866  0.16600  1.0000
  C   C1348     1.0  0.85897  0.40649  0.14225  1.0000
  C   C1349     1.0  0.85134  0.40768  0.16096  1.0000
  C   C1350     1.0  0.81598  0.40771  0.11941  1.0000
  H   H1335     1.0  0.80558  0.40896  0.15622  1.0000
  H   H1336     1.0  0.85318  0.40506  0.11434  1.0000
  H   H1337     1.0  0.82598  0.40927  0.18057  1.0000
  H   H1338     1.0  0.87402  0.40520  0.13833  1.0000
  H   H1339     1.0  0.86042  0.40755  0.17157  1.0000
  H   H1340     1.0  0.80245  0.40266  0.12570  1.0000
  H   H1341     1.0  0.81305  0.42235  0.11216  1.0000
  H   H1342     1.0  0.82245  0.39806  0.10893  1.0000
  H   H1343     1.0  0.98715  0.36081  0.12757  1.0000
  H   H1344     1.0  0.93132  0.35755  0.11765  1.0000
  C   C1351     1.0  0.74903  0.37689  0.00462  1.0000
  H   H1345     1.0  0.87177  0.37210  0.28850  1.0000
  C   C1352     1.0  0.94420  0.35073  0.12286  1.0000
  C   C1353     1.0  0.74618  0.45754  0.10464  1.0000
  H   H1346     1.0  0.93183  0.48833  0.30786  1.0000
  H   H1347     1.0  0.98221  0.35261  0.17680  1.0000
  H   H1348     1.0  0.76749  0.47349  0.05573  1.0000
  C   C1354     1.0  0.97421  0.41792  0.18778  1.0000
  S   S443      1.0  0.93331  0.47531  0.22135  1.0000
  C   C1355     1.0  0.87795  0.35020  0.32015  1.0000
  H   H1349     1.0  0.95910  0.46494  0.18676  1.0000
  C   C1356     1.0  0.75097  0.43800  0.10945  1.0000
  N   N115      1.0  0.91501  0.49448  0.28546  1.0000
  H   H1350     1.0  0.92358  0.47935  0.26172  1.0000
  C   C1357     1.0  0.96154  0.32405  0.13869  1.0000
  H   H1351     1.0  0.87074  0.36411  0.32252  1.0000
  H   H1352     1.0  0.96901  0.40448  0.18837  1.0000
  C   C1358     1.0  0.96868  0.45186  0.18674  1.0000
  H   H1353     1.0  0.85705  0.35421  0.28771  1.0000
  C   C1359     1.0  0.91503  0.49150  0.26722  1.0000
  C   C1360     1.0  0.83996  0.47483  0.15676  1.0000
  N   N116      1.0  0.88034  0.34466  0.30258  1.0000
  C   C1361     1.0  0.92962  0.32174  0.13339  1.0000
  H   H1354     1.0  0.76823  0.41637  0.12526  1.0000
  C   C1362     1.0  0.76610  0.36575  0.00009  1.0000
  H   H1355     1.0  0.84029  0.46104  0.15238  1.0000
  H   H1356     1.0  0.75103  0.48550  0.10821  1.0000
  C   C1363     1.0  0.74523  0.38397  0.02195  1.0000
  S   S444      1.0  0.74606  0.37199  0.08563  1.0000
  C   C1364     1.0  0.97677  0.33411  0.13734  1.0000
  C   C1365     1.0  0.88993  0.32733  0.29947  1.0000
  C   C1366     1.0  0.89751  0.31509  0.31416  1.0000
  H   H1357     1.0  0.76253  0.33292  0.06589  1.0000
  H   H1358     1.0  0.93839  0.47323  0.28982  1.0000
  C   C1367     1.0  0.85458  0.47866  0.16549  1.0000
  Fe  Fe219     1.0  0.74922  0.35062  0.11109  1.0000
  Fe  Fe220     1.0  0.92147  0.37175  0.32371  1.0000
  C   C1368     1.0  0.92623  0.48096  0.29791  1.0000
  H   H1359     1.0  0.86624  0.46765  0.16782  1.0000
  Fe  Fe221     1.0  0.75453  0.39239  0.10231  1.0000
  C   C1369     1.0  0.75818  0.37960  0.03494  1.0000
  H   H1360     1.0  0.90541  0.30152  0.31159  1.0000
  C   C1370     1.0  0.75507  0.47048  0.11166  1.0000
  H   H1361     1.0  0.93418  0.30638  0.13305  1.0000
  C   C1371     1.0  0.97557  0.35273  0.12843  1.0000
  H   H1362     1.0  0.94691  0.43428  0.18834  1.0000
  S   S445      1.0  0.75515  0.37167  0.12868  1.0000
  H   H1363     1.0  0.98928  0.32771  0.14350  1.0000
  H   H1364     1.0  0.87155  0.48977  0.19285  1.0000
  H   H1365     1.0  0.76253  0.30804  0.06502  1.0000
  H   H1366     1.0  0.88311  0.49797  0.16982  1.0000
  H   H1367     1.0  0.76958  0.47890  0.02212  1.0000
  H   H1368     1.0  0.75673  0.49178  0.06942  1.0000
  H   H1369     1.0  0.98821  0.39588  0.32114  1.0000
  H   H1370     1.0  0.78076  0.49182  0.05872  1.0000
  C   C1372     1.0  0.82498  0.48895  0.15363  1.0000
  C   C1373     1.0  0.75398  0.32102  0.06962  1.0000
  C   C1374     1.0  0.98796  0.45207  0.18575  1.0000
  H   H1371     1.0  0.81358  0.48626  0.14674  1.0000
  C   C1375     1.0  0.76674  0.48884  0.05669  1.0000
  H   H1372     1.0  0.74902  0.34280  0.03710  1.0000
  H   H1373     1.0  0.75067  0.31901  0.08525  1.0000
  C   C1376     1.0  0.99339  0.41862  0.18674  1.0000
  C   C1377     1.0  0.99346  0.37698  0.16079  1.0000
  C   C1378     1.0  0.76333  0.49343  0.02298  1.0000
  S   S446      1.0  0.98833  0.34491  0.32849  1.0000
  S   S447      1.0  0.94677  0.38425  0.32727  1.0000
  H   H1374     1.0  0.99316  0.46555  0.18483  1.0000
  S   S448      1.0  0.94864  0.38449  0.63873  1.0000
  H   H1375     1.0  0.79648  0.08640  0.37122  1.0000
  Fe  Fe222     1.0  0.93355  0.38574  0.35706  1.0000
  H   H1376     1.0  0.83830  0.00899  0.54019  1.0000
  S   S449      1.0  0.93927  0.40986  0.37134  1.0000
  Fe  Fe223     1.0  0.92161  0.34570  0.36081  1.0000
  H   H1377     1.0  0.97483  0.41032  0.38906  1.0000
  S   S450      1.0  0.90605  0.32326  0.37970  1.0000
  H   H1378     1.0  0.87128  0.08847  0.47877  1.0000
  H   H1379     1.0  0.97673  0.20458  0.40705  1.0000
  N   N117      1.0  0.87823  0.09365  0.38846  1.0000
  S   S451      1.0  0.94658  0.35653  0.36788  1.0000
  S   S452      1.0  0.90711  0.37524  0.35298  1.0000
  Fe  Fe224     1.0  0.85228  0.01563  0.44410  1.0000
  S   S453      1.0  0.82202  0.02704  0.44335  1.0000
  H   H1380     1.0  0.98716  0.21399  0.55429  1.0000
  Fe  Fe225     1.0  0.86384  0.05575  0.44268  1.0000
  S   S454      1.0  0.83435  0.06980  0.44235  1.0000
  S   S455      1.0  0.88872  0.07126  0.44331  1.0000
  Fe  Fe226     1.0  0.82656  0.04554  0.46395  1.0000
  S   S456      1.0  0.80637  0.04712  0.49040  1.0000
  Fe  Fe227     1.0  0.83269  0.05001  0.42172  1.0000
  S   S457      1.0  0.82073  0.06395  0.39548  1.0000
  S   S458      1.0  0.85613  0.03297  0.46625  1.0000
  S   S459      1.0  0.86292  0.03724  0.42050  1.0000
  Fe  Fe228     1.0  0.83522  0.06653  0.60544  1.0000
  S   S460      1.0  0.86513  0.05399  0.60749  1.0000
  S   S461      1.0  0.81153  0.06235  0.62884  1.0000
  Fe  Fe229     1.0  0.84345  0.08335  0.56506  1.0000
  S   S462      1.0  0.87392  0.07224  0.56341  1.0000
  S   S463      1.0  0.83213  0.10055  0.53976  1.0000
  Fe  Fe230     1.0  0.86440  0.04517  0.57913  1.0000
  S   S464      1.0  0.87512  0.01729  0.56776  1.0000
  Fe  Fe231     1.0  0.87203  0.08223  0.59166  1.0000
  S   S465      1.0  0.89564  0.09647  0.59850  1.0000
  S   S466      1.0  0.83413  0.05564  0.57833  1.0000
  S   S467      1.0  0.84207  0.09533  0.59210  1.0000
  Fe  Fe232     1.0  0.94226  0.23167  0.61005  1.0000
  S   S468      1.0  0.96756  0.22801  0.58846  1.0000
  H   H1381     1.0  0.97435  0.38600  0.38649  1.0000
  Fe  Fe233     1.0  0.92500  0.19988  0.59701  1.0000
  S   S469      1.0  0.94931  0.19433  0.57482  1.0000
  S   S470      1.0  0.89946  0.18455  0.59808  1.0000
  Fe  Fe234     1.0  0.96717  0.19699  0.59653  1.0000
  C   C1379     1.0  0.86235  0.11719  0.63836  1.0000
  Fe  Fe235     1.0  0.94780  0.22572  0.56843  1.0000
  S   S471      1.0  0.95532  0.23709  0.53797  1.0000
  S   S472      1.0  0.92211  0.23183  0.58913  1.0000
  Fe  Fe236     1.0  0.92279  0.19858  0.45648  1.0000
  S   S473      1.0  0.93062  0.16798  0.45233  1.0000
  S   S474      1.0  0.90894  0.20657  0.48466  1.0000
  Fe  Fe237     1.0  0.93421  0.21353  0.41523  1.0000
  S   S475      1.0  0.94210  0.18394  0.40762  1.0000
  S   S476      1.0  0.94458  0.23799  0.39450  1.0000
  Fe  Fe238     1.0  0.91611  0.17623  0.42652  1.0000
  S   S477      1.0  0.89477  0.15916  0.41924  1.0000
  Fe  Fe239     1.0  0.95587  0.17807  0.43396  1.0000
  S   S478      1.0  0.98548  0.16322  0.43116  1.0000
  S   S479      1.0  0.90678  0.20665  0.43166  1.0000
  S   S480      1.0  0.94935  0.20782  0.44066  1.0000
  C   C1380     1.0  0.86824  0.08371  0.64518  1.0000
  C   C1381     1.0  0.98362  0.39717  0.38513  1.0000
  C   C1382     1.0  0.94993  0.47967  0.65349  1.0000
  S   S481      1.0  0.91179  0.49658  0.34456  1.0000
  H   H1382     1.0  0.98011  0.18734  0.46077  1.0000
  H   H1383     1.0  0.94963  0.31134  0.65328  1.0000
  C   C1383     1.0  0.90060  0.47876  0.63117  1.0000
  C   C1384     1.0  0.93154  0.31582  0.63174  1.0000
  C   C1385     1.0  0.92051  0.47256  0.35123  1.0000
  H   H1384     1.0  0.88743  0.48352  0.63927  1.0000
  H   H1385     1.0  0.98927  0.18924  0.39077  1.0000
  C   C1386     1.0  0.94267  0.22830  0.52319  1.0000
  C   C1387     1.0  0.94995  0.22730  0.50425  1.0000
  C   C1388     1.0  0.93989  0.22030  0.49233  1.0000
  C   C1389     1.0  0.92227  0.21485  0.49921  1.0000
  C   C1390     1.0  0.91493  0.21609  0.51809  1.0000
  C   C1391     1.0  0.92526  0.22242  0.53016  1.0000
  H   H1386     1.0  0.96342  0.23186  0.49882  1.0000
  H   H1387     1.0  0.94567  0.21942  0.47783  1.0000
  H   H1388     1.0  0.90121  0.21212  0.52341  1.0000
  H   H1389     1.0  0.91952  0.22326  0.54474  1.0000
  C   C1392     1.0  0.89893  0.16005  0.59758  1.0000
  C   C1393     1.0  0.91476  0.14661  0.59927  1.0000
  C   C1394     1.0  0.91359  0.12728  0.59908  1.0000
  C   C1395     1.0  0.89669  0.12116  0.59696  1.0000
  C   C1396     1.0  0.88095  0.13465  0.59490  1.0000
  C   C1397     1.0  0.88204  0.15394  0.59541  1.0000
  H   H1390     1.0  0.92783  0.15105  0.60101  1.0000
  H   H1391     1.0  0.92585  0.11697  0.60074  1.0000
  H   H1392     1.0  0.86785  0.13017  0.59329  1.0000
  H   H1393     1.0  0.86972  0.16422  0.59407  1.0000
  C   C1398     1.0  0.88929  0.09610  0.43853  1.0000
  C   C1399     1.0  0.90580  0.10329  0.44007  1.0000
  C   C1400     1.0  0.90736  0.12273  0.43515  1.0000
  C   C1401     1.0  0.89247  0.13520  0.42842  1.0000
  C   C1402     1.0  0.87577  0.12808  0.42740  1.0000
  C   C1403     1.0  0.87413  0.10866  0.43253  1.0000
  H   H1394     1.0  0.91763  0.09371  0.44468  1.0000
  H   H1395     1.0  0.92032  0.12797  0.43592  1.0000
  H   H1396     1.0  0.86416  0.13762  0.42225  1.0000
  H   H1397     1.0  0.86130  0.10338  0.43137  1.0000
  C   C1404     1.0  0.81323  0.06211  0.50411  1.0000
  C   C1405     1.0  0.80887  0.05917  0.52372  1.0000
  C   C1406     1.0  0.81455  0.07105  0.53478  1.0000
  C   C1407     1.0  0.82425  0.08607  0.52618  1.0000
  C   C1408     1.0  0.82812  0.08933  0.50653  1.0000
  C   C1409     1.0  0.82292  0.07714  0.49551  1.0000
  H   H1398     1.0  0.80120  0.04766  0.53038  1.0000
  H   H1399     1.0  0.81095  0.06890  0.54990  1.0000
  H   H1400     1.0  0.83552  0.10103  0.49985  1.0000
  H   H1401     1.0  0.82616  0.07959  0.48037  1.0000
  H   H1402     1.0  0.89369  0.06767  0.39911  1.0000
  H   H1403     1.0  0.94164  0.42833  0.61872  1.0000
  C   C1410     1.0  0.84960  0.08218  0.64389  1.0000
  C   C1411     1.0  0.95900  0.46231  0.64805  1.0000
  C   C1412     1.0  0.78082  0.06902  0.45105  1.0000
  C   C1413     1.0  0.77413  0.05912  0.63016  1.0000
  C   C1414     1.0  0.79026  0.06537  0.61939  1.0000
  C   C1415     1.0  0.78955  0.07355  0.60070  1.0000
  H   H1404     1.0  0.77459  0.05283  0.64466  1.0000
  H   H1405     1.0  0.80170  0.07886  0.59242  1.0000
  C   C1416     1.0  0.79687  0.06366  0.39423  1.0000
  C   C1417     1.0  0.78620  0.05116  0.40650  1.0000
  H   H1406     1.0  0.79275  0.04081  0.41676  1.0000
  C   C1418     1.0  0.91631  0.29928  0.38249  1.0000
  C   C1419     1.0  0.90612  0.28550  0.39351  1.0000
  C   C1420     1.0  0.91441  0.26655  0.39711  1.0000
  C   C1421     1.0  0.93294  0.26123  0.38954  1.0000
  C   C1422     1.0  0.94293  0.27493  0.37815  1.0000
  C   C1423     1.0  0.93470  0.29387  0.37468  1.0000
  H   H1407     1.0  0.89185  0.28956  0.39954  1.0000
  H   H1408     1.0  0.90654  0.25611  0.40580  1.0000
  H   H1409     1.0  0.95723  0.27094  0.37215  1.0000
  H   H1410     1.0  0.94269  0.30433  0.36616  1.0000
  C   C1424     1.0  0.93244  0.43384  0.36262  1.0000
  H   H1411     1.0  0.97761  0.26361  0.60414  1.0000
  H   H1412     1.0  0.75881  0.04229  0.41478  1.0000
  H   H1413     1.0  0.95745  0.16509  0.54718  1.0000
  H   H1414     1.0  0.88346  0.34271  0.34908  1.0000
  C   C1425     1.0  0.89380  0.08270  0.39441  1.0000
  H   H1415     1.0  0.75967  0.09833  0.41709  1.0000
  H   H1416     1.0  0.89334  0.13669  0.38149  1.0000
  H   H1417     1.0  0.82286  0.09741  0.63828  1.0000
  H   H1418     1.0  0.95687  0.27670  0.65256  1.0000
  S   S482      1.0  0.92410  0.34023  0.63357  1.0000
  C   C1426     1.0  0.94026  0.27622  0.63044  1.0000
  H   H1419     1.0  0.98456  0.23298  0.63393  1.0000
  C   C1427     1.0  0.92398  0.30696  0.61914  1.0000
  C   C1428     1.0  0.92845  0.28731  0.61834  1.0000
  H   H1420     1.0  0.95301  0.44413  0.37553  1.0000
  H   H1421     1.0  0.91442  0.31531  0.61007  1.0000
  H   H1422     1.0  0.92231  0.28068  0.60874  1.0000
  H   H1423     1.0  0.85265  0.08514  0.40262  1.0000
  H   H1424     1.0  0.88017  0.09614  0.49794  1.0000
  C   C1429     1.0  0.94793  0.28512  0.64294  1.0000
  S   S483      1.0  0.94314  0.20011  0.61968  1.0000
  S   S484      1.0  0.94495  0.25116  0.63153  1.0000
  N   N118      1.0  0.88111  0.06621  0.49892  1.0000
  C   C1430     1.0  0.87015  0.06425  0.51598  1.0000
  C   C1431     1.0  0.89024  0.05057  0.49127  1.0000
  C   C1432     1.0  0.86821  0.04632  0.52593  1.0000
  C   C1433     1.0  0.88883  0.03239  0.50098  1.0000
  C   C1434     1.0  0.87781  0.03031  0.51848  1.0000
  C   C1435     1.0  0.88222  0.08512  0.48836  1.0000
  H   H1425     1.0  0.86301  0.07662  0.52210  1.0000
  H   H1426     1.0  0.89877  0.05206  0.47764  1.0000
  H   H1427     1.0  0.90087  0.31128  0.34367  1.0000
  H   H1428     1.0  0.89626  0.02004  0.49495  1.0000
  C   C1436     1.0  0.76919  0.07772  0.37978  1.0000
  H   H1429     1.0  0.88358  0.18017  0.53759  1.0000
  C   C1437     1.0  0.76695  0.05202  0.40539  1.0000
  C   C1438     1.0  0.95035  0.44573  0.65291  1.0000
  C   C1439     1.0  0.89357  0.17322  0.54749  1.0000
  H   H1430     1.0  0.76691  0.12222  0.56329  1.0000
  H   H1431     1.0  0.75455  0.02902  0.60474  1.0000
  C   C1440     1.0  0.93461  0.46591  0.61150  1.0000
  H   H1432     1.0  0.85957  0.04491  0.53951  1.0000
  H   H1433     1.0  0.95738  0.43252  0.64840  1.0000
  C   C1441     1.0  0.76101  0.08882  0.43010  1.0000
  H   H1434     1.0  0.85116  0.00755  0.60294  1.0000
  C   C1442     1.0  0.94922  0.16562  0.51970  1.0000
  C   C1443     1.0  0.77685  0.10877  0.53837  1.0000
  H   H1435     1.0  0.97264  0.46177  0.63971  1.0000
  H   H1436     1.0  0.75263  0.08040  0.52073  1.0000
  H   H1437     1.0  0.87784  0.07092  0.64814  1.0000
  C   C1444     1.0  0.76500  0.06279  0.46209  1.0000
  C   C1445     1.0  0.75558  0.08985  0.52991  1.0000
  H   H1438     1.0  0.93612  0.31162  0.41376  1.0000
  H   H1439     1.0  0.77287  0.08103  0.57807  1.0000
  H   H1440     1.0  0.89247  0.18251  0.55868  1.0000
  H   H1441     1.0  0.96343  0.16406  0.51254  1.0000
  H   H1442     1.0  0.84476  0.06840  0.64589  1.0000
  C   C1446     1.0  0.89376  0.10231  0.64477  1.0000
  H   H1443     1.0  0.92509  0.43151  0.60180  1.0000
  H   H1444     1.0  0.79033  0.11401  0.53605  1.0000
  H   H1445     1.0  0.94279  0.47814  0.36509  1.0000
  C   C1447     1.0  0.75741  0.06093  0.62212  1.0000
  C   C1448     1.0  0.77303  0.07513  0.59267  1.0000
  N   N119      1.0  0.92216  0.45348  0.61895  1.0000
  C   C1449     1.0  0.94381  0.30480  0.64342  1.0000
  H   H1446     1.0  0.92485  0.16943  0.56306  1.0000
  C   C1450     1.0  0.78338  0.01658  0.60487  1.0000
  N   N120      1.0  0.87438  0.10107  0.64246  1.0000
  H   H1447     1.0  0.92179  0.11694  0.39176  1.0000
  H   H1448     1.0  0.91031  0.42828  0.34855  1.0000
  C   C1451     1.0  0.83728  0.09851  0.63964  1.0000
  C   C1452     1.0  0.91756  0.43907  0.35200  1.0000
  C   C1453     1.0  0.94156  0.44804  0.36722  1.0000
  C   C1454     1.0  0.78831  0.07679  0.38081  1.0000
  H   H1449     1.0  0.88938  0.15929  0.55409  1.0000
  H   H1450     1.0  0.86724  0.13095  0.63601  1.0000
  C   C1455     1.0  0.75842  0.06543  0.39207  1.0000
  H   H1451     1.0  0.86462  0.07014  0.38557  1.0000
  H   H1452     1.0  0.85265  0.09274  0.37771  1.0000
  H   H1453     1.0  0.78291  0.09324  0.51451  1.0000
  C   C1456     1.0  0.92694  0.43346  0.61629  1.0000
  H   H1454     1.0  0.99398  0.39217  0.39519  1.0000
  H   H1455     1.0  0.94074  0.49471  0.60887  1.0000
  C   C1457     1.0  0.98709  0.20400  0.39420  1.0000
  H   H1456     1.0  0.79119  0.08653  0.42596  1.0000
  H   H1457     1.0  0.98316  0.33976  0.36936  1.0000
  H   H1458     1.0  0.76274  0.08803  0.36940  1.0000
  H   H1459     1.0  0.87689  0.01635  0.52641  1.0000
  H   H1460     1.0  0.92191  0.08217  0.40061  1.0000
  H   H1461     1.0  0.98387  0.25713  0.63798  1.0000
  C   C1458     1.0  0.98534  0.39651  0.35112  1.0000
  H   H1462     1.0  0.89611  0.08588  0.47973  1.0000
  H   H1463     1.0  0.90432  0.17082  0.51080  1.0000
  C   C1459     1.0  0.93231  0.44649  0.66279  1.0000
  H   H1464     1.0  0.79458  0.06336  0.45475  1.0000
  Fe  Fe240     1.0  0.93660  0.35753  0.65124  1.0000
  C   C1460     1.0  0.77273  0.09702  0.52634  1.0000
  C   C1461     1.0  0.91145  0.45834  0.34661  1.0000
  Fe  Fe241     1.0  0.95805  0.35451  0.33765  1.0000
  N   N121      1.0  0.74551  0.08295  0.44122  1.0000
  C   C1462     1.0  0.88518  0.33823  0.33519  1.0000
  C   C1463     1.0  0.90523  0.45969  0.62850  1.0000
  H   H1465     1.0  0.89542  0.10019  0.65996  1.0000
  H   H1466     1.0  0.86542  0.12162  0.37977  1.0000
  C   C1464     1.0  0.86125  0.08504  0.38860  1.0000
  C   C1465     1.0  0.89377  0.12141  0.38452  1.0000
  C   C1466     1.0  0.90983  0.09082  0.39529  1.0000
  C   C1467     1.0  0.87799  0.11281  0.38373  1.0000
  H   H1467     1.0  0.94810  0.46096  0.60409  1.0000
  H   H1468     1.0  0.89945  0.46224  0.33904  1.0000
  C   C1468     1.0  0.74662  0.10612  0.55669  1.0000
  H   H1469     1.0  0.78873  0.03010  0.60307  1.0000
  C   C1469     1.0  0.99320  0.24454  0.63346  1.0000
  H   H1470     1.0  0.91810  0.42433  0.62658  1.0000
  C   C1470     1.0  0.90976  0.11031  0.39035  1.0000
  C   C1471     1.0  0.75690  0.06894  0.60330  1.0000
  C   C1472     1.0  0.74732  0.06993  0.45692  1.0000
  C   C1473     1.0  0.77888  0.08216  0.43499  1.0000
  H   H1471     1.0  0.89549  0.44978  0.63473  1.0000
  H   H1472     1.0  0.76650  0.05229  0.47441  1.0000
  C   C1474     1.0  0.93580  0.46733  0.36132  1.0000
  C   C1475     1.0  0.84367  0.11615  0.63674  1.0000
  H   H1473     1.0  0.93656  0.16679  0.49442  1.0000
  H   H1474     1.0  0.97253  0.39012  0.35371  1.0000
  N   N122      1.0  0.91763  0.26825  0.44520  1.0000
  C   C1476     1.0  0.90651  0.28536  0.44385  1.0000
  C   C1477     1.0  0.93549  0.26654  0.43597  1.0000
  C   C1478     1.0  0.91305  0.30123  0.43265  1.0000
  C   C1479     1.0  0.94250  0.28215  0.42473  1.0000
  C   C1480     1.0  0.93116  0.29957  0.42303  1.0000
  C   C1481     1.0  0.91062  0.25188  0.45726  1.0000
  H   H1475     1.0  0.89239  0.28675  0.45123  1.0000
  H   H1476     1.0  0.94425  0.25295  0.43684  1.0000
  H   H1477     1.0  0.90401  0.31464  0.43096  1.0000
  H   H1478     1.0  0.95638  0.28058  0.41683  1.0000
  H   H1479     1.0  0.91321  0.25174  0.47202  1.0000
  H   H1480     1.0  0.89540  0.25208  0.45706  1.0000
  H   H1481     1.0  0.91757  0.23836  0.45237  1.0000
  N   N123      1.0  0.91275  0.17060  0.53784  1.0000
  C   C1482     1.0  0.92741  0.16876  0.54800  1.0000
  C   C1483     1.0  0.91592  0.16935  0.51893  1.0000
  C   C1484     1.0  0.94586  0.16630  0.53910  1.0000
  C   C1485     1.0  0.93417  0.16703  0.50955  1.0000
  H   H1482     1.0  0.83427  0.12891  0.63311  1.0000
  S   S485      1.0  0.93407  0.34162  0.33113  1.0000
  H   H1483     1.0  0.83560  0.01909  0.50610  1.0000
  Fe  Fe242     1.0  0.97147  0.37280  0.65641  1.0000
  H   H1484     1.0  0.90348  0.09141  0.63754  1.0000
  C   C1486     1.0  0.76422  0.01600  0.60589  1.0000
  N   N124      1.0  0.99305  0.40069  0.36581  1.0000
  C   C1487     1.0  0.79559  0.99960  0.60631  1.0000
  H   H1485     1.0  0.98106  0.21338  0.38233  1.0000
  H   H1486     1.0  0.98874  0.19433  0.63076  1.0000
  H   H1487     1.0  0.89807  0.11624  0.63825  1.0000
  C   C1488     1.0  0.76370  0.11343  0.55361  1.0000
  H   H1488     1.0  0.99123  0.21669  0.51946  1.0000
  C   C1489     1.0  0.99240  0.25878  0.60063  1.0000
  H   H1489     1.0  0.99270  0.27019  0.57121  1.0000
  H   H1490     1.0  0.89079  0.31352  0.65735  1.0000
  C   C1490     1.0  0.83703  0.00418  0.51171  1.0000
  C   C1491     1.0  0.89497  0.32055  0.33215  1.0000
  H   H1491     1.0  0.81048  0.00015  0.60556  1.0000
  H   H1492     1.0  0.74497  0.05621  0.63047  1.0000
  C   C1492     1.0  0.93048  0.48504  0.61400  1.0000
  C   C1493     1.0  0.91339  0.49145  0.62395  1.0000
  C   C1494     1.0  0.98609  0.41394  0.71322  1.0000
  S   S486      1.0  0.75718  0.40132  0.94161  1.0000
  N   N125      1.0  0.96981  0.40681  0.72064  1.0000
  H   H1493     1.0  0.93906  0.28578  0.71608  1.0000
  S   S487      1.0  0.75438  0.35626  0.94365  1.0000
  C   C1495     1.0  0.95220  0.43347  0.70422  1.0000
  H   H1494     1.0  0.92004  0.49806  0.85416  1.0000
  Fe  Fe243     1.0  0.77036  0.37804  0.92452  1.0000
  S   S488      1.0  0.80122  0.38215  0.91780  1.0000
  C   C1496     1.0  0.95983  0.44747  0.87569  1.0000
  Fe  Fe244     1.0  0.94479  0.36042  0.69054  1.0000
  H   H1495     1.0  0.77698  0.43860  0.88962  1.0000
  S   S489      1.0  0.94347  0.34535  0.72022  1.0000
  C   C1497     1.0  0.96873  0.44079  0.69649  1.0000
  H   H1496     1.0  0.91526  0.33339  0.69971  1.0000
  H   H1497     1.0  0.92992  0.47195  0.77632  1.0000
  C   C1498     1.0  0.98361  0.41360  0.87707  1.0000
  H   H1498     1.0  0.80199  0.49543  0.88737  1.0000
  S   S490      1.0  0.95817  0.38684  0.68156  1.0000
  H   H1499     1.0  0.85549  0.37621  0.92978  1.0000
  Fe  Fe245     1.0  0.91061  0.40685  0.84927  1.0000
  S   S491      1.0  0.91575  0.37901  0.86744  1.0000
  S   S492      1.0  0.90387  0.43360  0.86283  1.0000
  Fe  Fe246     1.0  0.91375  0.38874  0.81339  1.0000
  S   S493      1.0  0.91938  0.35935  0.82875  1.0000
  S   S494      1.0  0.91178  0.39900  0.78253  1.0000
  Fe  Fe247     1.0  0.89608  0.36932  0.85090  1.0000
  S   S495      1.0  0.87220  0.35226  0.86336  1.0000
  Fe  Fe248     1.0  0.93853  0.37199  0.84383  1.0000
  C   C1499     1.0  0.89292  0.45518  0.81683  1.0000
  S   S496      1.0  0.88935  0.39781  0.83446  1.0000
  S   S497      1.0  0.93445  0.40046  0.82675  1.0000
  S   S498      1.0  0.91972  0.37110  0.67566  1.0000
  H   H1500     1.0  0.90954  0.46440  0.67646  1.0000
  C   C1500     1.0  0.93945  0.48001  0.83696  1.0000
  C   C1501     1.0  0.94436  0.46180  0.83198  1.0000
  C   C1502     1.0  0.93354  0.44753  0.84006  1.0000
  C   C1503     1.0  0.91772  0.45138  0.85303  1.0000
  C   C1504     1.0  0.91293  0.46958  0.85827  1.0000
  C   C1505     1.0  0.92378  0.48397  0.85017  1.0000
  H   H1501     1.0  0.95659  0.45870  0.82190  1.0000
  H   H1502     1.0  0.93774  0.43354  0.83643  1.0000
  H   H1503     1.0  0.90078  0.47260  0.86847  1.0000
  H   H1504     1.0  0.89724  0.42897  0.80495  1.0000
  H   H1505     1.0  0.84274  0.30586  0.90654  1.0000
  C   C1506     1.0  0.89813  0.47334  0.81500  1.0000
  C   C1507     1.0  0.79425  0.48854  0.91720  1.0000
  C   C1508     1.0  0.78282  0.45837  0.92698  1.0000
  C   C1509     1.0  0.93370  0.35974  0.73775  1.0000
  C   C1510     1.0  0.93644  0.35361  0.75659  1.0000
  C   C1511     1.0  0.92950  0.36539  0.77058  1.0000
  C   C1512     1.0  0.91968  0.38328  0.76577  1.0000
  C   C1513     1.0  0.91666  0.38921  0.74698  1.0000
  C   C1514     1.0  0.92371  0.37752  0.73298  1.0000
  H   H1506     1.0  0.94415  0.33985  0.76036  1.0000
  H   H1507     1.0  0.93190  0.36070  0.78504  1.0000
  H   H1508     1.0  0.90888  0.40294  0.74323  1.0000
  H   H1509     1.0  0.92138  0.38227  0.71851  1.0000
  H   H1510     1.0  0.92105  0.43958  0.77902  1.0000
  H   H1511     1.0  0.92907  0.30816  0.72352  1.0000
  S   S499      1.0  0.95284  0.49763  0.82608  1.0000
  H   H1512     1.0  0.93882  0.44085  0.70076  1.0000
  N   N126      1.0  0.96467  0.41344  0.88010  1.0000
  C   C1515     1.0  0.90118  0.44305  0.80377  1.0000
  C   C1516     1.0  0.81894  0.37601  0.89930  1.0000
  C   C1517     1.0  0.83473  0.38566  0.89570  1.0000
  C   C1518     1.0  0.85068  0.37930  0.88362  1.0000
  C   C1519     1.0  0.85110  0.36301  0.87520  1.0000
  C   C1520     1.0  0.83500  0.35384  0.87810  1.0000
  C   C1521     1.0  0.81891  0.36038  0.88999  1.0000
  H   H1513     1.0  0.83489  0.39779  0.90281  1.0000
  H   H1514     1.0  0.86296  0.38650  0.88151  1.0000
  H   H1515     1.0  0.83520  0.34122  0.87163  1.0000
  H   H1516     1.0  0.80691  0.35275  0.89270  1.0000
  H   H1517     1.0  0.96825  0.45399  0.68698  1.0000
  C   C1522     1.0  0.92348  0.46370  0.66873  1.0000
  C   C1523     1.0  0.95302  0.41631  0.71621  1.0000
  H   H1518     1.0  0.79260  0.42588  0.90589  1.0000
  C   C1524     1.0  0.95692  0.39548  0.88256  1.0000
  H   H1519     1.0  0.89176  0.48260  0.82535  1.0000
  H   H1520     1.0  0.93777  0.42994  0.88182  1.0000
  H   H1521     1.0  0.92519  0.49344  0.66857  1.0000
  H   H1522     1.0  0.77726  0.44812  0.93820  1.0000
  S   S500      1.0  0.96069  0.34514  0.66704  1.0000
  C   C1525     1.0  0.90861  0.29264  0.67346  1.0000
  N   N127      1.0  0.78497  0.45509  0.90860  1.0000
  H   H1523     1.0  0.79394  0.46534  0.87991  1.0000
  C   C1526     1.0  0.89923  0.31072  0.66885  1.0000
  H   H1524     1.0  0.95253  0.39339  0.86907  1.0000
  C   C1527     1.0  0.93233  0.48018  0.66431  1.0000
  C   C1528     1.0  0.98729  0.37129  0.84680  1.0000
  H   H1525     1.0  0.98470  0.46117  0.86849  1.0000
  N   N128      1.0  0.92248  0.30409  0.69688  1.0000
  H   H1526     1.0  0.96843  0.37730  0.72424  1.0000
  C   C1529     1.0  0.99112  0.43073  0.87285  1.0000
  S   S501      1.0  0.91979  0.42673  0.66676  1.0000
  C   C1530     1.0  0.90154  0.32543  0.67841  1.0000
  Fe  Fe249     1.0  0.93442  0.39678  0.66478  1.0000
  H   H1527     1.0  0.85117  0.36239  0.95277  1.0000
  C   C1531     1.0  0.93542  0.30103  0.71103  1.0000
  H   H1528     1.0  0.94845  0.30719  0.70495  1.0000
  C   C1532     1.0  0.79660  0.48500  0.89854  1.0000
  C   C1533     1.0  0.92040  0.28959  0.68748  1.0000
  H   H1529     1.0  0.92812  0.27564  0.69048  1.0000
  H   H1530     1.0  0.83207  0.37526  0.94085  1.0000
  C   C1534     1.0  0.78057  0.43720  0.90419  1.0000
  C   C1535     1.0  0.97029  0.38845  0.73261  1.0000
  S   S502      1.0  0.96771  0.35864  0.85012  1.0000
  H   H1531     1.0  0.94014  0.41057  0.72176  1.0000
  C   C1536     1.0  0.78734  0.47516  0.93154  1.0000
  H   H1532     1.0  0.81583  0.31821  0.92886  1.0000
  H   H1533     1.0  0.97357  0.39738  0.83358  1.0000
  N   N129      1.0  0.84522  0.34995  0.93000  1.0000
  C   C1537     1.0  0.86019  0.34306  0.91802  1.0000
  C   C1538     1.0  0.82959  0.34096  0.93422  1.0000
  C   C1539     1.0  0.85958  0.32702  0.90953  1.0000
  C   C1540     1.0  0.82850  0.32489  0.92597  1.0000
  C   C1541     1.0  0.84358  0.31795  0.91350  1.0000
  C   C1542     1.0  0.84610  0.36673  0.93885  1.0000
  H   H1534     1.0  0.87245  0.35036  0.91432  1.0000
  H   H1535     1.0  0.81760  0.34662  0.94347  1.0000
  H   H1536     1.0  0.76817  0.43267  0.91370  1.0000
  H   H1537     1.0  0.87112  0.32223  0.89928  1.0000
  C   C1543     1.0  0.91953  0.46731  0.78776  1.0000
  C   C1544     1.0  0.79196  0.46804  0.89445  1.0000
  N   N130      1.0  0.91141  0.47911  0.80069  1.0000
  H   H1538     1.0  0.95036  0.46063  0.87499  1.0000
  C   C1545     1.0  0.95280  0.43007  0.87957  1.0000
  H   H1539     1.0  0.76909  0.36019  0.98674  1.0000
  C   C1546     1.0  0.91459  0.44908  0.78915  1.0000
  C   C1547     1.0  0.97911  0.44776  0.87208  1.0000
  H   H1540     1.0  0.94460  0.39542  0.89364  1.0000
  H   H1541     1.0  0.98373  0.38432  0.73853  1.0000
  H   H1542     1.0  0.88284  0.45038  0.82855  1.0000
  H   H1543     1.0  0.89476  0.33964  0.67446  1.0000
  H   H1544     1.0  0.78519  0.47793  0.94610  1.0000
  H   H1545     1.0  0.95892  0.38889  0.74471  1.0000
  C   C1548     1.0  0.98630  0.39025  0.83869  1.0000
  H   H1546     1.0  0.90743  0.28128  0.66559  1.0000
  H   H1547     1.0  0.96735  0.38316  0.88660  1.0000
  C   C1549     1.0  0.91329  0.32184  0.69249  1.0000
  C   C1550     1.0  0.98582  0.43095  0.70097  1.0000
  S   S503      1.0  0.74911  0.38473  0.90420  1.0000
  S   S504      1.0  0.74563  0.49538  0.95809  1.0000
  H   H1548     1.0  0.93168  0.49830  0.79421  1.0000
  H   H1549     1.0  0.99306  0.40043  0.87736  1.0000
  C   C1551     1.0  0.91640  0.49834  0.79859  1.0000
  C   C1552     1.0  0.82795  0.56146  0.05031  1.0000
  Fe  Fe250     1.0  0.79311  0.52894  0.07945  1.0000
  S   S505      1.0  0.78944  0.55717  0.08969  1.0000
  S   S506      1.0  0.80517  0.52187  0.05044  1.0000
  Fe  Fe251     1.0  0.80214  0.54178  0.11515  1.0000
  S   S507      1.0  0.82268  0.55417  0.12921  1.0000
  H   H1550     1.0  0.93300  0.58434  0.22113  1.0000
  Fe  Fe252     1.0  0.92054  0.52839  0.17004  1.0000
  S   S508      1.0  0.90508  0.52055  0.19864  1.0000
  S   S509      1.0  0.90656  0.52360  0.14519  1.0000
  Fe  Fe253     1.0  0.95517  0.53592  0.18698  1.0000
  S   S510      1.0  0.94155  0.52819  0.21662  1.0000
  H   H1551     1.0  0.97484  0.55964  0.28507  1.0000
  H   H1552     1.0  0.84957  0.52953  0.04756  1.0000
  N   N131      1.0  0.83829  0.55195  0.06393  1.0000
  Fe  Fe254     1.0  0.91577  0.54514  0.20690  1.0000
  S   S511      1.0  0.89610  0.56586  0.22298  1.0000
  S   S512      1.0  0.94785  0.51049  0.17632  1.0000
  S   S513      1.0  0.92941  0.55460  0.17780  1.0000
  C   C1553     1.0  0.89298  0.51972  0.26216  1.0000
  H   H1553     1.0  0.78165  0.55816  0.04695  1.0000
  S   S514      1.0  0.90792  0.58299  0.30306  1.0000
  C   C1554     1.0  0.83946  0.56006  0.07954  1.0000
  C   C1555     1.0  0.94840  0.58406  0.25213  1.0000
  H   H1554     1.0  0.97599  0.55248  0.22706  1.0000
  H   H1555     1.0  0.95112  0.56846  0.21029  1.0000
  C   C1556     1.0  0.90008  0.56987  0.24525  1.0000
  C   C1557     1.0  0.88960  0.58539  0.25296  1.0000
  C   C1558     1.0  0.89216  0.58917  0.27070  1.0000
  C   C1559     1.0  0.90491  0.57720  0.28111  1.0000
  C   C1560     1.0  0.91530  0.56145  0.27357  1.0000
  C   C1561     1.0  0.91314  0.55798  0.25545  1.0000
  H   H1556     1.0  0.87951  0.59464  0.24511  1.0000
  H   H1557     1.0  0.88411  0.60138  0.27642  1.0000
  H   H1558     1.0  0.92531  0.55222  0.28143  1.0000
  H   H1559     1.0  0.92136  0.54600  0.24954  1.0000
  N   N132      1.0  0.95561  0.57438  0.23723  1.0000
  H   H1560     1.0  0.86818  0.51446  0.18324  1.0000
  H   H1561     1.0  0.83818  0.52237  0.07076  1.0000
  C   C1562     1.0  0.84589  0.54507  0.13365  1.0000
  C   C1563     1.0  0.85424  0.55366  0.14585  1.0000
  C   C1564     1.0  0.87260  0.54700  0.14986  1.0000
  C   C1565     1.0  0.88305  0.53195  0.14129  1.0000
  C   C1566     1.0  0.87469  0.52332  0.12909  1.0000
  C   C1567     1.0  0.85615  0.52967  0.12544  1.0000
  H   H1562     1.0  0.84646  0.56558  0.15229  1.0000
  H   H1563     1.0  0.87883  0.55384  0.15922  1.0000
  C   C1568     1.0  0.89277  0.52245  0.28087  1.0000
  H   H1564     1.0  0.84989  0.52275  0.11619  1.0000
  C   C1569     1.0  0.81875  0.57974  0.05195  1.0000
  C   C1570     1.0  0.79906  0.52931  0.01357  1.0000
  C   C1571     1.0  0.79550  0.53573  0.03125  1.0000
  C   C1572     1.0  0.78447  0.55310  0.03334  1.0000
  S   S515      1.0  0.76475  0.52193  0.09247  1.0000
  C   C1573     1.0  0.75329  0.51913  0.04067  1.0000
  H   H1565     1.0  0.83108  0.58442  0.09434  1.0000
  H   H1566     1.0  0.84716  0.55236  0.09064  1.0000
  H   H1567     1.0  0.94897  0.58623  0.28150  1.0000
  H   H1568     1.0  0.88430  0.53467  0.28631  1.0000
  C   C1574     1.0  0.97708  0.55438  0.25620  1.0000
  C   C1575     1.0  0.84727  0.53253  0.06242  1.0000
  H   H1569     1.0  0.82652  0.55481  0.03821  1.0000
  C   C1576     1.0  0.77712  0.56404  0.01771  1.0000
  C   C1577     1.0  0.83043  0.57830  0.08166  1.0000
  H   H1570     1.0  0.80768  0.51593  0.01187  1.0000
  H   H1571     1.0  0.76861  0.57750  0.01934  1.0000
  C   C1578     1.0  0.96997  0.55990  0.23899  1.0000
  Fe  Fe255     1.0  0.92415  0.56130  0.32201  1.0000
  H   H1572     1.0  0.90360  0.51176  0.30698  1.0000
  C   C1579     1.0  0.82006  0.58821  0.06773  1.0000
  Fe  Fe256     1.0  0.77934  0.50925  0.11760  1.0000
  C   C1580     1.0  0.86995  0.49975  0.17973  1.0000
  S   S516      1.0  0.80804  0.51419  0.10357  1.0000
  Fe  Fe257     1.0  0.76163  0.54941  0.10461  1.0000
  S   S517      1.0  0.77409  0.53613  0.13106  1.0000
  C   C1581     1.0  0.94841  0.58019  0.21909  1.0000
  H   H1573     1.0  0.86109  0.53003  0.06768  1.0000
  C   C1582     1.0  0.82473  0.50661  0.15935  1.0000
  H   H1574     1.0  0.93698  0.59551  0.25078  1.0000
  H   H1575     1.0  0.83926  0.52378  0.17234  1.0000
  H   H1576     1.0  0.88264  0.51161  0.12244  1.0000
  C   C1583     1.0  0.78036  0.55745  0.00008  1.0000
  C   C1584     1.0  0.75032  0.52352  0.00748  1.0000
  S   S518      1.0  0.93905  0.53326  0.31529  1.0000
  C   C1585     1.0  0.83951  0.50991  0.16817  1.0000
  S   S519      1.0  0.98207  0.54806  0.18805  1.0000
  C   C1586     1.0  0.95515  0.57888  0.26956  1.0000
  H   H1577     1.0  0.81266  0.60221  0.06941  1.0000
  H   H1578     1.0  0.81033  0.58707  0.04125  1.0000
  C   C1587     1.0  0.74784  0.53079  0.02460  1.0000
  H   H1579     1.0  0.88476  0.52985  0.25291  1.0000
  H   H1580     1.0  0.81332  0.51782  0.15671  1.0000
  Fe  Fe258     1.0  0.93249  0.50444  0.20530  1.0000
  C   C1588     1.0  0.96954  0.56389  0.27159  1.0000
  N   N133      1.0  0.76070  0.50064  0.03976  1.0000
  H   H1581     1.0  0.75188  0.52509  0.05377  1.0000
  C   C1589     1.0  0.75810  0.50472  0.00662  1.0000
  S   S520      1.0  0.99178  0.53328  0.31660  1.0000
  H   H1582     1.0  0.95530  0.59223  0.21110  1.0000
  C   C1590     1.0  0.90387  0.50957  0.29243  1.0000
  H   H1583     1.0  0.90441  0.50179  0.24078  1.0000
  C   C1591     1.0  0.90412  0.50411  0.25529  1.0000
  C   C1592     1.0  0.79138  0.54006  0.99804  1.0000
  H   H1584     1.0  0.98835  0.54278  0.25760  1.0000
  Fe  Fe259     1.0  0.96193  0.54030  0.32932  1.0000
  Fe  Fe260     1.0  0.92623  0.74264  0.58794  1.0000
  S   S521      1.0  0.92796  0.71501  0.57597  1.0000
  S   S522      1.0  0.89972  0.76403  0.58753  1.0000
  Fe  Fe261     1.0  0.96634  0.73403  0.59696  1.0000
  S   S523      1.0  0.97141  0.70661  0.58505  1.0000
  H   H1585     1.0  0.92127  0.73061  0.52240  1.0000
  Fe  Fe262     1.0  0.95599  0.72225  0.56169  1.0000
  S   S524      1.0  0.96769  0.72147  0.53108  1.0000
  Fe  Fe263     1.0  0.94316  0.70140  0.60066  1.0000
  S   S525      1.0  0.94577  0.67301  0.61975  1.0000
  S   S526      1.0  0.95344  0.75042  0.57218  1.0000
  S   S527      1.0  0.93888  0.72837  0.61387  1.0000
  Fe  Fe264     1.0  0.95692  0.70428  0.41590  1.0000
  S   S528      1.0  0.95402  0.67407  0.42765  1.0000
  C   C1593     1.0  0.98977  0.54399  0.37716  1.0000
  Fe  Fe265     1.0  0.91505  0.71788  0.42371  1.0000
  S   S529      1.0  0.90898  0.68829  0.43533  1.0000
  S   S530      1.0  0.88935  0.74040  0.42447  1.0000
  Fe  Fe266     1.0  0.93396  0.68700  0.45045  1.0000
  S   S531      1.0  0.93137  0.67574  0.48146  1.0000
  Fe  Fe267     1.0  0.92953  0.67786  0.41141  1.0000
  S   S532      1.0  0.92581  0.65881  0.38996  1.0000
  S   S533      1.0  0.93901  0.71702  0.44010  1.0000
  S   S534      1.0  0.93344  0.70771  0.39838  1.0000
  H   H1586     1.0  0.80955  0.96374  0.62240  1.0000
  S   S535      1.0  0.91415  0.59350  0.64116  1.0000
  H   H1587     1.0  0.88613  0.77251  0.38547  1.0000
  S   S536      1.0  0.95692  0.55618  0.64022  1.0000
  S   S537      1.0  0.95107  0.52689  0.35814  1.0000
  H   H1588     1.0  0.75439  0.88818  0.38895  1.0000
  H   H1589     1.0  0.74443  0.82281  0.38731  1.0000
  S   S538      1.0  0.86172  0.98412  0.45126  1.0000
  Fe  Fe268     1.0  0.93578  0.55625  0.36123  1.0000
  S   S539      1.0  0.93547  0.56988  0.38775  1.0000
  Fe  Fe269     1.0  0.85129  0.91329  0.59254  1.0000
  S   S540      1.0  0.82795  0.91062  0.57667  1.0000
  S   S541      1.0  0.84706  0.93962  0.60729  1.0000
  Fe  Fe270     1.0  0.87251  0.87456  0.58367  1.0000
  S   S542      1.0  0.85102  0.86959  0.56669  1.0000
  S   S543      1.0  0.89815  0.85270  0.58726  1.0000
  Fe  Fe271     1.0  0.85074  0.90031  0.55504  1.0000
  S   S544      1.0  0.84883  0.91260  0.52494  1.0000
  Fe  Fe272     1.0  0.83016  0.88032  0.59005  1.0000
  S   S545      1.0  0.80643  0.86327  0.60153  1.0000
  S   S546      1.0  0.87425  0.90470  0.56985  1.0000
  S   S547      1.0  0.85168  0.88355  0.60799  1.0000
  Fe  Fe273     1.0  0.81942  0.86158  0.46014  1.0000
  S   S548      1.0  0.84756  0.87158  0.45137  1.0000
  S   S549      1.0  0.80563  0.86086  0.49008  1.0000
  Fe  Fe274     1.0  0.81515  0.85551  0.42082  1.0000
  S   S550      1.0  0.84271  0.86551  0.40888  1.0000
  S   S551      1.0  0.80057  0.84449  0.40029  1.0000
  Fe  Fe275     1.0  0.85343  0.84726  0.43412  1.0000
  S   S552      1.0  0.88139  0.82817  0.43205  1.0000
  Fe  Fe276     1.0  0.83403  0.88874  0.42724  1.0000
  S   S553      1.0  0.83284  0.91999  0.41554  1.0000
  S   S554      1.0  0.82633  0.83597  0.44493  1.0000
  S   S555      1.0  0.80551  0.87996  0.43710  1.0000
  C   C1594     1.0  0.85503  0.96107  0.59606  1.0000
  C   C1595     1.0  0.86654  0.96204  0.57875  1.0000
  C   C1596     1.0  0.87265  0.97935  0.57027  1.0000
  C   C1597     1.0  0.78788  0.91108  0.40004  1.0000
  C   C1598     1.0  0.75061  0.87734  0.59971  1.0000
  C   C1599     1.0  0.84951  0.97759  0.60470  1.0000
  H   H1590     1.0  0.87102  0.94939  0.57205  1.0000
  H   H1591     1.0  0.76463  0.96840  0.61193  1.0000
  N   N134      1.0  0.84456  0.79925  0.39577  1.0000
  H   H1592     1.0  0.84091  0.97690  0.61827  1.0000
  C   C1600     1.0  0.83360  0.90085  0.51584  1.0000
  C   C1601     1.0  0.82391  0.88724  0.52753  1.0000
  C   C1602     1.0  0.81424  0.87562  0.51972  1.0000
  C   C1603     1.0  0.81410  0.87783  0.50022  1.0000
  C   C1604     1.0  0.82243  0.89252  0.48874  1.0000
  C   C1605     1.0  0.83240  0.90388  0.49650  1.0000
  H   H1593     1.0  0.82422  0.88528  0.54255  1.0000
  H   H1594     1.0  0.80767  0.86439  0.52869  1.0000
  H   H1595     1.0  0.82164  0.89482  0.47377  1.0000
  H   H1596     1.0  0.83972  0.91450  0.48736  1.0000
  H   H1597     1.0  0.95531  0.64041  0.64556  1.0000
  C   C1606     1.0  0.84050  0.93753  0.42621  1.0000
  C   C1607     1.0  0.83549  0.95674  0.41956  1.0000
  H   H1598     1.0  0.97564  0.59107  0.62332  1.0000
  H   H1599     1.0  0.82691  0.96052  0.40827  1.0000
  H   H1600     1.0  0.83644  0.99494  0.48497  1.0000
  C   C1608     1.0  0.76401  0.85439  0.41653  1.0000
  C   C1609     1.0  0.77624  0.84380  0.40395  1.0000
  H   H1601     1.0  0.89794  0.72793  0.46235  1.0000
  C   C1610     1.0  0.97662  0.63581  0.60058  1.0000
  H   H1602     1.0  0.76951  0.86298  0.42485  1.0000
  C   C1611     1.0  0.84012  0.97930  0.53783  1.0000
  C   C1612     1.0  0.89698  0.71664  0.49173  1.0000
  H   H1603     1.0  0.97462  0.54606  0.38025  1.0000
  C   C1613     1.0  0.76836  0.86690  0.60139  1.0000
  C   C1614     1.0  0.78414  0.87626  0.60004  1.0000
  C   C1615     1.0  0.78203  0.89602  0.59746  1.0000
  C   C1616     1.0  0.76443  0.90640  0.59569  1.0000
  H   H1604     1.0  0.76992  0.85159  0.60353  1.0000
  H   H1605     1.0  0.79392  0.90333  0.59708  1.0000
  H   H1606     1.0  0.76300  0.92171  0.59351  1.0000
  C   C1617     1.0  0.86195  0.79620  0.62553  1.0000
  S   S556      1.0  0.96023  0.50056  0.64490  1.0000
  H   H1607     1.0  0.98371  0.64806  0.60025  1.0000
  C   C1618     1.0  0.88952  0.60291  0.39585  1.0000
  H   H1608     1.0  0.84047  0.82900  0.39659  1.0000
  H   H1609     1.0  0.98189  0.71947  0.43972  1.0000
  C   C1619     1.0  0.75587  0.87634  0.52047  1.0000
  N   N135      1.0  0.89198  0.61015  0.36211  1.0000
  C   C1620     1.0  0.88231  0.80273  0.38581  1.0000
  H   H1610     1.0  0.89713  0.80397  0.38275  1.0000
  H   H1611     1.0  0.89006  0.61466  0.33245  1.0000
  C   C1621     1.0  0.85044  0.81664  0.39390  1.0000
  C   C1622     1.0  0.84786  0.81125  0.62181  1.0000
  C   C1623     1.0  0.88788  0.76406  0.42915  1.0000
  C   C1624     1.0  0.90361  0.77354  0.42674  1.0000
  C   C1625     1.0  0.90146  0.79306  0.42829  1.0000
  C   C1626     1.0  0.88360  0.80326  0.43222  1.0000
  C   C1627     1.0  0.86797  0.79358  0.43535  1.0000
  C   C1628     1.0  0.87012  0.77409  0.43386  1.0000
  H   H1612     1.0  0.91735  0.76603  0.42297  1.0000
  H   H1613     1.0  0.91365  0.80041  0.42586  1.0000
  H   H1614     1.0  0.85418  0.80117  0.43854  1.0000
  H   H1615     1.0  0.85788  0.76686  0.43585  1.0000
  C   C1629     1.0  0.93198  0.63402  0.38961  1.0000
  C   C1630     1.0  0.93262  0.62117  0.40614  1.0000
  C   C1631     1.0  0.93447  0.60151  0.40529  1.0000
  C   C1632     1.0  0.93582  0.59449  0.38795  1.0000
  C   C1633     1.0  0.93613  0.60731  0.37137  1.0000
  C   C1634     1.0  0.93412  0.62693  0.37223  1.0000
  H   H1616     1.0  0.93088  0.62638  0.41963  1.0000
  H   H1617     1.0  0.93427  0.59172  0.41821  1.0000
  H   H1618     1.0  0.93739  0.60217  0.35792  1.0000
  H   H1619     1.0  0.93370  0.63674  0.35936  1.0000
  C   C1635     1.0  0.90018  0.78881  0.58537  1.0000
  C   C1636     1.0  0.88373  0.80120  0.58248  1.0000
  C   C1637     1.0  0.88300  0.82084  0.58258  1.0000
  C   C1638     1.0  0.89877  0.82830  0.58558  1.0000
  C   C1639     1.0  0.91535  0.81598  0.58795  1.0000
  C   C1640     1.0  0.91610  0.79634  0.58779  1.0000
  H   H1620     1.0  0.87135  0.79552  0.58058  1.0000
  H   H1621     1.0  0.87014  0.83012  0.58072  1.0000
  H   H1622     1.0  0.92765  0.82159  0.59021  1.0000
  H   H1623     1.0  0.92886  0.78699  0.59003  1.0000
  C   C1641     1.0  0.93525  0.65189  0.62645  1.0000
  C   C1642     1.0  0.94349  0.63777  0.63940  1.0000
  C   C1643     1.0  0.93696  0.62006  0.64415  1.0000
  C   C1644     1.0  0.92189  0.61621  0.63617  1.0000
  C   C1645     1.0  0.91326  0.63050  0.62353  1.0000
  C   C1646     1.0  0.91994  0.64826  0.61863  1.0000
  H   H1624     1.0  0.89126  0.63939  0.35098  1.0000
  H   H1625     1.0  0.83048  0.94631  0.50110  1.0000
  H   H1626     1.0  0.90151  0.62773  0.61737  1.0000
  H   H1627     1.0  0.91333  0.65904  0.60875  1.0000
  C   C1647     1.0  0.95878  0.70727  0.51780  1.0000
  C   C1648     1.0  0.96351  0.70962  0.49816  1.0000
  C   C1649     1.0  0.95545  0.69968  0.48695  1.0000
  C   C1650     1.0  0.94280  0.68715  0.49533  1.0000
  C   C1651     1.0  0.93866  0.68420  0.51505  1.0000
  C   C1652     1.0  0.94651  0.69437  0.52629  1.0000
  H   H1628     1.0  0.97321  0.71938  0.49156  1.0000
  H   H1629     1.0  0.95912  0.70165  0.47182  1.0000
  H   H1630     1.0  0.92898  0.67440  0.52158  1.0000
  H   H1631     1.0  0.94291  0.69241  0.54144  1.0000
  N   N136      1.0  0.87168  0.85299  0.51243  1.0000
  C   C1653     1.0  0.87572  0.87083  0.51288  1.0000
  C   C1654     1.0  0.87957  0.83789  0.52377  1.0000
  C   C1655     1.0  0.88763  0.87397  0.52519  1.0000
  C   C1656     1.0  0.89188  0.84046  0.53595  1.0000
  C   C1657     1.0  0.89578  0.85865  0.53677  1.0000
  C   C1658     1.0  0.85880  0.84985  0.49986  1.0000
  H   H1632     1.0  0.86962  0.88283  0.50382  1.0000
  H   H1633     1.0  0.87635  0.82375  0.52344  1.0000
  H   H1634     1.0  0.89034  0.88824  0.52585  1.0000
  H   H1635     1.0  0.89826  0.82846  0.54483  1.0000
  H   H1636     1.0  0.90502  0.86088  0.54644  1.0000
  H   H1637     1.0  0.86586  0.83980  0.48997  1.0000
  H   H1638     1.0  0.84629  0.84418  0.50820  1.0000
  H   H1639     1.0  0.85370  0.86319  0.49124  1.0000
  C   C1659     1.0  0.85177  0.93285  0.44068  1.0000
  S   S557      1.0  0.91028  0.55006  0.35040  1.0000
  C   C1660     1.0  0.87614  0.78510  0.38731  1.0000
  H   H1640     1.0  0.99279  0.61859  0.62122  1.0000
  H   H1641     1.0  0.87411  0.83232  0.38847  1.0000
  C   C1661     1.0  0.85830  0.94725  0.44808  1.0000
  C   C1662     1.0  0.98179  0.61926  0.61250  1.0000
  H   H1642     1.0  0.98494  0.65638  0.40015  1.0000
  S   S558      1.0  0.94816  0.56970  0.33315  1.0000
  H   H1643     1.0  0.85949  0.78188  0.62477  1.0000
  N   N137      1.0  0.96229  0.63681  0.59010  1.0000
  H   H1644     1.0  0.83776  0.98584  0.42194  1.0000
  C   C1663     1.0  0.95278  0.62163  0.59121  1.0000
  H   H1645     1.0  0.80297  0.90978  0.39941  1.0000
  H   H1646     1.0  0.94106  0.62261  0.58337  1.0000
  H   H1647     1.0  0.91081  0.60004  0.33944  1.0000
  H   H1648     1.0  0.74875  0.93891  0.41470  1.0000
  C   C1664     1.0  0.74454  0.85401  0.41810  1.0000
  C   C1665     1.0  0.89553  0.60368  0.34351  1.0000
  H   H1649     1.0  0.76674  0.87376  0.49136  1.0000
  H   H1650     1.0  0.88774  0.70641  0.49096  1.0000
  C   C1666     1.0  0.88203  0.81762  0.63018  1.0000
  N   N138      1.0  0.87884  0.79955  0.62943  1.0000
  C   C1667     1.0  0.83738  0.99045  0.49985  1.0000
  H   H1651     1.0  0.98481  0.56625  0.33626  1.0000
  Fe  Fe277     1.0  0.93162  0.56944  0.65748  1.0000
  C   C1668     1.0  0.88761  0.62218  0.39742  1.0000
  C   C1669     1.0  0.75767  0.92732  0.40861  1.0000
  H   H1652     1.0  0.89250  0.77924  0.64903  1.0000
  H   H1653     1.0  0.88186  0.97989  0.55706  1.0000
  H   H1654     1.0  0.90752  0.78758  0.62808  1.0000
  H   H1655     1.0  0.89193  0.77130  0.62662  1.0000
  H   H1656     1.0  0.85404  0.95034  0.49139  1.0000
  H   H1657     1.0  0.92959  0.76886  0.49253  1.0000
  C   C1670     1.0  0.85708  0.78360  0.39233  1.0000
  C   C1671     1.0  0.88792  0.63538  0.38119  1.0000
  C   C1672     1.0  0.89024  0.62907  0.36353  1.0000
  H   H1658     1.0  0.94169  0.65897  0.58093  1.0000
  N   N139      1.0  0.78887  0.98255  0.60866  1.0000
  C   C1673     1.0  0.76901  0.83263  0.39335  1.0000
  H   H1659     1.0  0.87117  0.84730  0.62651  1.0000
  H   H1660     1.0  0.77525  0.95221  0.41848  1.0000
  H   H1661     1.0  0.84038  0.84156  0.61911  1.0000
  H   H1662     1.0  0.78893  0.88548  0.38754  1.0000
  C   C1674     1.0  0.97215  0.60375  0.61371  1.0000
  H   H1663     1.0  0.79505  0.95215  0.61111  1.0000
  H   H1664     1.0  0.83443  0.96354  0.48078  1.0000
  C   C1675     1.0  0.78537  0.93964  0.41514  1.0000
  H   H1665     1.0  0.81948  0.80454  0.41439  1.0000
  H   H1666     1.0  0.86746  0.94345  0.45886  1.0000
  C   C1676     1.0  0.95750  0.60491  0.60307  1.0000
  H   H1667     1.0  0.88674  0.62686  0.41112  1.0000
  C   C1677     1.0  0.86826  0.83297  0.62658  1.0000
  H   H1668     1.0  0.96009  0.65167  0.56264  1.0000
  S   S559      1.0  0.98866  0.74209  0.61152  1.0000
  H   H1669     1.0  0.98951  0.67672  0.38315  1.0000
  C   C1678     1.0  0.85327  0.96646  0.44143  1.0000
  N   N140      1.0  0.77672  0.92583  0.40758  1.0000
  H   H1670     1.0  0.85257  0.76971  0.39411  1.0000
  C   C1679     1.0  0.80205  0.96503  0.60989  1.0000
  C   C1680     1.0  0.86940  0.81865  0.38903  1.0000
  H   H1671     1.0  0.94380  0.60932  0.65382  1.0000
  C   C1681     1.0  0.82465  0.79765  0.40149  1.0000
  S   S560      1.0  0.98526  0.71059  0.40133  1.0000
  H   H1672     1.0  0.81643  0.80496  0.39012  1.0000
  H   H1673     1.0  0.82191  0.78269  0.40470  1.0000
  N   N141      1.0  0.92237  0.74134  0.49314  1.0000
  C   C1682     1.0  0.91604  0.73026  0.50921  1.0000
  C   C1683     1.0  0.91561  0.74098  0.47658  1.0000
  C   C1684     1.0  0.90335  0.71766  0.50873  1.0000
  H   H1674     1.0  0.94771  0.75226  0.48166  1.0000
  C   C1685     1.0  0.84168  0.97114  0.42725  1.0000
  C   C1686     1.0  0.93628  0.75392  0.49356  1.0000
  H   H1675     1.0  0.89421  0.58206  0.37684  1.0000
  C   C1687     1.0  0.74937  0.91387  0.40181  1.0000
  H   H1676     1.0  0.77835  0.82445  0.38359  1.0000
  C   C1688     1.0  0.89181  0.59710  0.37797  1.0000
  H   H1677     1.0  0.99090  0.51880  0.36429  1.0000
  H   H1678     1.0  0.89551  0.82035  0.63294  1.0000
  H   H1679     1.0  0.94297  0.75044  0.50673  1.0000
  H   H1680     1.0  0.92035  0.75000  0.46388  1.0000
  C   C1689     1.0  0.74977  0.83176  0.39539  1.0000
  H   H1681     1.0  0.85584  0.91814  0.44582  1.0000
  C   C1690     1.0  0.85108  0.82975  0.62231  1.0000
  H   H1682     1.0  0.88741  0.65032  0.38227  1.0000
  H   H1683     1.0  0.89902  0.70828  0.52130  1.0000
  C   C1691     1.0  0.78004  0.89733  0.39324  1.0000
  C   C1692     1.0  0.90288  0.72858  0.47562  1.0000
  N   N142      1.0  0.83886  0.97163  0.50691  1.0000
  C   C1693     1.0  0.84042  0.96596  0.52558  1.0000
  Fe  Fe278     1.0  0.95186  0.52829  0.65747  1.0000
  H   H1684     1.0  0.79131  0.93289  0.42819  1.0000
  C   C1694     1.0  0.75433  0.87659  0.50139  1.0000
  H   H1685     1.0  0.83463  0.80867  0.61826  1.0000
  C   C1695     1.0  0.83946  0.95730  0.49442  1.0000
  H   H1686     1.0  0.84192  0.95103  0.53111  1.0000
  H   H1687     1.0  0.84123  0.97470  0.55263  1.0000
  H   H1688     1.0  0.76968  0.87343  0.52494  1.0000
  C   C1696     1.0  0.76066  0.89881  0.39409  1.0000
  Fe  Fe279     1.0  0.92682  0.52202  0.34444  1.0000
  C   C1697     1.0  0.83845  0.99853  0.53082  1.0000
  C   C1698     1.0  0.95688  0.65417  0.57762  1.0000
  H   H1689     1.0  0.91029  0.50614  0.62646  1.0000
  H   H1690     1.0  0.94938  0.59320  0.60460  1.0000
  C   C1699     1.0  0.85535  0.99496  0.59608  1.0000
  H   H1691     1.0  0.81260  0.96499  0.59709  1.0000
  C   C1700     1.0  0.89336  0.78365  0.63359  1.0000
  H   H1692     1.0  0.89021  0.59247  0.40830  1.0000
  C   C1701     1.0  0.86709  0.99587  0.57889  1.0000
  H   H1693     1.0  0.99313  0.56909  0.38840  1.0000
  H   H1694     1.0  0.96425  0.66601  0.57955  1.0000
  H   H1695     1.0  0.75522  0.87144  0.55708  1.0000
  C   C1702     1.0  0.77007  0.98187  0.60987  1.0000
  C   C1703     1.0  0.75748  0.99856  0.60850  1.0000
  H   H1696     1.0  0.79701  0.94471  0.40475  1.0000
  H   H1697     1.0  0.88864  0.59095  0.34349  1.0000
  C   C1704     1.0  0.74875  0.89713  0.59667  1.0000
  C   C1705     1.0  0.85541  0.57610  0.83365  1.0000
  S   S561      1.0  0.78299  0.52978  0.94776  1.0000
  H   H1698     1.0  0.95493  0.60598  0.76492  1.0000
  S   S562      1.0  0.77016  0.57250  0.92589  1.0000
  Fe  Fe280     1.0  0.78372  0.54407  0.91777  1.0000
  S   S563      1.0  0.80773  0.53636  0.89477  1.0000
  Fe  Fe281     1.0  0.76750  0.55739  0.95568  1.0000
  C   C1706     1.0  0.88638  0.60610  0.86148  1.0000
  S   S564      1.0  0.75611  0.53548  0.91401  1.0000
  C   C1707     1.0  0.84888  0.58017  0.85191  1.0000
  Fe  Fe282     1.0  0.94170  0.52578  0.83533  1.0000
  S   S565      1.0  0.96929  0.53228  0.67915  1.0000
  S   S566      1.0  0.94679  0.57524  0.68035  1.0000
  Fe  Fe283     1.0  0.94238  0.54579  0.69389  1.0000
  S   S567      1.0  0.93836  0.53338  0.72461  1.0000
  H   H1699     1.0  0.79412  0.53499  0.98447  1.0000
  H   H1700     1.0  0.87708  0.61693  0.86912  1.0000
  Fe  Fe284     1.0  0.91530  0.55125  0.85990  1.0000
  S   S568      1.0  0.91242  0.54020  0.83323  1.0000
  S   S569      1.0  0.89155  0.55620  0.88383  1.0000
  Fe  Fe285     1.0  0.95611  0.55919  0.84587  1.0000
  S   S570      1.0  0.95583  0.54929  0.81810  1.0000
  N   N143      1.0  0.87553  0.59619  0.85159  1.0000
  Fe  Fe286     1.0  0.92686  0.56466  0.81843  1.0000
  S   S571      1.0  0.91749  0.58201  0.79213  1.0000
  S   S572      1.0  0.77006  0.57107  0.98109  1.0000
  C   C1708     1.0  0.87207  0.58222  0.82441  1.0000
  S   S573      1.0  0.92800  0.57697  0.84477  1.0000
  H   H1701     1.0  0.96711  0.58850  0.70966  1.0000
  C   C1709     1.0  0.93035  0.54713  0.74300  1.0000
  C   C1710     1.0  0.93105  0.53831  0.76155  1.0000
  C   C1711     1.0  0.92661  0.54892  0.77668  1.0000
  C   C1712     1.0  0.92108  0.56842  0.77337  1.0000
  C   C1713     1.0  0.91960  0.57719  0.75487  1.0000
  C   C1714     1.0  0.92439  0.56657  0.73964  1.0000
  H   H1702     1.0  0.93571  0.52329  0.76415  1.0000
  H   H1703     1.0  0.92783  0.54204  0.79087  1.0000
  H   H1704     1.0  0.91529  0.59229  0.75225  1.0000
  H   H1705     1.0  0.92372  0.57345  0.72534  1.0000
  C   C1715     1.0  0.83117  0.54139  0.89242  1.0000
  C   C1716     1.0  0.83706  0.55178  0.90473  1.0000
  C   C1717     1.0  0.85568  0.55579  0.90210  1.0000
  C   C1718     1.0  0.86865  0.54956  0.88712  1.0000
  C   C1719     1.0  0.86280  0.53907  0.87486  1.0000
  C   C1720     1.0  0.84418  0.53502  0.87752  1.0000
  H   H1706     1.0  0.82727  0.55676  0.91627  1.0000
  H   H1707     1.0  0.86005  0.56388  0.91170  1.0000
  H   H1708     1.0  0.87259  0.53419  0.86328  1.0000
  H   H1709     1.0  0.83979  0.52695  0.86793  1.0000
  S   S574      1.0  0.94371  0.53444  0.86339  1.0000
  H   H1710     1.0  0.97492  0.55547  0.72427  1.0000
  H   H1711     1.0  0.74671  0.53262  0.99482  1.0000
  C   C1721     1.0  0.97101  0.56660  0.73320  1.0000
  H   H1712     1.0  0.91323  0.50434  0.81216  1.0000
  H   H1713     1.0  0.89370  0.59576  0.87188  1.0000
  H   H1714     1.0  0.84768  0.56803  0.82679  1.0000
  Fe  Fe287     1.0  0.75469  0.52327  0.94441  1.0000
  C   C1722     1.0  0.96643  0.58522  0.72487  1.0000
  H   H1715     1.0  0.89706  0.61339  0.85162  1.0000
  C   C1723     1.0  0.88199  0.59234  0.83363  1.0000
  C   C1724     1.0  0.85927  0.59012  0.86079  1.0000
  H   H1716     1.0  0.85454  0.59249  0.87529  1.0000
  H   H1717     1.0  0.87745  0.57902  0.81025  1.0000
  H   H1718     1.0  0.89497  0.59693  0.82632  1.0000
  H   H1719     1.0  0.83617  0.57509  0.85945  1.0000
  H   H1720     1.0  0.96824  0.53994  0.77530  1.0000
  H   H1721     1.0  0.90865  0.50775  0.78792  1.0000
  S   S575      1.0  0.98145  0.57235  0.84988  1.0000
  C   C1725     1.0  0.96475  0.57636  0.76367  1.0000
  N   N144      1.0  0.97006  0.56237  0.75237  1.0000
  C   C1726     1.0  0.97558  0.54286  0.76074  1.0000
  C   C1727     1.0  0.95982  0.59509  0.75583  1.0000
  H   H1722     1.0  0.96368  0.57303  0.77889  1.0000
  H   H1723     1.0  0.97173  0.53258  0.75242  1.0000
  H   H1724     1.0  0.95678  0.61396  0.73001  1.0000
  C   C1728     1.0  0.96072  0.59952  0.73629  1.0000
  H   H1725     1.0  0.99089  0.54035  0.76114  1.0000
  S   S576      1.0  0.92463  0.54080  0.67261  1.0000
  H   H1726     1.0  0.99366  0.55995  0.69301  1.0000
  H   H1727     1.0  0.79782  0.50165  0.92047  1.0000
  H   H1728     1.0  0.76024  0.49903  0.99329  1.0000
  Fe  Fe288     1.0  0.97171  0.56113  0.66343  1.0000
