data_image0
_chemical_formula_structural       FeS2FeS2FeSFeS3FeS2FeS2FeSFeS3FeS2NHCH3FeS2NHFeH3CH2SHNHCHCHCH2C6H6C3HCH2NC3H5C2H3C6H5C2H2CH2C2HNSH3SC4HC2H2CH2C3HC2H2C4HCHC2HC2H2CHCFeC4H2SFeHC3S2H5C2HC7FeS2FeS2FeSFeS3FeS2FeS2FeSFeS3HSCH2SC4HC2H3C2H2C3H2C6H6C4HC2H2CH3C3H2CHC7H6SHSHFeCH2CH2N2HC3H2NHCHC2H2NC6H7NC6H4CH5S2CHC2H3CNH2CH2CFeCHC2HC4H2CH3FeSHFeS2FeSFeS3CSH2CHFeS2FeS2FeHNHS2FeS2FeS2FeSFeS3CSNC3H4CNHCHC2H2C6H4CHSHC2HC2HC2HC2H2CH2C7H4CFeCNHCH2CHC2HC3H3C3HCHCHCHCSHNC4HCH3SH4CH3C2HC3FeH2CHCFeHNC3HC2H3CH4C3H3CNHCHCHFeS2FeS2FeSFeS3C2SFeS2FeS2FeS2FeSFeS3C2HC2SHCHCHCHCH2C2HCH2C6H4CHNHC8H7C2HCH3C3H5CHCHCH3CHC2HNC6H11CH2CHC7H2FeHC4HCNCH2C2HCHSFeH2C2HCHCNSFeS2FeS2FeSFeS3FeS2FeS2FeSFeS3FeS2CHCH2SFeS2C4H3C4HSCHCHCHCHFeHC6H4C2H4CHC5FeH2CNC6H4SFeH3CSH3CH4NC6H9CSCHCNSCHCHCH3NHCH6CSNC4H2C2H2C5HC2HCHCHCFe2S2FeS2FeSFeS3FeS2FeS2FeSFeS3HSCHSH3CHC3H2C6H4C4H3C2HCH2C4HC6H4CHC4H2CSNC4H2CH4NHNCSCHFeCH6CHC2HC2SC2HCH4CHCNC3NCH3C2HCHNCH7CH5C5HCHCHFeH2CHCHCHCH2C2H2CHCFeS2FeS2FeSFeS3FeS2C4SH2FeS2FeHCHSHFeS2FeS2FeSFeS3FeNC5HCHC7H4CHC4NH2CSFeH5C2HSC6H3C3HC6H3CHNC6H12CHC2HC2H3CH2NH2SC2HC2HC2NH2CH2CSC2NCH3CH7C2H3C3SC2HCHFeCHCHFeS2FeS2FeSFeS3CS2HSFeS2FeS2FeSFeS3C3H2C3HC3H2C6H4C2HC4H5C6H4C3NH3FeH5CH3C4HCH2CHCHCHCNH3CH2CH3C4H2CH2C4HC2HCHC2NHNHC2H4C2H2CHC2H2CH2CH2NC2NHFeCSCH4SHCHC2H3FeS2FeS2FeSFeS3FeS2FeS2FeSFeS3FeSHFeSCFeS2FeS2HFeHFeHS2CNC3H2C2H4CHSNH3CHCSCHC3HCH3C6H4C6H4C2H2C2HSC2HCNHC3SC2HCHCHNC6H8NC2H3CHC2HC2H2NC6H5CHCHCH2CNCHNCHCHC2HCFeHC4HCHCH5CHC2HCSHC4HCH2FeS2FeSCFeSFeS3FeS2FeS2FeSFeS3HSCSH2C4HCHCH7C3SHC6H4C3H3CHC6H4C3HCH4CH2SNC5NCHC3FeNCHCH5CH2NC2HCNC6H4C2H2NC6H7CH2CHC2HCHCSH2CHCH4CH3CHCFeSHFeS2FeSFeS3HFeS2FeSFeCSH2SCFeSCFeS2FeS2FeS2FeSFeS3C5H4CH2NC7H4CH2CH3C5FeCSH3C6H4C3HC3SCFeCNH2SH3C3NC3H4C2SH2SHC2NC6H6CHC2HCNH2CHNC6H6CH3NHC3HCH3C2H3FeS2FeS2FeSFeS3CSCHSFeS2FeS2FeSFeS3H2C4H4C4HCH2C7H7C3H4C6H5C6H2CH2CH3C2H2CH3CHC3HNC4HCNHC2HCHCHCHC2HCH2CHC3HCH2CH2NCHC2H2CHC2HNHNCH2CH2NH2CH3C3H3CH7FeHSHC2FeS2FeS2FeSFeS3FeS2FeS2FeSFeS3FeS2FeHC2FeCFeS2CNFeSHSC6HC3H7C6H5NCH2C2HC3H2CHC2HCFeHC6H6CH2C2HSCH2CHCH2SCNH2C2H2CH3C2HSHC4HC2HCHC3HCSHCH4C3HNCNCNH2CH3C2H3CH2CSHC2H2FeS2FeS2FeSFeS3FeS2FeS2FeSFeS3CS2CS2CHNHCHC2HC2HC2H2C6H4C2H3C2H2CH2C2H2CH3C6H4C6HC2H2N2HC3H3C2FeH2CHNH2CH2CHC3HCNH2CNC2H2C2H3NC2H5CH2C2HCH3CFeH2CSC3HCHC2HCHCH3FeH2C2HFeS2FeS2FeSFeS3FeS2Fe2H3CFeS2HCSCHCFeS2FeS2FeSFeS3HCSHC4HC6H4NCH4SCSH2CHCHCHC4H4C6H4C3H4CH2C4HCHC2FeNCH2SH2CHCH2CHCHNC6H8C2HNC2HCHSCSC3H2C2H2C2H6NH2C2FeS2FeS2FeSFeS3FeHS2CSFeS2FeS2FeSFeS3C2HCH2CSHC2HCH2C6H4N2C2HCH3C7H4NSC3NHC4H2CHNC6H8CH2C2HC2H2C2HFeCH2NH5CH2C2HCH2C2H2CHC2H3CH3CH6C4
_chemical_formula_sum              "Fe192 S384 N96 H1152 C1152"
_cell_length_a       58.1355
_cell_length_b       58.4723
_cell_length_c       72.0264
_cell_angle_alpha    86.499
_cell_angle_beta     86.4587
_cell_angle_gamma    85.7837

_space_group_name_H-M_alt    "P 1"
_space_group_IT_number       1

loop_
  _space_group_symop_operation_xyz
  'x, y, z'

loop_
  _atom_site_type_symbol
  _atom_site_label
  _atom_site_symmetry_multiplicity
  _atom_site_fract_x
  _atom_site_fract_y
  _atom_site_fract_z
  _atom_site_occupancy
  Fe  Fe1       1.0  0.40789  0.10473  0.17410  1.0000
  S   S1        1.0  0.41708  0.07016  0.16277  1.0000
  S   S2        1.0  0.38831  0.13301  0.15707  1.0000
  Fe  Fe2       1.0  0.42845  0.09020  0.21212  1.0000
  S   S3        1.0  0.43916  0.05465  0.20331  1.0000
  S   S4        1.0  0.44134  0.10097  0.23929  1.0000
  Fe  Fe3       1.0  0.45064  0.07195  0.17610  1.0000
  S   S5        1.0  0.48424  0.06287  0.16028  1.0000
  Fe  Fe4       1.0  0.40464  0.05612  0.19096  1.0000
  S   S6        1.0  0.38244  0.02613  0.19560  1.0000
  S   S7        1.0  0.44257  0.10765  0.18544  1.0000
  S   S8        1.0  0.39269  0.09056  0.20173  1.0000
  Fe  Fe5       1.0  0.12328  0.38141  0.17660  1.0000
  S   S9        1.0  0.08709  0.38143  0.16731  1.0000
  S   S10       1.0  0.15670  0.37445  0.15884  1.0000
  Fe  Fe6       1.0  0.10644  0.39233  0.21735  1.0000
  S   S11       1.0  0.06907  0.39289  0.21098  1.0000
  S   S12       1.0  0.11804  0.40660  0.24369  1.0000
  Fe  Fe7       1.0  0.07974  0.36203  0.19466  1.0000
  S   S13       1.0  0.06128  0.32946  0.19593  1.0000
  Fe  Fe8       1.0  0.07968  0.41225  0.18442  1.0000
  S   S14       1.0  0.05856  0.44463  0.17649  1.0000
  S   S15       1.0  0.11661  0.35962  0.20305  1.0000
  S   S16       1.0  0.11640  0.41386  0.19166  1.0000
  Fe  Fe9       1.0  0.19825  0.36998  0.04962  1.0000
  S   S17       1.0  0.23610  0.36943  0.05413  1.0000
  S   S18       1.0  0.16676  0.37109  0.07034  1.0000
  N   N1        1.0  0.31697  0.34109  0.04993  1.0000
  H   H1        1.0  0.36044  0.10645  0.13785  1.0000
  C   C1        1.0  0.19543  0.47296  0.05078  1.0000
  H   H2        1.0  0.28920  0.36561  0.05673  1.0000
  H   H3        1.0  0.16044  0.32402  0.13921  1.0000
  H   H4        1.0  0.28379  0.26734  0.04753  1.0000
  Fe  Fe10      1.0  0.40605  0.18420  0.04741  1.0000
  S   S19       1.0  0.41621  0.22086  0.04287  1.0000
  S   S20       1.0  0.41610  0.15860  0.07145  1.0000
  N   N2        1.0  0.36097  0.07267  0.15093  1.0000
  H   H5        1.0  0.39447  0.05289  0.10602  1.0000
  Fe  Fe11      1.0  0.38578  0.22633  0.02424  1.0000
  H   H6        1.0  0.14509  0.44809  0.04661  1.0000
  H   H7        1.0  0.41292  0.01889  0.16280  1.0000
  H   H8        1.0  0.10112  0.44932  0.21924  1.0000
  C   C2        1.0  0.40740  0.00246  0.16833  1.0000
  H   H9        1.0  0.46140  0.16704  0.05512  1.0000
  H   H10       1.0  0.32236  0.24682  0.04173  1.0000
  S   S21       1.0  0.37428  0.19033  0.03052  1.0000
  H   H11       1.0  0.29214  0.32475  0.06826  1.0000
  N   N3        1.0  0.19493  0.43669  0.06834  1.0000
  H   H12       1.0  0.37108  0.31873  0.03851  1.0000
  C   C3        1.0  0.34875  0.08033  0.16811  1.0000
  H   H13       1.0  0.34415  0.35244  0.03111  1.0000
  C   C4        1.0  0.34698  0.30311  0.05841  1.0000
  H   H14       1.0  0.14527  0.30424  0.18773  1.0000
  C   C5        1.0  0.25836  0.47616  0.04055  1.0000
  H   H15       1.0  0.35314  0.06847  0.18028  1.0000
  H   H16       1.0  0.16826  0.30658  0.17005  1.0000
  C   C6        1.0  0.15949  0.37548  0.13413  1.0000
  C   C7        1.0  0.14046  0.38042  0.12324  1.0000
  C   C8        1.0  0.14311  0.37925  0.10373  1.0000
  C   C9        1.0  0.16480  0.37338  0.09486  1.0000
  C   C10       1.0  0.18393  0.36891  0.10571  1.0000
  C   C11       1.0  0.18125  0.36991  0.12525  1.0000
  H   H17       1.0  0.12361  0.38471  0.12988  1.0000
  H   H18       1.0  0.12819  0.38273  0.09546  1.0000
  H   H19       1.0  0.20068  0.36415  0.09912  1.0000
  H   H20       1.0  0.19606  0.36598  0.13357  1.0000
  H   H21       1.0  0.20004  0.42086  0.09521  1.0000
  H   H22       1.0  0.48550  0.11274  0.21691  1.0000
  C   C12       1.0  0.07793  0.46621  0.17325  1.0000
  C   C13       1.0  0.10036  0.46076  0.16601  1.0000
  C   C14       1.0  0.11716  0.47665  0.16609  1.0000
  H   H23       1.0  0.15552  0.33201  0.18063  1.0000
  C   C15       1.0  0.14219  0.32302  0.14308  1.0000
  H   H24       1.0  0.10487  0.44410  0.16054  1.0000
  H   H25       1.0  0.13468  0.47206  0.16096  1.0000
  N   N4        1.0  0.13486  0.31859  0.16128  1.0000
  C   C16       1.0  0.02599  0.30889  0.18247  1.0000
  C   C17       1.0  0.03325  0.32961  0.18793  1.0000
  C   C18       1.0  0.09534  0.32279  0.15286  1.0000
  H   H26       1.0  0.32982  0.08118  0.16665  1.0000
  H   H27       1.0  0.03787  0.29374  0.18240  1.0000
  H   H28       1.0  0.02314  0.36516  0.19241  1.0000
  H   H29       1.0  0.38235  0.09430  0.10927  1.0000
  H   H30       1.0  0.35385  0.09761  0.17130  1.0000
  C   C19       1.0  0.01767  0.34912  0.18808  1.0000
  C   C20       1.0  0.15180  0.31512  0.17563  1.0000
  H   H31       1.0  0.09008  0.33076  0.12375  1.0000
  H   H32       1.0  0.16543  0.48283  0.03526  1.0000
  H   H33       1.0  0.48533  0.03751  0.19601  1.0000
  C   C21       1.0  0.39635  0.14032  0.13335  1.0000
  C   C22       1.0  0.41458  0.12820  0.12383  1.0000
  C   C23       1.0  0.42021  0.13408  0.10492  1.0000
  C   C24       1.0  0.40780  0.15216  0.09527  1.0000
  C   C25       1.0  0.38947  0.16423  0.10475  1.0000
  C   C26       1.0  0.38376  0.15827  0.12369  1.0000
  H   H34       1.0  0.42439  0.11432  0.13104  1.0000
  H   H35       1.0  0.43439  0.12461  0.09771  1.0000
  H   H36       1.0  0.37976  0.17815  0.09752  1.0000
  H   H37       1.0  0.36959  0.16772  0.13092  1.0000
  H   H38       1.0  0.20257  0.40156  0.07647  1.0000
  C   C27       1.0  0.11177  0.31862  0.16628  1.0000
  C   C28       1.0  0.32474  0.30491  0.06688  1.0000
  H   H39       1.0  0.38423  0.02421  0.13172  1.0000
  H   H40       1.0  0.10591  0.31562  0.18076  1.0000
  C   C29       1.0  0.11146  0.49819  0.17314  1.0000
  H   H41       1.0  0.01253  0.42277  0.16972  1.0000
  H   H42       1.0  0.36275  0.03725  0.16028  1.0000
  C   C30       1.0  0.42945  0.09279  0.26183  1.0000
  C   C31       1.0  0.37907  0.04232  0.13292  1.0000
  H   H43       1.0  0.01247  0.46224  0.16263  1.0000
  N   N5        1.0  0.12673  0.47379  0.21808  1.0000
  S   S22       1.0  0.26385  0.31190  0.03570  1.0000
  H   H44       1.0  0.01783  0.41674  0.19381  1.0000
  H   H45       1.0  0.22544  0.41949  0.07916  1.0000
  H   H46       1.0  0.05442  0.49250  0.18493  1.0000
  S   S23       1.0  0.25523  0.42935  0.04058  1.0000
  C   C32       1.0  0.17350  0.47007  0.04483  1.0000
  C   C33       1.0  0.37797  0.08157  0.12031  1.0000
  C   C34       1.0  0.35410  0.32047  0.04566  1.0000
  C   C35       1.0  0.08664  0.48254  0.22679  1.0000
  H   H47       1.0  0.47495  0.22661  0.04655  1.0000
  C   C36       1.0  0.29637  0.27501  0.03784  1.0000
  C   C37       1.0  0.24997  0.45809  0.03145  1.0000
  H   H48       1.0  0.49132  0.10711  0.17347  1.0000
  H   H49       1.0  0.09755  0.36413  0.25741  1.0000
  C   C38       1.0  0.10266  0.32712  0.13425  1.0000
  H   H50       1.0  0.22317  0.45815  0.06692  1.0000
  H   H51       1.0  0.20454  0.48793  0.04586  1.0000
  C   C39       1.0  0.11258  0.39384  0.26638  1.0000
  C   C40       1.0  0.49255  0.22445  0.04078  1.0000
  C   C41       1.0  0.16213  0.45062  0.05115  1.0000
  H   H52       1.0  0.40103  0.07592  0.25237  1.0000
  C   C42       1.0  0.36694  0.04980  0.14908  1.0000
  C   C43       1.0  0.17307  0.43413  0.06315  1.0000
  H   H53       1.0  0.14325  0.44002  0.21853  1.0000
  H   H54       1.0  0.46457  0.01900  0.17309  1.0000
  C   C44       1.0  0.31827  0.26325  0.03453  1.0000
  C   C45       1.0  0.33875  0.33942  0.04150  1.0000
  C   C46       1.0  0.48978  0.16259  0.03466  1.0000
  C   C47       1.0  0.40957  0.08057  0.26438  1.0000
  H   H55       1.0  0.48568  0.08766  0.20357  1.0000
  C   C48       1.0  0.36573  0.08839  0.13661  1.0000
  H   H56       1.0  0.06923  0.47702  0.22898  1.0000
  C   C49       1.0  0.33506  0.27325  0.02252  1.0000
  C   C50       1.0  0.47999  0.16681  0.05239  1.0000
  H   H57       1.0  0.47885  0.15991  0.02342  1.0000
  C   C51       1.0  0.14528  0.45735  0.21157  1.0000
  C   C52       1.0  0.25411  0.49925  0.03401  1.0000
  H   H58       1.0  0.35839  0.28786  0.06111  1.0000
  H   H59       1.0  0.16416  0.41901  0.06793  1.0000
  C   C53       1.0  0.10476  0.46694  0.22117  1.0000
  H   H60       1.0  0.26828  0.47228  0.05271  1.0000
  C   C54       1.0  0.49426  0.17136  0.06647  1.0000
  Fe  Fe12      1.0  0.23717  0.39854  0.03211  1.0000
  C   C55       1.0  0.12623  0.32715  0.12927  1.0000
  C   C56       1.0  0.30982  0.32407  0.06238  1.0000
  C   C57       1.0  0.29081  0.29684  0.02917  1.0000
  C   C58       1.0  0.38478  0.05838  0.11853  1.0000
  H   H61       1.0  0.13216  0.33101  0.11490  1.0000
  H   H62       1.0  0.14482  0.45617  0.19626  1.0000
  S   S24       1.0  0.20340  0.34462  0.02719  1.0000
  Fe  Fe13      1.0  0.24187  0.34600  0.03019  1.0000
  H   H63       1.0  0.07702  0.32303  0.15698  1.0000
  C   C59       1.0  0.07184  0.48820  0.17945  1.0000
  C   C60       1.0  0.20591  0.45603  0.06268  1.0000
  C   C61       1.0  0.20632  0.41888  0.08048  1.0000
  S   S25       1.0  0.19911  0.40036  0.02910  1.0000
  S   S26       1.0  0.42813  0.17215  0.02266  1.0000
  H   H64       1.0  0.48642  0.17507  0.08011  1.0000
  H   H65       1.0  0.30946  0.37556  0.03890  1.0000
  H   H66       1.0  0.31873  0.29108  0.07625  1.0000
  H   H67       1.0  0.00387  0.32126  0.22164  1.0000
  H   H68       1.0  0.16253  0.46253  0.21478  1.0000
  C   C62       1.0  0.30054  0.36023  0.04455  1.0000
  C   C63       1.0  0.13122  0.49612  0.22017  1.0000
  H   H69       1.0  0.28949  0.35485  0.03377  1.0000
  C   C64       1.0  0.49684  0.09924  0.20999  1.0000
  C   C65       1.0  0.49678  0.21871  0.02223  1.0000
  C   C66       1.0  0.50242  0.04261  0.19195  1.0000
  C   C67       1.0  0.00472  0.42409  0.18412  1.0000
  C   C68       1.0  0.10241  0.37287  0.26924  1.0000
  C   C69       1.0  0.39260  0.00117  0.18435  1.0000
  C   C70       1.0  0.00337  0.30747  0.17728  1.0000
  Fe  Fe14      1.0  0.40278  0.08424  0.39015  1.0000
  S   S27       1.0  0.43978  0.07959  0.39792  1.0000
  S   S28       1.0  0.36923  0.08846  0.40824  1.0000
  Fe  Fe15      1.0  0.41625  0.07871  0.34778  1.0000
  S   S29       1.0  0.45420  0.07434  0.35235  1.0000
  S   S30       1.0  0.39983  0.07204  0.32082  1.0000
  Fe  Fe16      1.0  0.44393  0.05186  0.37736  1.0000
  S   S31       1.0  0.46131  0.01643  0.38158  1.0000
  Fe  Fe17      1.0  0.44699  0.10247  0.37229  1.0000
  S   S32       1.0  0.46721  0.13371  0.37327  1.0000
  S   S33       1.0  0.40635  0.05451  0.37187  1.0000
  S   S34       1.0  0.40955  0.10902  0.36558  1.0000
  Fe  Fe18      1.0  0.07883  0.39684  0.38614  1.0000
  S   S35       1.0  0.08635  0.36109  0.37753  1.0000
  S   S36       1.0  0.04337  0.40569  0.39851  1.0000
  Fe  Fe19      1.0  0.12737  0.40861  0.37718  1.0000
  S   S37       1.0  0.13934  0.37309  0.36811  1.0000
  S   S38       1.0  0.14990  0.43849  0.37627  1.0000
  Fe  Fe20      1.0  0.10652  0.37629  0.35284  1.0000
  S   S39       1.0  0.10071  0.36056  0.32551  1.0000
  Fe  Fe21      1.0  0.11810  0.36065  0.39361  1.0000
  S   S40       1.0  0.12130  0.32700  0.41127  1.0000
  S   S41       1.0  0.09595  0.41244  0.36019  1.0000
  S   S42       1.0  0.10914  0.39585  0.40387  1.0000
  H   H70       1.0  0.09382  0.38217  0.45094  1.0000
  S   S43       1.0  0.35597  0.10075  0.49558  1.0000
  C   C71       1.0  0.20116  0.22732  0.49723  1.0000
  H   H71       1.0  0.05119  0.33395  0.42986  1.0000
  H   H72       1.0  0.47818  0.02189  0.32469  1.0000
  S   S44       1.0  0.14580  0.31662  0.49660  1.0000
  C   C72       1.0  0.01444  0.36357  0.36572  1.0000
  C   C73       1.0  0.07205  0.35976  0.43858  1.0000
  C   C74       1.0  0.10519  0.37404  0.30296  1.0000
  C   C75       1.0  0.11511  0.39515  0.30014  1.0000
  H   H73       1.0  0.17727  0.21411  0.46998  1.0000
  C   C76       1.0  0.13621  0.46059  0.33246  1.0000
  C   C77       1.0  0.09883  0.36300  0.28744  1.0000
  H   H74       1.0  0.12016  0.40375  0.31196  1.0000
  H   H75       1.0  0.40242  0.08730  0.43741  1.0000
  H   H76       1.0  0.09120  0.34665  0.28946  1.0000
  C   C78       1.0  0.13405  0.46456  0.38091  1.0000
  C   C79       1.0  0.35013  0.06146  0.34995  1.0000
  H   H77       1.0  0.00654  0.27791  0.50534  1.0000
  H   H78       1.0  0.02919  0.45239  0.38594  1.0000
  C   C80       1.0  0.11023  0.46497  0.38512  1.0000
  C   C81       1.0  0.14504  0.48524  0.37958  1.0000
  C   C82       1.0  0.34798  0.06292  0.36925  1.0000
  H   H79       1.0  0.13288  0.45678  0.31800  1.0000
  H   H80       1.0  0.10165  0.44913  0.38643  1.0000
  C   C83       1.0  0.12813  0.32468  0.43497  1.0000
  C   C84       1.0  0.12327  0.30457  0.44576  1.0000
  C   C85       1.0  0.12849  0.30192  0.46463  1.0000
  C   C86       1.0  0.13897  0.31925  0.47286  1.0000
  C   C87       1.0  0.14404  0.33927  0.46203  1.0000
  C   C88       1.0  0.13846  0.34209  0.44321  1.0000
  H   H81       1.0  0.11539  0.29097  0.43948  1.0000
  H   H82       1.0  0.12449  0.28642  0.47273  1.0000
  H   H83       1.0  0.15226  0.35273  0.46823  1.0000
  H   H84       1.0  0.14249  0.35756  0.43501  1.0000
  H   H85       1.0  0.03520  0.49361  0.38863  1.0000
  H   H86       1.0  0.20358  0.20883  0.49627  1.0000
  C   C89       1.0  0.02517  0.38655  0.39032  1.0000
  C   C90       1.0  0.02939  0.37845  0.37245  1.0000
  C   C91       1.0  0.42998  0.00681  0.35711  1.0000
  C   C92       1.0  0.35167  0.04301  0.38080  1.0000
  H   H87       1.0  0.04370  0.38432  0.36354  1.0000
  C   C93       1.0  0.41134  0.08072  0.29829  1.0000
  C   C94       1.0  0.21234  0.26187  0.50986  1.0000
  H   H88       1.0  0.05524  0.30937  0.45905  1.0000
  H   H89       1.0  0.12303  0.45282  0.34225  1.0000
  C   C95       1.0  0.43131  0.09277  0.29574  1.0000
  H   H90       1.0  0.38502  0.06544  0.28431  1.0000
  H   H91       1.0  0.19102  0.29257  0.50271  1.0000
  H   H92       1.0  0.43979  0.09759  0.30773  1.0000
  C   C96       1.0  0.07844  0.31738  0.48834  1.0000
  C   C97       1.0  0.35840  0.02051  0.35438  1.0000
  C   C98       1.0  0.08504  0.36637  0.45274  1.0000
  H   H93       1.0  0.15502  0.21902  0.48818  1.0000
  H   H94       1.0  0.34454  0.07949  0.37525  1.0000
  C   C99       1.0  0.01974  0.48860  0.38267  1.0000
  H   H95       1.0  0.06840  0.32152  0.32189  1.0000
  C   C100      1.0  0.08706  0.35220  0.46904  1.0000
  C   C101      1.0  0.36609  0.08870  0.43291  1.0000
  C   C102      1.0  0.34372  0.09052  0.44158  1.0000
  C   C103      1.0  0.34032  0.09315  0.46091  1.0000
  C   C104      1.0  0.35931  0.09421  0.47177  1.0000
  C   C105      1.0  0.38170  0.09175  0.46317  1.0000
  C   C106      1.0  0.38511  0.08881  0.44387  1.0000
  H   H96       1.0  0.32887  0.09048  0.43324  1.0000
  H   H97       1.0  0.32300  0.09512  0.46731  1.0000
  H   H98       1.0  0.39650  0.09241  0.47148  1.0000
  H   H99       1.0  0.44919  0.04669  0.30734  1.0000
  H   H100      1.0  0.43222  0.02379  0.35080  1.0000
  H   H101      1.0  0.15313  0.45198  0.33624  1.0000
  S   S45       1.0  0.12088  0.25615  0.50734  1.0000
  H   H102      1.0  0.45556  0.10836  0.27578  1.0000
  S   S46       1.0  0.26612  0.03786  0.51421  1.0000
  H   H103      1.0  0.45216  0.13744  0.41318  1.0000
  Fe  Fe22      1.0  0.32331  0.09721  0.51468  1.0000
  C   C107      1.0  0.06367  0.32538  0.45732  1.0000
  H   H104      1.0  0.12680  0.42112  0.27982  1.0000
  H   H105      1.0  0.01710  0.35814  0.35162  1.0000
  C   C108      1.0  0.01627  0.46537  0.38105  1.0000
  H   H106      1.0  0.09750  0.35731  0.47986  1.0000
  H   H107      1.0  0.16562  0.27247  0.48397  1.0000
  N   N6        1.0  0.07662  0.33189  0.47107  1.0000
  N   N7        1.0  0.18344  0.23957  0.48866  1.0000
  H   H108      1.0  0.16349  0.48500  0.37642  1.0000
  C   C109      1.0  0.44024  0.09882  0.27760  1.0000
  C   C110      1.0  0.11886  0.40494  0.28191  1.0000
  C   C111      1.0  0.09742  0.48591  0.38775  1.0000
  H   H109      1.0  0.49702  0.16948  0.37428  1.0000
  H   H110      1.0  0.34851  0.07689  0.34080  1.0000
  N   N8        1.0  0.35692  0.02217  0.37329  1.0000
  H   H111      1.0  0.36261  0.00399  0.34844  1.0000
  C   C112      1.0  0.21595  0.23828  0.50785  1.0000
  H   H112      1.0  0.41678  0.02917  0.29402  1.0000
  C   C113      1.0  0.17982  0.26273  0.49052  1.0000
  C   C114      1.0  0.16762  0.22750  0.47826  1.0000
  H   H113      1.0  0.09358  0.32120  0.49604  1.0000
  H   H114      1.0  0.07901  0.48606  0.39099  1.0000
  N   N9        1.0  0.06512  0.31633  0.35157  1.0000
  C   C115      1.0  0.05006  0.31323  0.36673  1.0000
  C   C116      1.0  0.08841  0.31193  0.35317  1.0000
  C   C117      1.0  0.05820  0.30540  0.38404  1.0000
  C   C118      1.0  0.09713  0.30412  0.37028  1.0000
  C   C119      1.0  0.08190  0.30087  0.38579  1.0000
  C   C120      1.0  0.05630  0.32597  0.33391  1.0000
  H   H115      1.0  0.03164  0.31712  0.36556  1.0000
  H   H116      1.0  0.10045  0.31508  0.34132  1.0000
  H   H117      1.0  0.04622  0.30332  0.39606  1.0000
  H   H118      1.0  0.11565  0.30149  0.37170  1.0000
  H   H119      1.0  0.08860  0.29542  0.39921  1.0000
  H   H120      1.0  0.03928  0.31953  0.33154  1.0000
  H   H121      1.0  0.05443  0.34503  0.33411  1.0000
  N   N10       1.0  0.38759  0.14337  0.42997  1.0000
  C   C121      1.0  0.39378  0.14466  0.41132  1.0000
  C   C122      1.0  0.40416  0.14030  0.44278  1.0000
  C   C123      1.0  0.41706  0.14283  0.40507  1.0000
  C   C124      1.0  0.42761  0.13788  0.43698  1.0000
  C   C125      1.0  0.43405  0.13922  0.41798  1.0000
  C   C126      1.0  0.36313  0.14653  0.43619  1.0000
  H   H122      1.0  0.38068  0.14697  0.40114  1.0000
  H   H123      1.0  0.39925  0.13925  0.45759  1.0000
  H   H124      1.0  0.42198  0.14415  0.39029  1.0000
  H   H125      1.0  0.44069  0.13497  0.44713  1.0000
  C   C127      1.0  0.35523  0.04013  0.34244  1.0000
  H   H126      1.0  0.35986  0.13885  0.45055  1.0000
  H   H127      1.0  0.35756  0.16510  0.43598  1.0000
  H   H128      1.0  0.35225  0.13778  0.42701  1.0000
  H   H129      1.0  0.35122  0.04457  0.39576  1.0000
  H   H130      1.0  0.08081  0.29889  0.48533  1.0000
  S   S47       1.0  0.28625  0.10062  0.50695  1.0000
  S   S48       1.0  0.05360  0.26735  0.51404  1.0000
  C   C128      1.0  0.40052  0.07469  0.28252  1.0000
  H   H131      1.0  0.06253  0.31998  0.49754  1.0000
  C   C129      1.0  0.06126  0.33916  0.44085  1.0000
  C   C130      1.0  0.19420  0.27423  0.50111  1.0000
  H   H132      1.0  0.17176  0.48697  0.32649  1.0000
  H   H133      1.0  0.07040  0.37055  0.42583  1.0000
  H   H134      1.0  0.15788  0.23944  0.46848  1.0000
  C   C131      1.0  0.49694  0.13264  0.37725  1.0000
  N   N11       1.0  0.13585  0.48547  0.33419  1.0000
  H   H135      1.0  0.35747  0.03899  0.32744  1.0000
  H   H136      1.0  0.32094  0.02996  0.50182  1.0000
  C   C132      1.0  0.42957  0.01838  0.30147  1.0000
  H   H137      1.0  0.35307  0.00247  0.39912  1.0000
  H   H138      1.0  0.09991  0.48880  0.34238  1.0000
  C   C133      1.0  0.31930  0.01163  0.50140  1.0000
  Fe  Fe23      1.0  0.13248  0.28872  0.51703  1.0000
  C   C134      1.0  0.44784  0.02823  0.30891  1.0000
  H   H139      1.0  0.22977  0.22837  0.51482  1.0000
  C   C135      1.0  0.00657  0.26526  0.51694  1.0000
  C   C136      1.0  0.30894  0.00310  0.48656  1.0000
  H   H140      1.0  0.50249  0.09583  0.38110  1.0000
  C   C137      1.0  0.11553  0.49760  0.33895  1.0000
  C   C138      1.0  0.00615  0.37962  0.40151  1.0000
  C   C139      1.0  0.15566  0.49657  0.33027  1.0000
  C   C140      1.0  0.36303  0.00190  0.38547  1.0000
  H   H141      1.0  0.30250  0.01483  0.47551  1.0000
  H   H142      1.0  0.00942  0.42553  0.36621  1.0000
  C   C141      1.0  0.46413  0.01430  0.31859  1.0000
  H   H143      1.0  0.22339  0.27053  0.51835  1.0000
  H   H144      1.0  0.17894  0.16049  0.51657  1.0000
  H   H145      1.0  0.38182  0.00111  0.38783  1.0000
  Fe  Fe24      1.0  0.39117  0.05339  0.69577  1.0000
  S   S49       1.0  0.37605  0.08963  0.69850  1.0000
  H   H146      1.0  0.10173  0.42308  0.63244  1.0000
  Fe  Fe25      1.0  0.43737  0.06775  0.67949  1.0000
  S   S50       1.0  0.42621  0.10508  0.68070  1.0000
  S   S51       1.0  0.47225  0.05259  0.66915  1.0000
  Fe  Fe26      1.0  0.41070  0.09532  0.70929  1.0000
  S   S52       1.0  0.41925  0.11528  0.73372  1.0000
  Fe  Fe27      1.0  0.39288  0.09564  0.66964  1.0000
  S   S53       1.0  0.37826  0.11648  0.64474  1.0000
  S   S54       1.0  0.42431  0.05862  0.70866  1.0000
  S   S55       1.0  0.40542  0.05896  0.66635  1.0000
  C   C142      1.0  0.03966  0.47003  0.70299  1.0000
  S   S56       1.0  0.31604  0.11812  0.54007  1.0000
  H   H147      1.0  0.07634  0.49096  0.67101  1.0000
  H   H148      1.0  0.17619  0.38573  0.65368  1.0000
  C   C143      1.0  0.08190  0.33185  0.75114  1.0000
  H   H149      1.0  0.10978  0.46245  0.64002  1.0000
  Fe  Fe28      1.0  0.31022  0.08475  0.55609  1.0000
  S   S57       1.0  0.32218  0.07124  0.58465  1.0000
  S   S58       1.0  0.27222  0.08648  0.55105  1.0000
  Fe  Fe29      1.0  0.11711  0.27665  0.55797  1.0000
  S   S59       1.0  0.10446  0.24285  0.55051  1.0000
  S   S60       1.0  0.10444  0.28826  0.58688  1.0000
  Fe  Fe30      1.0  0.13780  0.23893  0.53252  1.0000
  H   H150      1.0  0.43237  0.02545  0.61762  1.0000
  N   N12       1.0  0.09905  0.32535  0.76297  1.0000
  H   H151      1.0  0.38957  0.08063  0.59265  1.0000
  S   S61       1.0  0.15138  0.27162  0.54133  1.0000
  S   S62       1.0  0.09994  0.29653  0.53438  1.0000
  Fe  Fe31      1.0  0.12712  0.37551  0.71296  1.0000
  S   S63       1.0  0.09106  0.39168  0.71338  1.0000
  S   S64       1.0  0.14821  0.37403  0.73864  1.0000
  Fe  Fe32      1.0  0.12590  0.36221  0.67209  1.0000
  S   S65       1.0  0.08970  0.37746  0.66969  1.0000
  S   S66       1.0  0.14624  0.34793  0.64670  1.0000
  Fe  Fe33      1.0  0.10074  0.40683  0.68496  1.0000
  S   S67       1.0  0.08594  0.44247  0.67667  1.0000
  Fe  Fe34      1.0  0.08330  0.36112  0.69835  1.0000
  S   S68       1.0  0.05094  0.34453  0.70811  1.0000
  S   S69       1.0  0.13782  0.39313  0.68529  1.0000
  S   S70       1.0  0.11867  0.34334  0.69986  1.0000
  C   C144      1.0  0.01355  0.26670  0.58212  1.0000
  S   S71       1.0  0.32036  0.06371  0.53138  1.0000
  N   N13       1.0  0.15880  0.41408  0.63948  1.0000
  C   C145      1.0  0.10232  0.46561  0.68072  1.0000
  C   C146      1.0  0.12453  0.46195  0.68723  1.0000
  C   C147      1.0  0.13792  0.48070  0.68888  1.0000
  H   H152      1.0  0.00748  0.37435  0.64890  1.0000
  H   H153      1.0  0.18020  0.43902  0.64835  1.0000
  H   H154      1.0  0.08566  0.33322  0.73619  1.0000
  H   H155      1.0  0.13158  0.44468  0.69061  1.0000
  C   C148      1.0  0.22369  0.18846  0.54380  1.0000
  N   N14       1.0  0.02548  0.28063  0.56960  1.0000
  H   H156      1.0  0.02354  0.30529  0.54661  1.0000
  C   C149      1.0  0.34768  0.11236  0.75011  1.0000
  H   H157      1.0  0.45233  0.05373  0.63369  1.0000
  C   C150      1.0  0.01358  0.32407  0.67473  1.0000
  C   C151      1.0  0.03138  0.38514  0.69360  1.0000
  H   H158      1.0  0.28370  0.01960  0.54970  1.0000
  H   H159      1.0  0.04862  0.38948  0.68920  1.0000
  C   C152      1.0  0.11642  0.30547  0.60291  1.0000
  C   C153      1.0  0.10295  0.31156  0.61902  1.0000
  C   C154      1.0  0.11171  0.32474  0.63240  1.0000
  C   C155      1.0  0.13421  0.33185  0.62992  1.0000
  C   C156      1.0  0.14766  0.32590  0.61377  1.0000
  C   C157      1.0  0.13881  0.31287  0.60028  1.0000
  H   H160      1.0  0.08566  0.30586  0.62125  1.0000
  H   H161      1.0  0.10118  0.32908  0.64476  1.0000
  H   H162      1.0  0.16510  0.33122  0.61172  1.0000
  H   H163      1.0  0.14941  0.30828  0.58802  1.0000
  C   C158      1.0  0.02742  0.24008  0.53897  1.0000
  H   H164      1.0  0.40055  0.03891  0.59699  1.0000
  S   S72       1.0  0.15780  0.20422  0.52691  1.0000
  H   H165      1.0  0.04352  0.23302  0.54442  1.0000
  C   C159      1.0  0.20163  0.19985  0.54154  1.0000
  C   C160      1.0  0.40963  0.05116  0.60399  1.0000
  H   H166      1.0  0.03743  0.34900  0.66444  1.0000
  C   C161      1.0  0.41463  0.10403  0.75694  1.0000
  C   C162      1.0  0.26819  0.00989  0.52525  1.0000
  H   H167      1.0  0.47586  0.10121  0.67312  1.0000
  C   C163      1.0  0.00528  0.35975  0.71033  1.0000
  C   C164      1.0  0.01974  0.34409  0.66473  1.0000
  H   H168      1.0  0.27394  0.07466  0.60621  1.0000
  C   C165      1.0  0.02764  0.25659  0.52406  1.0000
  C   C166      1.0  0.14577  0.45339  0.64419  1.0000
  H   H169      1.0  0.43093  0.11258  0.63800  1.0000
  H   H170      1.0  0.00617  0.21976  0.55828  1.0000
  C   C167      1.0  0.02772  0.36470  0.70415  1.0000
  H   H171      1.0  0.47403  0.03644  0.71059  1.0000
  H   H172      1.0  0.05781  0.27167  0.55578  1.0000
  C   C168      1.0  0.16320  0.43557  0.64428  1.0000
  C   C169      1.0  0.33770  0.08442  0.60105  1.0000
  C   C170      1.0  0.34381  0.07160  0.61739  1.0000
  C   C171      1.0  0.35598  0.08126  0.63095  1.0000
  C   C172      1.0  0.36204  0.10399  0.62839  1.0000
  C   C173      1.0  0.35584  0.11689  0.61208  1.0000
  C   C174      1.0  0.34382  0.10715  0.59842  1.0000
  H   H173      1.0  0.33908  0.05404  0.61959  1.0000
  H   H174      1.0  0.36059  0.07114  0.64341  1.0000
  H   H175      1.0  0.36052  0.13448  0.60994  1.0000
  H   H176      1.0  0.33929  0.11721  0.58589  1.0000
  C   C175      1.0  0.11913  0.42686  0.63527  1.0000
  Fe  Fe35      1.0  0.27827  0.11910  0.53358  1.0000
  C   C176      1.0  0.17715  0.39549  0.63994  1.0000
  N   N15       1.0  0.50193  0.05515  0.71807  1.0000
  H   H177      1.0  0.21380  0.10694  0.58081  1.0000
  C   C177      1.0  0.41490  0.09020  0.61096  1.0000
  H   H178      1.0  0.14915  0.47038  0.64821  1.0000
  H   H179      1.0  0.23371  0.07261  0.59663  1.0000
  C   C178      1.0  0.11089  0.37873  0.76440  1.0000
  H   H180      1.0  0.36939  0.13681  0.73591  1.0000
  C   C179      1.0  0.44374  0.09945  0.63214  1.0000
  C   C180      1.0  0.49223  0.03586  0.71327  1.0000
  H   H181      1.0  0.45333  0.09119  0.64395  1.0000
  C   C181      1.0  0.12263  0.31971  0.75538  1.0000
  C   C182      1.0  0.22979  0.16696  0.53633  1.0000
  C   C183      1.0  0.27782  0.00556  0.54255  1.0000
  H   H182      1.0  0.41891  0.01815  0.68761  1.0000
  H   H183      1.0  0.05716  0.29687  0.56917  1.0000
  H   H184      1.0  0.34364  0.10486  0.73739  1.0000
  C   C184      1.0  0.36223  0.13047  0.74937  1.0000
  C   C185      1.0  0.00657  0.49072  0.68972  1.0000
  C   C186      1.0  0.26470  0.08969  0.59988  1.0000
  H   H185      1.0  0.39341  0.07744  0.75013  1.0000
  C   C187      1.0  0.49594  0.06882  0.67207  1.0000
  H   H186      1.0  0.02649  0.31345  0.68221  1.0000
  C   C188      1.0  0.42738  0.04363  0.61558  1.0000
  H   H187      1.0  0.19455  0.40213  0.63750  1.0000
  C   C189      1.0  0.01398  0.29507  0.55708  1.0000
  H   H188      1.0  0.19731  0.21636  0.54734  1.0000
  C   C190      1.0  0.40349  0.07459  0.60150  1.0000
  S   S73       1.0  0.37261  0.02189  0.70431  1.0000
  H   H189      1.0  0.10026  0.38244  0.75268  1.0000
  N   N16       1.0  0.26464  0.12891  0.58776  1.0000
  C   C191      1.0  0.27571  0.11013  0.59641  1.0000
  C   C192      1.0  0.24263  0.12791  0.58224  1.0000
  C   C193      1.0  0.18532  0.18997  0.53160  1.0000
  C   C194      1.0  0.23106  0.10777  0.58555  1.0000
  H   H190      1.0  0.40957  0.10837  0.60936  1.0000
  C   C195      1.0  0.27710  0.14967  0.58350  1.0000
  H   H191      1.0  0.29335  0.11070  0.60032  1.0000
  H   H192      1.0  0.23405  0.14257  0.57488  1.0000
  H   H193      1.0  0.33348  0.00335  0.52811  1.0000
  S   S74       1.0  0.25818  0.15379  0.53941  1.0000
  H   H194      1.0  0.05808  0.26896  0.58077  1.0000
  H   H195      1.0  0.28676  0.15374  0.59558  1.0000
  H   H196      1.0  0.28945  0.14702  0.57127  1.0000
  H   H197      1.0  0.26515  0.16481  0.57991  1.0000
  C   C196      1.0  0.13703  0.40951  0.63525  1.0000
  H   H198      1.0  0.45617  0.10811  0.62226  1.0000
  H   H199      1.0  0.13331  0.39232  0.63204  1.0000
  H   H200      1.0  0.03371  0.43609  0.71486  1.0000
  C   C197      1.0  0.05080  0.27944  0.56882  1.0000
  C   C198      1.0  0.49283  0.09252  0.67386  1.0000
  H   H201      1.0  0.12507  0.30115  0.75281  1.0000
  C   C199      1.0  0.02609  0.45172  0.70812  1.0000
  C   C200      1.0  0.13483  0.37498  0.76145  1.0000
  C   C201      1.0  0.09333  0.48807  0.67638  1.0000
  Fe  Fe36      1.0  0.08905  0.26287  0.52609  1.0000
  H   H202      1.0  0.01555  0.41497  0.67918  1.0000
  H   H203      1.0  0.15530  0.47778  0.69353  1.0000
  C   C202      1.0  0.43859  0.05973  0.62467  1.0000
  H   H204      1.0  0.23617  0.19643  0.55137  1.0000
  C   C203      1.0  0.01260  0.39974  0.68807  1.0000
  Fe  Fe37      1.0  0.28301  0.06788  0.52514  1.0000
  H   H205      1.0  0.39663  0.15651  0.75239  1.0000
  N   N17       1.0  0.43199  0.08266  0.62254  1.0000
  C   C204      1.0  0.12365  0.44897  0.63956  1.0000
  C   C205      1.0  0.24222  0.08854  0.59442  1.0000
  C   C206      1.0  0.21336  0.15692  0.52664  1.0000
  H   H206      1.0  0.47997  0.07694  0.73509  1.0000
  C   C207      1.0  0.48737  0.07646  0.72051  1.0000
  C   C208      1.0  0.19136  0.16839  0.52426  1.0000
  H   H207      1.0  0.17520  0.38325  0.62898  1.0000
  H   H208      1.0  0.04586  0.34280  0.74871  1.0000
  H   H209      1.0  0.05785  0.46879  0.70586  1.0000
  C   C209      1.0  0.05930  0.33727  0.75816  1.0000
  H   H210      1.0  0.02267  0.25465  0.59160  1.0000
  H   H211      1.0  0.49741  0.09180  0.71713  1.0000
  H   H212      1.0  0.12631  0.32989  0.74211  1.0000
  H   H213      1.0  0.47293  0.07789  0.71098  1.0000
  C   C210      1.0  0.00623  0.23252  0.54675  1.0000
  C   C211      1.0  0.02984  0.48975  0.69385  1.0000
  C   C212      1.0  0.40022  0.08610  0.76123  1.0000
  H   H214      1.0  0.37332  0.17492  0.76253  1.0000
  H   H215      1.0  0.13558  0.32415  0.76507  1.0000
  H   H216      1.0  0.43464  0.12887  0.76833  1.0000
  C   C213      1.0  0.38358  0.15825  0.76430  1.0000
  N   N18       1.0  0.36828  0.13930  0.76540  1.0000
  H   H217      1.0  0.21766  0.14042  0.52081  1.0000
  C   C214      1.0  0.33910  0.10352  0.76740  1.0000
  H   H218      1.0  0.35643  0.00152  0.66859  1.0000
  C   C215      1.0  0.41332  0.00113  0.69080  1.0000
  H   H219      1.0  0.32833  0.08906  0.76822  1.0000
  Fe  Fe38      1.0  0.44435  0.07517  0.86793  1.0000
  S   S75       1.0  0.42991  0.10943  0.85647  1.0000
  S   S76       1.0  0.48176  0.06258  0.86856  1.0000
  Fe  Fe39      1.0  0.39732  0.05896  0.88013  1.0000
  S   S77       1.0  0.37906  0.09235  0.87040  1.0000
  S   S78       1.0  0.37793  0.02823  0.89046  1.0000
  Fe  Fe40      1.0  0.40300  0.08947  0.84464  1.0000
  S   S79       1.0  0.38635  0.08966  0.81676  1.0000
  Fe  Fe41      1.0  0.40748  0.10918  0.88334  1.0000
  S   S80       1.0  0.40567  0.14233  0.89900  1.0000
  S   S81       1.0  0.41962  0.05527  0.85396  1.0000
  S   S82       1.0  0.42361  0.07576  0.89521  1.0000
  C   C216      1.0  0.15972  0.42632  0.89300  1.0000
  C   C217      1.0  0.18368  0.46303  0.87806  1.0000
  S   S83       1.0  0.18057  0.38283  0.98388  1.0000
  Fe  Fe42      1.0  0.39765  0.18069  0.00551  1.0000
  S   S84       1.0  0.40752  0.21663  0.99835  1.0000
  S   S85       1.0  0.38673  0.15408  0.98638  1.0000
  Fe  Fe43      1.0  0.09643  0.40986  0.87521  1.0000
  S   S86       1.0  0.12886  0.39654  0.85963  1.0000
  S   S87       1.0  0.08402  0.44616  0.88062  1.0000
  Fe  Fe44      1.0  0.08134  0.36241  0.88703  1.0000
  S   S88       1.0  0.11260  0.34500  0.87262  1.0000
  S   S89       1.0  0.05625  0.34342  0.90622  1.0000
  Fe  Fe45      1.0  0.13251  0.37172  0.88476  1.0000
  S   S90       1.0  0.16645  0.36369  0.89896  1.0000
  Fe  Fe46      1.0  0.10601  0.37133  0.84887  1.0000
  S   S91       1.0  0.09963  0.36209  0.81940  1.0000
  S   S92       1.0  0.10168  0.38696  0.90080  1.0000
  S   S93       1.0  0.07325  0.38677  0.86291  1.0000
  C   C218      1.0  0.10310  0.46655  0.87194  1.0000
  C   C219      1.0  0.41865  0.00219  0.88473  1.0000
  H   H220      1.0  0.04961  0.41563  0.89909  1.0000
  C   C220      1.0  0.13767  0.47668  0.85364  1.0000
  C   C221      1.0  0.12132  0.46077  0.85911  1.0000
  S   S94       1.0  0.47412  0.21412  0.00775  1.0000
  H   H221      1.0  0.12284  0.44412  0.85336  1.0000
  C   C222      1.0  0.23724  0.46337  0.01571  1.0000
  H   H222      1.0  0.31622  0.17319  0.99147  1.0000
  C   C223      1.0  0.02855  0.33838  0.89924  1.0000
  H   H223      1.0  0.06827  0.32811  0.80430  1.0000
  C   C224      1.0  0.35606  0.23468  0.97642  1.0000
  H   H224      1.0  0.32102  0.19112  0.01006  1.0000
  C   C225      1.0  0.50158  0.11114  0.91855  1.0000
  H   H225      1.0  0.23065  0.44969  0.00857  1.0000
  H   H226      1.0  0.11944  0.44070  0.90902  1.0000
  C   C226      1.0  0.13792  0.36830  0.79516  1.0000
  C   C227      1.0  0.11387  0.37106  0.79799  1.0000
  H   H227      1.0  0.35954  0.25166  0.98039  1.0000
  C   C228      1.0  0.34500  0.11293  0.78365  1.0000
  H   H228      1.0  0.14841  0.36345  0.80685  1.0000
  H   H229      1.0  0.08189  0.37886  0.78456  1.0000
  C   C229      1.0  0.17776  0.37773  0.96007  1.0000
  C   C230      1.0  0.15689  0.38528  0.95201  1.0000
  C   C231      1.0  0.15330  0.38132  0.93335  1.0000
  C   C232      1.0  0.17065  0.36986  0.92238  1.0000
  C   C233      1.0  0.19165  0.36252  0.93034  1.0000
  C   C234      1.0  0.19517  0.36632  0.94912  1.0000
  H   H230      1.0  0.14332  0.39412  0.96037  1.0000
  H   H231      1.0  0.13703  0.38698  0.92758  1.0000
  H   H232      1.0  0.20522  0.35366  0.92200  1.0000
  H   H233      1.0  0.21134  0.36046  0.95510  1.0000
  C   C235      1.0  0.02520  0.43186  0.88013  1.0000
  H   H234      1.0  0.02221  0.38756  0.91286  1.0000
  N   N19       1.0  0.34071  0.19807  0.98442  1.0000
  H   H235      1.0  0.19238  0.47773  0.87190  1.0000
  C   C236      1.0  0.46309  0.12019  0.90837  1.0000
  C   C237      1.0  0.48898  0.15000  0.91111  1.0000
  C   C238      1.0  0.40225  0.14437  0.92359  1.0000
  C   C239      1.0  0.39258  0.12717  0.93526  1.0000
  C   C240      1.0  0.38846  0.13025  0.95449  1.0000
  C   C241      1.0  0.39447  0.15024  0.96240  1.0000
  C   C242      1.0  0.40490  0.16712  0.95085  1.0000
  C   C243      1.0  0.40846  0.16431  0.93151  1.0000
  H   H236      1.0  0.38760  0.11179  0.92939  1.0000
  H   H237      1.0  0.38035  0.11709  0.96326  1.0000
  H   H238      1.0  0.40965  0.18258  0.95672  1.0000
  H   H239      1.0  0.41592  0.17775  0.92262  1.0000
  H   H240      1.0  0.44651  0.11487  0.90496  1.0000
  H   H241      1.0  0.34560  0.17332  0.96370  1.0000
  H   H242      1.0  0.15199  0.47205  0.84395  1.0000
  C   C244      1.0  0.42338  0.11505  0.77153  1.0000
  C   C245      1.0  0.01568  0.32272  0.91017  1.0000
  H   H243      1.0  0.49225  0.16806  0.90979  1.0000
  C   C246      1.0  0.50021  0.08395  0.87238  1.0000
  H   H244      1.0  0.02868  0.36198  0.87503  1.0000
  H   H245      1.0  0.38092  0.06757  0.78303  1.0000
  H   H246      1.0  0.20440  0.43825  0.86210  1.0000
  C   C247      1.0  0.40086  0.09242  0.79447  1.0000
  C   C248      1.0  0.41659  0.10924  0.79025  1.0000
  C   C249      1.0  0.13584  0.49833  0.86106  1.0000
  H   H247      1.0  0.47963  0.11186  0.85934  1.0000
  H   H248      1.0  0.42242  0.11871  0.80131  1.0000
  H   H249      1.0  0.37271  0.23867  0.94896  1.0000
  H   H250      1.0  0.01106  0.45317  0.84920  1.0000
  H   H251      1.0  0.47708  0.08579  0.91508  1.0000
  C   C250      1.0  0.35963  0.13099  0.78239  1.0000
  H   H252      1.0  0.35916  0.02156  0.83283  1.0000
  C   C251      1.0  0.48023  0.10391  0.91424  1.0000
  H   H253      1.0  0.34270  0.16902  0.00344  1.0000
  C   C252      1.0  0.39321  0.08049  0.77991  1.0000
  H   H254      1.0  0.02308  0.31363  0.92217  1.0000
  H   H255      1.0  0.30337  0.32306  0.00971  1.0000
  H   H256      1.0  0.12617  0.46963  0.91102  1.0000
  C   C253      1.0  0.36345  0.22739  0.95881  1.0000
  H   H257      1.0  0.15043  0.41187  0.89872  1.0000
  C   C254      1.0  0.09417  0.32337  0.78181  1.0000
  C   C255      1.0  0.03224  0.41594  0.89432  1.0000
  H   H258      1.0  0.03691  0.34029  0.78302  1.0000
  N   N20       1.0  0.11118  0.33430  0.94198  1.0000
  C   C256      1.0  0.12796  0.33427  0.95452  1.0000
  C   C257      1.0  0.11634  0.32614  0.92470  1.0000
  C   C258      1.0  0.15053  0.32556  0.94996  1.0000
  C   C259      1.0  0.13878  0.31751  0.91963  1.0000
  C   C260      1.0  0.15593  0.31720  0.93237  1.0000
  C   C261      1.0  0.08763  0.34378  0.94664  1.0000
  H   H259      1.0  0.12418  0.34140  0.96802  1.0000
  H   H260      1.0  0.10312  0.32653  0.91466  1.0000
  H   H261      1.0  0.16394  0.32614  0.95975  1.0000
  H   H262      1.0  0.14301  0.31180  0.90569  1.0000
  H   H263      1.0  0.17358  0.31131  0.92836  1.0000
  H   H264      1.0  0.08398  0.35998  0.93811  1.0000
  H   H265      1.0  0.07488  0.33144  0.94353  1.0000
  H   H266      1.0  0.08490  0.34741  0.96161  1.0000
  H   H267      1.0  0.13932  0.44703  0.92612  1.0000
  H   H268      1.0  0.34201  0.30265  0.00403  1.0000
  H   H269      1.0  0.22408  0.49021  0.99646  1.0000
  C   C262      1.0  0.36791  0.01338  0.84506  1.0000
  H   H270      1.0  0.08658  0.49313  0.88861  1.0000
  H   H271      1.0  0.42709  0.01806  0.88483  1.0000
  C   C263      1.0  0.13363  0.45155  0.91184  1.0000
  H   H272      1.0  0.38095  0.02503  0.84883  1.0000
  C   C264      1.0  0.01881  0.34999  0.88366  1.0000
  C   C265      1.0  0.01683  0.40033  0.90211  1.0000
  C   C266      1.0  0.39467  0.00224  0.88776  1.0000
  C   C267      1.0  0.07177  0.32869  0.78930  1.0000
  C   C268      1.0  0.19024  0.44096  0.87244  1.0000
  C   C269      1.0  0.16513  0.46625  0.89119  1.0000
  C   C270      1.0  0.10051  0.37681  0.78256  1.0000
  H   H273      1.0  0.36542  0.19922  0.94062  1.0000
  H   H274      1.0  0.18327  0.40510  0.87591  1.0000
  Fe  Fe47      1.0  0.43674  0.20869  0.01747  1.0000
  H   H275      1.0  0.36479  0.13756  0.79516  1.0000
  C   C271      1.0  0.32955  0.18214  0.99805  1.0000
  C   C272      1.0  0.17832  0.42242  0.88006  1.0000
  C   C273      1.0  0.34475  0.21967  0.98917  1.0000
  C   C274      1.0  0.34791  0.19079  0.96718  1.0000
  H   H276      1.0  0.15985  0.48356  0.89511  1.0000
  C   C275      1.0  0.46739  0.14338  0.90680  1.0000
  N   N21       1.0  0.15314  0.44805  0.89819  1.0000
  C   C276      1.0  0.35930  0.20533  0.95411  1.0000
  H   H277      1.0  0.45401  0.15603  0.90221  1.0000
  H   H278      1.0  0.16688  0.36741  0.77483  1.0000
  C   C277      1.0  0.14834  0.37032  0.77696  1.0000
  C   C278      1.0  0.10074  0.48853  0.87876  1.0000
  H   H279      1.0  0.33955  0.22537  0.00296  1.0000
  C   C279      1.0  0.30732  0.30644  0.01665  1.0000
  H   H280      1.0  0.39347  0.15812  0.77704  1.0000
  S   S95       1.0  0.24543  0.37526  0.00822  1.0000
  Fe  Fe48      1.0  0.20647  0.37509  0.00669  1.0000
  H   H281      1.0  0.35527  0.01205  0.85726  1.0000
  H   H282      1.0  0.03724  0.44400  0.87416  1.0000
  C   C280      1.0  0.23347  0.48640  0.00891  1.0000
  C   C281      1.0  0.49536  0.10686  0.86621  1.0000
  H   H283      1.0  0.10780  0.31867  0.79125  1.0000
  C   C282      1.0  0.05427  0.33576  0.77737  1.0000
  H   H284      1.0  0.33919  0.10569  0.79723  1.0000
  C   C283      1.0  0.32925  0.29474  0.01341  1.0000
  N   N22       1.0  0.00353  0.43203  0.87373  1.0000
  S   S96       1.0  0.36399  0.26076  0.01946  1.0000
  Fe  Fe49      1.0  0.39929  0.87599  0.20774  1.0000
  S   S97       1.0  0.42967  0.89690  0.20056  1.0000
  S   S98       1.0  0.37879  0.88177  0.23536  1.0000
  Fe  Fe50      1.0  0.40547  0.85202  0.17021  1.0000
  S   S99       1.0  0.43653  0.87108  0.16080  1.0000
  S   S100      1.0  0.39322  0.82316  0.15394  1.0000
  Fe  Fe51      1.0  0.44685  0.86432  0.19016  1.0000
  S   S101      1.0  0.48295  0.85534  0.19835  1.0000
  Fe  Fe52      1.0  0.41634  0.90204  0.17203  1.0000
  S   S102      1.0  0.41974  0.93602  0.15584  1.0000
  S   S103      1.0  0.41748  0.84273  0.19919  1.0000
  S   S104      1.0  0.38414  0.88363  0.17957  1.0000
  Fe  Fe53      1.0  0.11575  0.58382  0.21603  1.0000
  S   S105      1.0  0.09066  0.56404  0.20192  1.0000
  S   S106      1.0  0.10467  0.58130  0.24704  1.0000
  Fe  Fe54      1.0  0.14060  0.59742  0.17771  1.0000
  S   S107      1.0  0.11623  0.57947  0.16174  1.0000
  S   S108      1.0  0.17255  0.61058  0.16159  1.0000
  Fe  Fe55      1.0  0.08835  0.59420  0.18135  1.0000
  S   S109      1.0  0.05403  0.61094  0.17300  1.0000
  Fe  Fe56      1.0  0.12113  0.55147  0.18392  1.0000
  S   S110      1.0  0.13353  0.51650  0.17505  1.0000
  S   S111      1.0  0.11212  0.61491  0.19593  1.0000
  S   S112      1.0  0.14654  0.56845  0.19949  1.0000
  Fe  Fe57      1.0  0.21593  0.60111  0.04975  1.0000
  S   S113      1.0  0.25166  0.58331  0.04552  1.0000
  S   S114      1.0  0.18852  0.59904  0.07390  1.0000
  C   C284      1.0  0.49540  0.89157  0.17495  1.0000
  H   H285      1.0  0.26086  0.51294  0.04103  1.0000
  C   C285      1.0  0.39562  0.68521  0.05146  1.0000
  H   H286      1.0  0.01931  0.53678  0.17455  1.0000
  H   H287      1.0  0.40823  0.69811  0.05056  1.0000
  S   S115      1.0  0.22393  0.63292  0.03175  1.0000
  Fe  Fe58      1.0  0.39545  0.78556  0.04708  1.0000
  S   S116      1.0  0.39371  0.74848  0.05654  1.0000
  S   S117      1.0  0.39701  0.81596  0.06545  1.0000
  C   C286      1.0  0.19593  0.55149  0.12269  1.0000
  C   C287      1.0  0.15657  0.54405  0.12936  1.0000
  C   C288      1.0  0.37448  0.68886  0.06160  1.0000
  C   C289      1.0  0.15325  0.54311  0.11036  1.0000
  H   H288      1.0  0.48283  0.95337  0.15050  1.0000
  H   H289      1.0  0.14842  0.50183  0.21694  1.0000
  H   H290      1.0  0.11074  0.63680  0.26576  1.0000
  C   C290      1.0  0.29277  0.67630  0.03487  1.0000
  C   C291      1.0  0.48393  0.76627  0.07964  1.0000
  C   C292      1.0  0.49536  0.73968  0.03843  1.0000
  C   C293      1.0  0.33660  0.67678  0.07350  1.0000
  H   H291      1.0  0.19539  0.56012  0.15777  1.0000
  S   S118      1.0  0.33840  0.72629  0.03676  1.0000
  C   C294      1.0  0.38552  0.97975  0.19137  1.0000
  H   H292      1.0  0.42667  0.77519  0.07507  1.0000
  C   C295      1.0  0.48291  0.80704  0.05784  1.0000
  H   H293      1.0  0.29317  0.71014  0.04539  1.0000
  C   C296      1.0  0.46247  0.79760  0.06482  1.0000
  H   H294      1.0  0.18251  0.53267  0.16207  1.0000
  C   C297      1.0  0.01633  0.55522  0.17285  1.0000
  H   H295      1.0  0.45705  0.93801  0.21307  1.0000
  Fe  Fe59      1.0  0.37235  0.74485  0.03179  1.0000
  H   H296      1.0  0.15176  0.59263  0.25443  1.0000
  C   C298      1.0  0.17680  0.60882  0.13699  1.0000
  C   C299      1.0  0.19894  0.61106  0.12822  1.0000
  C   C300      1.0  0.20290  0.60888  0.10880  1.0000
  C   C301      1.0  0.18466  0.60459  0.09796  1.0000
  C   C302      1.0  0.16253  0.60280  0.10671  1.0000
  C   C303      1.0  0.15862  0.60486  0.12604  1.0000
  H   H297      1.0  0.21312  0.61431  0.13651  1.0000
  H   H298      1.0  0.22005  0.61026  0.10229  1.0000
  H   H299      1.0  0.14826  0.59961  0.09849  1.0000
  H   H300      1.0  0.14141  0.60371  0.13237  1.0000
  C   C304      1.0  0.03505  0.56908  0.17312  1.0000
  C   C305      1.0  0.03141  0.59297  0.17096  1.0000
  H   H301      1.0  0.00620  0.62136  0.16646  1.0000
  H   H302      1.0  0.05226  0.56128  0.17496  1.0000
  H   H303      1.0  0.11727  0.52976  0.22780  1.0000
  H   H304      1.0  0.41979  0.85375  0.24698  1.0000
  C   C306      1.0  0.18044  0.55015  0.15519  1.0000
  H   H305      1.0  0.37392  0.97870  0.20370  1.0000
  C   C307      1.0  0.30530  0.65885  0.02531  1.0000
  C   C308      1.0  0.41110  0.86113  0.25917  1.0000
  C   C309      1.0  0.40847  0.96091  0.16666  1.0000
  C   C310      1.0  0.39362  0.95961  0.18266  1.0000
  C   C311      1.0  0.44642  0.95396  0.20908  1.0000
  Fe  Fe60      1.0  0.25910  0.61468  0.02619  1.0000
  H   H306      1.0  0.44603  0.80654  0.06161  1.0000
  H   H307      1.0  0.38836  0.94309  0.18829  1.0000
  C   C312      1.0  0.30294  0.69702  0.03765  1.0000
  N   N23       1.0  0.46319  0.77725  0.07530  1.0000
  C   C313      1.0  0.39546  0.82111  0.12931  1.0000
  C   C314      1.0  0.38994  0.80068  0.12174  1.0000
  C   C315      1.0  0.39066  0.79861  0.10227  1.0000
  C   C316      1.0  0.39667  0.81711  0.09012  1.0000
  C   C317      1.0  0.40231  0.83746  0.09771  1.0000
  C   C318      1.0  0.40184  0.83944  0.11717  1.0000
  H   H308      1.0  0.38490  0.78641  0.13099  1.0000
  H   H309      1.0  0.38605  0.78293  0.09668  1.0000
  H   H310      1.0  0.40689  0.85191  0.08847  1.0000
  H   H311      1.0  0.40605  0.85529  0.12273  1.0000
  S   S119      1.0  0.37189  0.78308  0.02350  1.0000
  Fe  Fe61      1.0  0.42481  0.74236  0.03676  1.0000
  H   H312      1.0  0.48113  0.88819  0.16685  1.0000
  H   H313      1.0  0.20755  0.55376  0.09359  1.0000
  H   H314      1.0  0.48450  0.75004  0.08781  1.0000
  C   C319      1.0  0.32576  0.70075  0.03092  1.0000
  S   S120      1.0  0.20245  0.58409  0.02589  1.0000
  H   H315      1.0  0.16507  0.55947  0.16178  1.0000
  H   H316      1.0  0.21247  0.55554  0.12731  1.0000
  H   H317      1.0  0.48276  0.99610  0.14759  1.0000
  C   C320      1.0  0.01347  0.63201  0.20808  1.0000
  H   H318      1.0  0.14211  0.54155  0.13937  1.0000
  H   H319      1.0  0.33885  0.67141  0.08836  1.0000
  H   H320      1.0  0.27541  0.67370  0.04050  1.0000
  H   H321      1.0  0.44268  0.74867  0.08067  1.0000
  N   N24       1.0  0.34181  0.83735  0.18084  1.0000
  C   C321      1.0  0.33524  0.85583  0.19119  1.0000
  C   C322      1.0  0.35430  0.81875  0.18852  1.0000
  C   C323      1.0  0.34121  0.85603  0.20970  1.0000
  C   C324      1.0  0.36073  0.81846  0.20693  1.0000
  C   C325      1.0  0.35414  0.83725  0.21755  1.0000
  C   C326      1.0  0.33648  0.83827  0.16116  1.0000
  H   H322      1.0  0.32593  0.87085  0.18497  1.0000
  H   H323      1.0  0.36007  0.80432  0.18021  1.0000
  H   H324      1.0  0.33665  0.87100  0.21772  1.0000
  H   H325      1.0  0.37135  0.80406  0.21272  1.0000
  H   H326      1.0  0.35958  0.83759  0.23168  1.0000
  H   H327      1.0  0.31800  0.84372  0.15947  1.0000
  H   H328      1.0  0.34750  0.85057  0.15305  1.0000
  H   H329      1.0  0.34019  0.82131  0.15498  1.0000
  H   H330      1.0  0.32272  0.66721  0.06824  1.0000
  C   C327      1.0  0.47557  0.98750  0.16017  1.0000
  S   S121      1.0  0.45382  0.71842  0.04803  1.0000
  C   C328      1.0  0.44173  0.76746  0.08256  1.0000
  H   H331      1.0  0.13632  0.54037  0.10573  1.0000
  C   C329      1.0  0.19332  0.55030  0.10361  1.0000
  N   N25       1.0  0.17757  0.54870  0.13525  1.0000
  S   S122      1.0  0.29407  0.63162  0.02231  1.0000
  C   C330      1.0  0.00906  0.60289  0.16828  1.0000
  H   H332      1.0  0.42641  0.98345  0.14691  1.0000
  C   C331      1.0  0.17174  0.54647  0.09741  1.0000
  H   H333      1.0  0.37068  0.70490  0.06835  1.0000
  C   C332      1.0  0.39115  0.87578  0.25729  1.0000
  H   H334      1.0  0.16926  0.54692  0.08258  1.0000
  H   H335      1.0  0.44507  0.96503  0.22114  1.0000
  H   H336      1.0  0.08414  0.52101  0.18458  1.0000
  N   N26       1.0  0.35847  0.67275  0.06254  1.0000
  H   H337      1.0  0.38741  0.63269  0.03630  1.0000
  C   C333      1.0  0.36311  0.65259  0.05388  1.0000
  H   H338      1.0  0.46570  0.93430  0.17906  1.0000
  H   H339      1.0  0.42884  0.94924  0.20635  1.0000
  H   H340      1.0  0.48719  0.69541  0.07043  1.0000
  H   H341      1.0  0.03422  0.60083  0.21379  1.0000
  H   H342      1.0  0.41661  0.66210  0.03425  1.0000
  H   H343      1.0  0.35035  0.63986  0.05451  1.0000
  C   C334      1.0  0.48361  0.72291  0.04934  1.0000
  S   S123      1.0  0.42772  0.77942  0.02871  1.0000
  N   N27       1.0  0.45677  0.96562  0.19235  1.0000
  C   C335      1.0  0.11359  0.51209  0.22605  1.0000
  C   C336      1.0  0.41502  0.98240  0.15935  1.0000
  C   C337      1.0  0.49968  0.87833  0.19140  1.0000
  C   C338      1.0  0.38402  0.64845  0.04351  1.0000
  H   H344      1.0  0.43852  0.77077  0.09755  1.0000
  H   H345      1.0  0.33049  0.69530  0.07238  1.0000
  C   C339      1.0  0.01673  0.60842  0.21255  1.0000
  C   C340      1.0  0.40034  0.66493  0.04231  1.0000
  H   H346      1.0  0.02827  0.64233  0.20580  1.0000
  H   H347      1.0  0.48609  0.75085  0.02847  1.0000
  C   C341      1.0  0.47576  0.96359  0.16185  1.0000
  C   C342      1.0  0.45599  0.98912  0.19065  1.0000
  C   C343      1.0  0.49593  0.70848  0.06201  1.0000
  C   C344      1.0  0.14216  0.58934  0.26756  1.0000
  C   C345      1.0  0.11944  0.58290  0.26767  1.0000
  H   H348      1.0  0.01951  0.56359  0.21379  1.0000
  C   C346      1.0  0.46613  0.95287  0.17810  1.0000
  C   C347      1.0  0.33806  0.68354  0.02093  1.0000
  H   H349      1.0  0.48219  0.82289  0.04919  1.0000
  C   C348      1.0  0.08867  0.50425  0.17937  1.0000
  H   H350      1.0  0.07730  0.51762  0.23355  1.0000
  C   C349      1.0  0.09115  0.50525  0.22930  1.0000
  H   H351      1.0  0.44758  0.99930  0.20155  1.0000
  C   C350      1.0  0.46548  0.00039  0.17458  1.0000
  Fe  Fe62      1.0  0.23823  0.56826  0.02042  1.0000
  Fe  Fe63      1.0  0.38375  0.87440  0.38080  1.0000
  S   S124      1.0  0.40115  0.90486  0.38875  1.0000
  S   S125      1.0  0.35861  0.85545  0.40079  1.0000
  Fe  Fe64      1.0  0.41043  0.87353  0.34236  1.0000
  S   S126      1.0  0.43038  0.90353  0.34801  1.0000
  S   S127      1.0  0.41911  0.85593  0.31516  1.0000
  Fe  Fe65      1.0  0.43382  0.88724  0.37671  1.0000
  S   S128      1.0  0.46426  0.89114  0.39394  1.0000
  Fe  Fe66      1.0  0.39638  0.91856  0.35943  1.0000
  S   S129      1.0  0.38858  0.95579  0.35128  1.0000
  S   S130      1.0  0.41686  0.85548  0.37051  1.0000
  S   S131      1.0  0.37580  0.88966  0.35205  1.0000
  Fe  Fe67      1.0  0.08686  0.61438  0.36909  1.0000
  S   S132      1.0  0.12178  0.62819  0.36441  1.0000
  S   S133      1.0  0.05379  0.63450  0.36239  1.0000
  Fe  Fe68      1.0  0.10604  0.56668  0.38104  1.0000
  S   S134      1.0  0.14282  0.57649  0.37753  1.0000
  S   S135      1.0  0.09107  0.53249  0.38835  1.0000
  Fe  Fe69      1.0  0.12927  0.60884  0.39170  1.0000
  S   S136      1.0  0.14910  0.62602  0.41285  1.0000
  Fe  Fe70      1.0  0.13196  0.59506  0.35071  1.0000
  S   S137      1.0  0.15252  0.59368  0.32273  1.0000
  S   S138      1.0  0.09328  0.59738  0.39715  1.0000
  S   S139      1.0  0.09639  0.58297  0.35339  1.0000
  H   H352      1.0  0.07249  0.62543  0.27815  1.0000
  S   S140      1.0  0.32744  0.88760  0.48241  1.0000
  C   C351      1.0  0.16386  0.61471  0.48066  1.0000
  H   H353      1.0  0.43888  0.89032  0.43186  1.0000
  S   S141      1.0  0.10652  0.66765  0.48855  1.0000
  H   H354      1.0  0.30225  0.93557  0.48817  1.0000
  H   H355      1.0  0.01397  0.72247  0.49525  1.0000
  H   H356      1.0  0.35840  0.81871  0.37674  1.0000
  C   C352      1.0  0.32512  0.84882  0.36426  1.0000
  H   H357      1.0  0.02464  0.55844  0.37274  1.0000
  C   C353      1.0  0.13981  0.58849  0.30172  1.0000
  C   C354      1.0  0.15232  0.59200  0.28454  1.0000
  C   C355      1.0  0.11729  0.58156  0.30175  1.0000
  H   H358      1.0  0.16979  0.59727  0.28435  1.0000
  H   H359      1.0  0.10746  0.57863  0.31475  1.0000
  C   C356      1.0  0.11832  0.65788  0.46684  1.0000
  C   C357      1.0  0.10528  0.64378  0.45705  1.0000
  C   C358      1.0  0.11422  0.63443  0.44029  1.0000
  C   C359      1.0  0.13645  0.63891  0.43315  1.0000
  C   C360      1.0  0.14947  0.65316  0.44286  1.0000
  C   C361      1.0  0.14042  0.66273  0.45957  1.0000
  H   H360      1.0  0.08815  0.63995  0.46252  1.0000
  H   H361      1.0  0.10404  0.62346  0.43305  1.0000
  H   H362      1.0  0.16667  0.65677  0.43744  1.0000
  H   H363      1.0  0.15063  0.67360  0.46690  1.0000
  C   C362      1.0  0.01296  0.72601  0.50986  1.0000
  C   C363      1.0  0.02075  0.57600  0.36770  1.0000
  C   C364      1.0  0.03750  0.59191  0.36804  1.0000
  C   C365      1.0  0.03270  0.61474  0.36176  1.0000
  H   H364      1.0  0.10938  0.79055  0.48126  1.0000
  H   H365      1.0  0.03768  0.61991  0.40844  1.0000
  H   H366      1.0  0.05387  0.58650  0.37374  1.0000
  C   C366      1.0  0.32300  0.97325  0.51575  1.0000
  C   C367      1.0  0.40861  0.86489  0.29298  1.0000
  H   H367      1.0  0.01411  0.65382  0.39652  1.0000
  C   C368      1.0  0.30601  0.97956  0.48654  1.0000
  H   H368      1.0  0.36884  0.83910  0.30931  1.0000
  H   H369      1.0  0.36466  0.89648  0.27205  1.0000
  C   C369      1.0  0.38893  0.87996  0.29108  1.0000
  C   C370      1.0  0.41323  0.99367  0.35082  1.0000
  C   C371      1.0  0.49174  0.87840  0.38745  1.0000
  C   C372      1.0  0.44087  0.95643  0.31688  1.0000
  H   H370      1.0  0.38025  0.88728  0.30328  1.0000
  C   C373      1.0  0.34907  0.86498  0.42316  1.0000
  C   C374      1.0  0.35521  0.88585  0.42922  1.0000
  C   C375      1.0  0.34800  0.89255  0.44724  1.0000
  C   C376      1.0  0.33462  0.87851  0.45951  1.0000
  C   C377      1.0  0.32843  0.85762  0.45349  1.0000
  C   C378      1.0  0.33557  0.85095  0.43537  1.0000
  H   H371      1.0  0.36554  0.89686  0.42005  1.0000
  H   H372      1.0  0.35293  0.90872  0.45175  1.0000
  H   H373      1.0  0.31819  0.84661  0.46277  1.0000
  H   H374      1.0  0.33070  0.83475  0.43087  1.0000
  C   C379      1.0  0.05642  0.62317  0.31404  1.0000
  H   H375      1.0  0.48008  0.85689  0.36720  1.0000
  C   C380      1.0  0.44217  0.97543  0.37847  1.0000
  C   C381      1.0  0.42572  0.96201  0.37183  1.0000
  C   C382      1.0  0.41069  0.97143  0.35847  1.0000
  C   C383      1.0  0.42767  0.99466  0.30403  1.0000
  H   H376      1.0  0.12863  0.64741  0.32148  1.0000
  H   H377      1.0  0.42425  0.94468  0.37757  1.0000
  C   C384      1.0  0.38232  0.81878  0.33262  1.0000
  S   S142      1.0  0.26882  0.88564  0.51545  1.0000
  N   N28       1.0  0.44338  0.98119  0.31398  1.0000
  C   C385      1.0  0.37945  0.81317  0.35168  1.0000
  C   C386      1.0  0.13493  0.53283  0.33642  1.0000
  C   C387      1.0  0.40506  0.84550  0.43110  1.0000
  C   C388      1.0  0.20052  0.79031  0.50970  1.0000
  H   H378      1.0  0.35937  0.98577  0.37910  1.0000
  H   H379      1.0  0.43478  0.84381  0.27822  1.0000
  C   C389      1.0  0.00932  0.59789  0.41049  1.0000
  H   H380      1.0  0.11925  0.61292  0.49223  1.0000
  H   H381      1.0  0.17456  0.62887  0.47513  1.0000
  H   H382      1.0  0.49861  0.97897  0.37581  1.0000
  H   H383      1.0  0.25278  0.99468  0.50294  1.0000
  N   N29       1.0  0.39855  0.86416  0.45998  1.0000
  H   H384      1.0  0.30915  0.85034  0.35645  1.0000
  N   N30       1.0  0.31313  0.96498  0.50099  1.0000
  C   C390      1.0  0.38011  0.88513  0.27335  1.0000
  S   S143      1.0  0.11045  0.72798  0.51093  1.0000
  C   C391      1.0  0.42141  0.86103  0.42505  1.0000
  H   H385      1.0  0.40077  0.83250  0.42201  1.0000
  Fe  Fe71      1.0  0.30662  0.87500  0.50879  1.0000
  C   C392      1.0  0.39381  0.84723  0.44876  1.0000
  H   H386      1.0  0.49974  0.92901  0.37519  1.0000
  H   H387      1.0  0.39742  0.81187  0.32460  1.0000
  H   H388      1.0  0.13474  0.55123  0.33761  1.0000
  H   H389      1.0  0.39221  0.80172  0.35857  1.0000
  H   H390      1.0  0.33541  0.85620  0.32795  1.0000
  H   H391      1.0  0.38006  0.88358  0.48084  1.0000
  C   C393      1.0  0.10827  0.50662  0.38614  1.0000
  H   H392      1.0  0.18494  0.62826  0.50940  1.0000
  C   C394      1.0  0.26048  0.99145  0.51623  1.0000
  C   C395      1.0  0.09426  0.63690  0.31846  1.0000
  H   H393      1.0  0.08981  0.63666  0.33330  1.0000
  C   C396      1.0  0.15550  0.52041  0.33136  1.0000
  C   C397      1.0  0.01938  0.61874  0.40672  1.0000
  S   S144      1.0  0.16801  0.75771  0.51516  1.0000
  C   C398      1.0  0.12202  0.64352  0.29276  1.0000
  C   C399      1.0  0.08442  0.63090  0.28770  1.0000
  H   H394      1.0  0.08970  0.57361  0.28509  1.0000
  C   C400      1.0  0.10606  0.63743  0.28057  1.0000
  H   H395      1.0  0.06928  0.77984  0.49014  1.0000
  H   H396      1.0  0.17485  0.59839  0.48155  1.0000
  H   H397      1.0  0.32137  0.83878  0.37759  1.0000
  H   H398      1.0  0.29799  0.93526  0.51307  1.0000
  C   C401      1.0  0.21650  0.80553  0.51506  1.0000
  H   H399      1.0  0.37194  0.85486  0.48051  1.0000
  C   C402      1.0  0.10725  0.57867  0.28486  1.0000
  N   N31       1.0  0.15320  0.61977  0.49908  1.0000
  C   C403      1.0  0.13012  0.61742  0.50297  1.0000
  C   C404      1.0  0.42621  0.87815  0.43659  1.0000
  C   C405      1.0  0.01098  0.62172  0.35521  1.0000
  N   N32       1.0  0.34453  0.83788  0.35329  1.0000
  C   C406      1.0  0.11611  0.64333  0.31183  1.0000
  H   H400      1.0  0.05900  0.60854  0.32449  1.0000
  H   H401      1.0  0.29750  0.97314  0.47515  1.0000
  H   H402      1.0  0.42236  0.95254  0.31745  1.0000
  C   C407      1.0  0.16669  0.62624  0.51249  1.0000
  C   C408      1.0  0.36624  0.83413  0.32402  1.0000
  H   H403      1.0  0.44750  0.94970  0.33046  1.0000
  C   C409      1.0  0.30981  0.94038  0.50107  1.0000
  H   H404      1.0  0.32944  0.86619  0.36779  1.0000
  N   N33       1.0  0.07885  0.63055  0.30647  1.0000
  C   C410      1.0  0.34744  0.84374  0.33465  1.0000
  H   H405      1.0  0.13617  0.79558  0.50579  1.0000
  H   H406      1.0  0.14069  0.52216  0.38105  1.0000
  H   H407      1.0  0.38088  0.83528  0.45322  1.0000
  H   H408      1.0  0.45292  0.96851  0.38951  1.0000
  H   H409      1.0  0.04582  0.61752  0.30309  1.0000
  H   H410      1.0  0.05008  0.72442  0.51170  1.0000
  H   H411      1.0  0.43033  0.85989  0.41141  1.0000
  C   C411      1.0  0.36033  0.82293  0.36187  1.0000
  H   H412      1.0  0.00722  0.63937  0.35028  1.0000
  H   H413      1.0  0.17121  0.52927  0.32848  1.0000
  H   H414      1.0  0.39927  0.85999  0.48946  1.0000
  H   H415      1.0  0.15069  0.61309  0.47031  1.0000
  H   H416      1.0  0.41837  0.89284  0.46305  1.0000
  C   C412      1.0  0.11477  0.52144  0.34020  1.0000
  C   C413      1.0  0.38700  0.86566  0.47861  1.0000
  C   C414      1.0  0.46170  0.99063  0.32092  1.0000
  C   C415      1.0  0.41456  0.87947  0.45414  1.0000
  C   C416      1.0  0.11861  0.79132  0.50979  1.0000
  H   H417      1.0  0.19765  0.78934  0.49508  1.0000
  C   C417      1.0  0.13217  0.50627  0.38219  1.0000
  H   H418      1.0  0.04654  0.63750  0.32110  1.0000
  C   C418      1.0  0.41959  0.85552  0.27693  1.0000
  H   H419      1.0  0.45035  0.94710  0.30545  1.0000
  Fe  Fe72      1.0  0.11896  0.68983  0.51051  1.0000
  H   H420      1.0  0.47414  0.97999  0.32883  1.0000
  H   H421      1.0  0.13921  0.64768  0.28752  1.0000
  C   C419      1.0  0.10352  0.78850  0.49582  1.0000
  H   H422      1.0  0.01975  0.58276  0.41525  1.0000
  C   C420      1.0  0.44373  0.99814  0.37151  1.0000
  H   H423      1.0  0.09882  0.53088  0.34470  1.0000
  C   C421      1.0  0.49483  0.86200  0.37400  1.0000
  H   H424      1.0  0.22561  0.81604  0.50458  1.0000
  C   C422      1.0  0.08109  0.78246  0.50079  1.0000
  H   H425      1.0  0.32663  0.93025  0.50225  1.0000
  H   H426      1.0  0.25636  0.95487  0.51729  1.0000
  C   C423      1.0  0.00594  0.63787  0.39988  1.0000
  C   C424      1.0  0.32636  0.99668  0.51613  1.0000
  H   H427      1.0  0.00538  0.52339  0.37788  1.0000
  H   H428      1.0  0.41324  0.98717  0.29840  1.0000
  C   C425      1.0  0.03346  0.72720  0.51914  1.0000
  H   H429      1.0  0.40246  0.00076  0.33990  1.0000
  C   C426      1.0  0.07410  0.77914  0.51957  1.0000
  Fe  Fe73      1.0  0.38678  0.87270  0.66923  1.0000
  S   S145      1.0  0.42055  0.88445  0.65693  1.0000
  S   S146      1.0  0.35478  0.87726  0.65199  1.0000
  Fe  Fe74      1.0  0.40588  0.86323  0.70855  1.0000
  S   S147      1.0  0.44084  0.87447  0.69869  1.0000
  S   S148      1.0  0.40458  0.84624  0.73791  1.0000
  Fe  Fe75      1.0  0.42158  0.90311  0.68304  1.0000
  S   S149      1.0  0.43735  0.93701  0.67955  1.0000
  Fe  Fe76      1.0  0.43694  0.85483  0.67368  1.0000
  S   S150      1.0  0.46615  0.83224  0.66130  1.0000
  S   S151      1.0  0.38654  0.89379  0.69465  1.0000
  S   S152      1.0  0.40314  0.84113  0.68418  1.0000
  Fe  Fe77      1.0  0.31476  0.86004  0.55016  1.0000
  S   S153      1.0  0.27800  0.86971  0.55897  1.0000
  S   S154      1.0  0.34215  0.84548  0.56996  1.0000
  C   C427      1.0  0.34396  0.96750  0.66946  1.0000
  C   C428      1.0  0.48579  0.90084  0.65424  1.0000
  C   C429      1.0  0.01779  0.55178  0.68073  1.0000
  C   C430      1.0  0.20831  0.79324  0.54719  1.0000
  S   S155      1.0  0.24040  0.82631  0.54170  1.0000
  H   H430      1.0  0.06217  0.63077  0.68046  1.0000
  H   H431      1.0  0.33975  0.91329  0.67890  1.0000
  Fe  Fe78      1.0  0.13288  0.68690  0.55138  1.0000
  S   S156      1.0  0.12532  0.72489  0.55448  1.0000
  S   S157      1.0  0.14671  0.66004  0.57309  1.0000
  Fe  Fe79      1.0  0.09325  0.72040  0.53917  1.0000
  H   H432      1.0  0.32757  0.97295  0.67640  1.0000
  C   C431      1.0  0.03101  0.67922  0.55395  1.0000
  H   H433      1.0  0.21113  0.79425  0.56181  1.0000
  S   S158      1.0  0.09984  0.68236  0.53812  1.0000
  H   H434      1.0  0.04949  0.68035  0.55463  1.0000
  Fe  Fe80      1.0  0.11194  0.60976  0.67781  1.0000
  S   S159      1.0  0.09501  0.57627  0.67849  1.0000
  S   S160      1.0  0.10157  0.63678  0.65488  1.0000
  Fe  Fe81      1.0  0.13031  0.59885  0.71723  1.0000
  S   S161      1.0  0.11446  0.56509  0.72042  1.0000
  S   S162      1.0  0.15252  0.60703  0.74054  1.0000
  Fe  Fe82      1.0  0.12744  0.56060  0.69089  1.0000
  S   S163      1.0  0.14642  0.52625  0.68581  1.0000
  Fe  Fe83      1.0  0.08372  0.58368  0.70797  1.0000
  S   S164      1.0  0.04865  0.57971  0.72206  1.0000
  S   S165      1.0  0.14565  0.59343  0.68808  1.0000
  S   S166      1.0  0.09839  0.61812  0.70693  1.0000
  Fe  Fe84      1.0  0.26832  0.85228  0.53359  1.0000
  N   N34       1.0  0.11156  0.78816  0.52819  1.0000
  C   C432      1.0  0.45711  0.81780  0.71875  1.0000
  C   C433      1.0  0.27226  0.96452  0.54158  1.0000
  C   C434      1.0  0.01609  0.68405  0.56943  1.0000
  C   C435      1.0  0.02832  0.56865  0.70874  1.0000
  C   C436      1.0  0.03476  0.55878  0.69180  1.0000
  H   H435      1.0  0.32081  0.89036  0.62523  1.0000
  C   C437      1.0  0.49411  0.83315  0.66919  1.0000
  H   H436      1.0  0.05274  0.55657  0.68721  1.0000
  C   C438      1.0  0.15476  0.52537  0.73725  1.0000
  C   C439      1.0  0.13381  0.65371  0.59574  1.0000
  C   C440      1.0  0.14425  0.63617  0.60734  1.0000
  C   C441      1.0  0.13465  0.63067  0.62542  1.0000
  C   C442      1.0  0.11446  0.64271  0.63215  1.0000
  C   C443      1.0  0.10396  0.66016  0.62051  1.0000
  C   C444      1.0  0.11352  0.66562  0.60242  1.0000
  H   H437      1.0  0.15997  0.62687  0.60236  1.0000
  H   H438      1.0  0.14298  0.61725  0.63419  1.0000
  H   H439      1.0  0.08840  0.66966  0.62558  1.0000
  H   H440      1.0  0.10531  0.67920  0.59374  1.0000
  C   C445      1.0  0.22053  0.80719  0.53389  1.0000
  H   H441      1.0  0.08437  0.77827  0.54772  1.0000
  C   C446      1.0  0.14125  0.60809  0.76398  1.0000
  C   C447      1.0  0.19247  0.77787  0.54182  1.0000
  C   C448      1.0  0.11994  0.62188  0.52062  1.0000
  C   C449      1.0  0.15710  0.63060  0.53034  1.0000
  N   N35       1.0  0.03071  0.61766  0.67354  1.0000
  H   H442      1.0  0.13025  0.50297  0.75096  1.0000
  H   H443      1.0  0.15480  0.51721  0.72411  1.0000
  C   C450      1.0  0.03235  0.73232  0.53791  1.0000
  S   S167      1.0  0.30563  0.84099  0.52554  1.0000
  Fe  Fe85      1.0  0.28159  0.90170  0.54023  1.0000
  H   H444      1.0  0.46808  0.90722  0.65739  1.0000
  H   H445      1.0  0.09948  0.52411  0.67501  1.0000
  H   H446      1.0  0.17437  0.54906  0.70940  1.0000
  H   H447      1.0  0.04025  0.50410  0.68978  1.0000
  H   H448      1.0  0.04642  0.64369  0.71100  1.0000
  C   C451      1.0  0.33197  0.92792  0.67025  1.0000
  C   C452      1.0  0.38852  0.88195  0.76029  1.0000
  H   H449      1.0  0.05539  0.61862  0.65027  1.0000
  S   S168      1.0  0.27448  0.93662  0.55276  1.0000
  C   C453      1.0  0.27960  0.98303  0.55074  1.0000
  C   C454      1.0  0.42044  0.95999  0.68890  1.0000
  C   C455      1.0  0.39933  0.95671  0.69877  1.0000
  C   C456      1.0  0.38494  0.97574  0.70428  1.0000
  C   C457      1.0  0.46107  0.78886  0.69534  1.0000
  C   C458      1.0  0.42763  0.98218  0.68528  1.0000
  H   H450      1.0  0.39388  0.93961  0.70190  1.0000
  H   H451      1.0  0.36837  0.97324  0.71150  1.0000
  H   H452      1.0  0.44403  0.98479  0.67779  1.0000
  C   C459      1.0  0.00504  0.57071  0.71490  1.0000
  C   C460      1.0  0.01057  0.73592  0.54733  1.0000
  C   C461      1.0  0.36011  0.98383  0.66489  1.0000
  H   H453      1.0  0.45509  0.84344  0.73922  1.0000
  C   C462      1.0  0.35263  0.86954  0.62862  1.0000
  C   C463      1.0  0.36885  0.85413  0.61999  1.0000
  C   C464      1.0  0.36567  0.84738  0.60188  1.0000
  C   C465      1.0  0.34652  0.85623  0.59201  1.0000
  C   C466      1.0  0.33059  0.87208  0.60046  1.0000
  C   C467      1.0  0.33351  0.87847  0.61872  1.0000
  H   H454      1.0  0.38358  0.84699  0.62743  1.0000
  H   H455      1.0  0.37805  0.83503  0.59555  1.0000
  H   H456      1.0  0.31572  0.87900  0.59310  1.0000
  C   C468      1.0  0.36987  0.93816  0.65712  1.0000
  H   H457      1.0  0.14149  0.80208  0.53769  1.0000
  N   N36       1.0  0.28266  0.80909  0.58221  1.0000
  C   C469      1.0  0.30271  0.80994  0.59106  1.0000
  C   C470      1.0  0.26326  0.82220  0.58775  1.0000
  C   C471      1.0  0.30344  0.82348  0.60634  1.0000
  C   C472      1.0  0.26353  0.83633  0.60273  1.0000
  C   C473      1.0  0.28378  0.83690  0.61208  1.0000
  C   C474      1.0  0.28235  0.79516  0.56600  1.0000
  H   H458      1.0  0.31847  0.80056  0.58609  1.0000
  H   H459      1.0  0.24756  0.82213  0.58035  1.0000
  H   H460      1.0  0.31945  0.82420  0.61323  1.0000
  H   H461      1.0  0.24825  0.84705  0.60679  1.0000
  H   H462      1.0  0.28445  0.84807  0.62351  1.0000
  H   H463      1.0  0.28686  0.80568  0.55312  1.0000
  H   H464      1.0  0.29477  0.77983  0.56704  1.0000
  H   H465      1.0  0.26490  0.78897  0.56468  1.0000
  H   H466      1.0  0.00953  0.74007  0.56180  1.0000
  H   H467      1.0  0.02780  0.60925  0.64540  1.0000
  H   H468      1.0  0.32643  0.92106  0.65729  1.0000
  H   H469      1.0  0.13654  0.77334  0.54634  1.0000
  C   C475      1.0  0.49461  0.80195  0.70971  1.0000
  H   H470      1.0  0.48723  0.86354  0.68469  1.0000
  C   C476      1.0  0.49017  0.88321  0.64194  1.0000
  C   C477      1.0  0.46643  0.83183  0.73100  1.0000
  H   H471      1.0  0.18345  0.76727  0.55229  1.0000
  C   C478      1.0  0.18840  0.77626  0.52298  1.0000
  C   C479      1.0  0.00822  0.61419  0.67908  1.0000
  H   H472      1.0  0.45672  0.77241  0.70274  1.0000
  H   H473      1.0  0.47599  0.87576  0.63589  1.0000
  H   H474      1.0  0.19960  0.54401  0.72297  1.0000
  C   C480      1.0  0.04081  0.60854  0.65611  1.0000
  H   H475      1.0  0.32768  0.96179  0.52756  1.0000
  H   H476      1.0  0.16770  0.63605  0.54094  1.0000
  N   N37       1.0  0.34897  0.94498  0.66556  1.0000
  H   H477      1.0  0.05685  0.77395  0.52359  1.0000
  H   H478      1.0  0.37387  0.92030  0.65410  1.0000
  S   S169      1.0  0.31894  0.89263  0.53292  1.0000
  C   C481      1.0  0.49033  0.83095  0.73235  1.0000
  C   C482      1.0  0.18186  0.55238  0.72273  1.0000
  H   H479      1.0  0.03317  0.67139  0.52501  1.0000
  C   C483      1.0  0.16791  0.55372  0.75548  1.0000
  C   C484      1.0  0.01244  0.63253  0.70767  1.0000
  H   H480      1.0  0.17840  0.56807  0.75678  1.0000
  C   C485      1.0  0.08975  0.78176  0.53317  1.0000
  C   C486      1.0  0.13357  0.62840  0.53438  1.0000
  N   N38       1.0  0.47121  0.80344  0.70805  1.0000
  H   H481      1.0  0.43852  0.81868  0.71769  1.0000
  H   H482      1.0  0.02275  0.54450  0.66750  1.0000
  C   C487      1.0  0.12891  0.50318  0.68455  1.0000
  H   H483      1.0  0.39455  0.98927  0.65355  1.0000
  H   H484      1.0  0.38350  0.89146  0.74766  1.0000
  C   C488      1.0  0.39945  0.85989  0.75932  1.0000
  S   S170      1.0  0.05769  0.73445  0.55007  1.0000
  C   C489      1.0  0.14083  0.51722  0.75241  1.0000
  C   C490      1.0  0.38153  0.97696  0.65643  1.0000
  N   N39       1.0  0.16761  0.54378  0.73880  1.0000
  C   C491      1.0  0.04426  0.62832  0.68473  1.0000
  H   H485      1.0  0.44516  0.79765  0.68963  1.0000
  H   H486      1.0  0.47311  0.78538  0.68307  1.0000
  H   H487      1.0  0.31642  0.93514  0.67819  1.0000
  C   C492      1.0  0.10645  0.50685  0.67856  1.0000
  H   H488      1.0  0.04754  0.59044  0.65877  1.0000
  H   H489      1.0  0.18270  0.57134  0.72280  1.0000
  H   H490      1.0  0.28674  0.97991  0.56426  1.0000
  H   H491      1.0  0.48839  0.94249  0.66903  1.0000
  H   H492      1.0  0.10549  0.61162  0.75751  1.0000
  H   H493      1.0  0.00549  0.63773  0.72122  1.0000
  H   H494      1.0  0.12589  0.63214  0.54809  1.0000
  C   C493      1.0  0.49997  0.85017  0.68063  1.0000
  C   C494      1.0  0.02184  0.67422  0.53733  1.0000
  H   H495      1.0  0.48745  0.92084  0.68795  1.0000
  H   H496      1.0  0.40339  0.94829  0.64654  1.0000
  H   H497      1.0  0.02338  0.68855  0.58210  1.0000
  C   C495      1.0  0.38651  0.95398  0.65254  1.0000
  C   C496      1.0  0.12784  0.79040  0.54264  1.0000
  C   C497      1.0  0.03537  0.63588  0.70195  1.0000
  S   S171      1.0  0.15299  0.69147  0.52361  1.0000
  C   C498      1.0  0.39174  0.99800  0.69990  1.0000
  C   C499      1.0  0.26264  0.96884  0.52426  1.0000
  H   H498      1.0  0.10149  0.62089  0.52341  1.0000
  C   C500      1.0  0.49819  0.92754  0.67580  1.0000
  H   H499      1.0  0.49782  0.84206  0.74151  1.0000
  Fe  Fe86      1.0  0.14351  0.72956  0.52598  1.0000
  C   C501      1.0  0.11748  0.61062  0.76848  1.0000
  H   H500      1.0  0.11887  0.79740  0.55535  1.0000
  C   C502      1.0  0.14039  0.52784  0.76929  1.0000
  H   H501      1.0  0.49810  0.00020  0.70691  1.0000
  Fe  Fe87      1.0  0.39701  0.87881  0.84331  1.0000
  S   S172      1.0  0.43345  0.88800  0.84481  1.0000
  S   S173      1.0  0.38094  0.89102  0.81613  1.0000
  Fe  Fe88      1.0  0.39352  0.86273  0.88495  1.0000
  S   S174      1.0  0.42934  0.87149  0.88926  1.0000
  S   S175      1.0  0.37277  0.84768  0.91005  1.0000
  Fe  Fe89      1.0  0.42141  0.90354  0.87160  1.0000
  S   S176      1.0  0.43829  0.93570  0.87691  1.0000
  Fe  Fe90      1.0  0.43848  0.85531  0.86224  1.0000
  S   S177      1.0  0.47231  0.83426  0.86186  1.0000
  S   S178      1.0  0.38433  0.89668  0.86939  1.0000
  S   S179      1.0  0.40293  0.84413  0.85864  1.0000
  C   C503      1.0  0.39773  0.94717  0.83259  1.0000
  S   S180      1.0  0.24832  0.59795  0.00081  1.0000
  S   S181      1.0  0.18710  0.62959  0.98711  1.0000
  H   H502      1.0  0.49214  0.91934  0.91650  1.0000
  S   S182      1.0  0.41778  0.78805  0.97701  1.0000
  Fe  Fe91      1.0  0.15457  0.59297  0.88649  1.0000
  S   S183      1.0  0.13866  0.55984  0.89509  1.0000
  S   S184      1.0  0.18495  0.60050  0.90337  1.0000
  Fe  Fe92      1.0  0.12776  0.59936  0.85051  1.0000
  S   S185      1.0  0.11047  0.56662  0.85696  1.0000
  S   S186      1.0  0.11380  0.61805  0.82447  1.0000
  Fe  Fe93      1.0  0.10542  0.57791  0.88606  1.0000
  S   S187      1.0  0.07194  0.57030  0.90199  1.0000
  Fe  Fe94      1.0  0.14503  0.55184  0.86519  1.0000
  S   S188      1.0  0.15797  0.51690  0.85633  1.0000
  S   S189      1.0  0.12049  0.61200  0.87960  1.0000
  S   S190      1.0  0.16313  0.58358  0.85665  1.0000
  C   C504      1.0  0.40713  0.79478  0.89657  1.0000
  C   C505      1.0  0.41187  0.96445  0.83623  1.0000
  C   C506      1.0  0.48534  0.87449  0.87384  1.0000
  H   H503      1.0  0.11562  0.52107  0.87921  1.0000
  H   H504      1.0  0.23432  0.65001  0.94322  1.0000
  C   C507      1.0  0.04645  0.58299  0.89277  1.0000
  C   C508      1.0  0.04591  0.60467  0.88340  1.0000
  C   C509      1.0  0.02493  0.61501  0.87721  1.0000
  H   H505      1.0  0.06155  0.61372  0.88135  1.0000
  C   C510      1.0  0.10925  0.61304  0.78714  1.0000
  C   C511      1.0  0.12462  0.61208  0.80155  1.0000
  C   C512      1.0  0.14833  0.60849  0.79713  1.0000
  H   H506      1.0  0.09091  0.61602  0.79035  1.0000
  H   H507      1.0  0.16036  0.60814  0.80804  1.0000
  C   C513      1.0  0.18667  0.62138  0.96385  1.0000
  C   C514      1.0  0.16668  0.62670  0.95396  1.0000
  C   C515      1.0  0.16568  0.62023  0.93549  1.0000
  C   C516      1.0  0.18501  0.60909  0.92655  1.0000
  C   C517      1.0  0.20523  0.60442  0.93629  1.0000
  C   C518      1.0  0.20591  0.61006  0.95497  1.0000
  H   H508      1.0  0.15176  0.63562  0.96068  1.0000
  H   H509      1.0  0.15011  0.62417  0.92808  1.0000
  H   H510      1.0  0.22037  0.59607  0.92942  1.0000
  H   H511      1.0  0.22142  0.60591  0.96240  1.0000
  C   C519      1.0  0.36438  0.97366  0.83736  1.0000
  C   C520      1.0  0.40567  0.84771  0.77593  1.0000
  H   H512      1.0  0.42884  0.87134  0.93990  1.0000
  C   C521      1.0  0.42110  0.96091  0.88150  1.0000
  C   C522      1.0  0.39710  0.96086  0.88456  1.0000
  C   C523      1.0  0.32794  0.66276  0.01825  1.0000
  C   C524      1.0  0.11715  0.50439  0.87339  1.0000
  H   H513      1.0  0.38868  0.94501  0.88434  1.0000
  H   H514      1.0  0.49796  0.92861  0.83684  1.0000
  H   H515      1.0  0.37284  0.76313  0.91239  1.0000
  H   H516      1.0  0.46987  0.88244  0.86816  1.0000
  H   H517      1.0  0.02376  0.64470  0.81715  1.0000
  C   C525      1.0  0.38553  0.83421  0.93008  1.0000
  C   C526      1.0  0.37128  0.82542  0.94494  1.0000
  C   C527      1.0  0.38084  0.81226  0.96005  1.0000
  C   C528      1.0  0.40479  0.80786  0.96044  1.0000
  C   C529      1.0  0.41903  0.81765  0.94606  1.0000
  C   C530      1.0  0.40949  0.83063  0.93093  1.0000
  H   H518      1.0  0.35270  0.82818  0.94449  1.0000
  H   H519      1.0  0.36965  0.80489  0.97104  1.0000
  H   H520      1.0  0.43758  0.81435  0.94625  1.0000
  H   H521      1.0  0.42070  0.83703  0.91958  1.0000
  C   C531      1.0  0.38923  0.87908  0.79438  1.0000
  C   C532      1.0  0.40084  0.85734  0.79335  1.0000
  C   C533      1.0  0.26232  0.64637  0.96175  1.0000
  N   N40       1.0  0.37837  0.99055  0.84085  1.0000
  H   H522      1.0  0.45131  0.93430  0.91475  1.0000
  H   H523      1.0  0.20079  0.67068  0.00354  1.0000
  H   H524      1.0  0.40541  0.84761  0.80601  1.0000
  Fe  Fe95      1.0  0.40429  0.77409  0.00579  1.0000
  H   H525      1.0  0.46946  0.85564  0.94151  1.0000
  H   H526      1.0  0.25920  0.66562  0.00534  1.0000
  H   H527      1.0  0.41396  0.83058  0.77535  1.0000
  H   H528      1.0  0.33784  0.64952  0.01074  1.0000
  H   H529      1.0  0.41158  0.92455  0.91320  1.0000
  C   C534      1.0  0.47829  0.90877  0.92176  1.0000
  H   H530      1.0  0.36657  0.79367  0.91471  1.0000
  H   H531      1.0  0.45040  0.98167  0.87946  1.0000
  H   H532      1.0  0.36535  0.98151  0.89021  1.0000
  C   C535      1.0  0.44268  0.88188  0.93464  1.0000
  C   C536      1.0  0.04612  0.56124  0.84762  1.0000
  C   C537      1.0  0.05684  0.59814  0.83307  1.0000
  C   C538      1.0  0.41985  0.77291  0.92338  1.0000
  H   H533      1.0  0.40770  0.92143  0.93829  1.0000
  C   C539      1.0  0.16844  0.57084  0.97982  1.0000
  H   H534      1.0  0.47689  0.89896  0.82291  1.0000
  H   H535      1.0  0.16210  0.57865  0.99263  1.0000
  C   C540      1.0  0.01708  0.59113  0.83698  1.0000
  H   H536      1.0  0.45666  0.76961  0.92658  1.0000
  C   C541      1.0  0.19553  0.54470  0.92861  1.0000
  H   H537      1.0  0.41605  0.76337  0.93650  1.0000
  C   C542      1.0  0.25372  0.66258  0.99163  1.0000
  H   H538      1.0  0.20123  0.55866  0.99036  1.0000
  C   C543      1.0  0.44290  0.77647  0.91788  1.0000
  N   N41       1.0  0.18574  0.55286  0.94648  1.0000
  H   H539      1.0  0.27407  0.63694  0.95220  1.0000
  H   H540      1.0  0.03106  0.55349  0.85516  1.0000
  H   H541      1.0  0.21640  0.54280  0.96073  1.0000
  C   C544      1.0  0.26924  0.65086  0.97930  1.0000
  H   H542      1.0  0.02452  0.63198  0.87029  1.0000
  H   H543      1.0  0.43044  0.96086  0.83639  1.0000
  C   C545      1.0  0.05136  0.62009  0.82505  1.0000
  H   H544      1.0  0.35555  0.68605  0.01558  1.0000
  H   H545      1.0  0.20569  0.52800  0.93065  1.0000
  H   H546      1.0  0.20750  0.67049  0.96557  1.0000
  C   C546      1.0  0.19898  0.55087  0.96165  1.0000
  C   C547      1.0  0.43183  0.98155  0.88176  1.0000
  C   C548      1.0  0.16406  0.56371  0.94762  1.0000
  C   C549      1.0  0.00460  0.60340  0.87981  1.0000
  H   H547      1.0  0.15397  0.56630  0.93538  1.0000
  H   H548      1.0  0.46568  0.79265  0.89698  1.0000
  C   C550      1.0  0.21547  0.68155  0.99964  1.0000
  H   H549      1.0  0.43382  0.80855  0.87777  1.0000
  H   H550      1.0  0.36281  0.93826  0.83036  1.0000
  C   C551      1.0  0.42999  0.79848  0.89059  1.0000
  C   C552      1.0  0.01095  0.61304  0.82910  1.0000
  C   C553      1.0  0.46561  0.87296  0.93570  1.0000
  C   C554      1.0  0.41359  0.91237  0.92556  1.0000
  H   H551      1.0  0.20860  0.69816  0.99313  1.0000
  C   C555      1.0  0.48350  0.88649  0.92909  1.0000
  C   C556      1.0  0.37826  0.77849  0.91881  1.0000
  H   H552      1.0  0.34577  0.97707  0.83789  1.0000
  C   C557      1.0  0.22503  0.66546  0.96936  1.0000
  H   H553      1.0  0.49540  0.90645  0.88284  1.0000
  C   C558      1.0  0.38392  0.98151  0.88787  1.0000
  C   C559      1.0  0.15661  0.60692  0.77841  1.0000
  N   N42       1.0  0.40232  0.78234  0.91289  1.0000
  H   H554      1.0  0.07485  0.59249  0.83454  1.0000
  N   N43       1.0  0.23191  0.66971  0.98656  1.0000
  H   H555      1.0  0.28640  0.64496  0.98351  1.0000
  C   C560      1.0  0.49111  0.85101  0.87239  1.0000
  C   C561      1.0  0.37384  0.95174  0.83315  1.0000
  H   H556      1.0  0.39322  0.80240  0.88833  1.0000
  H   H557      1.0  0.40520  0.93019  0.82942  1.0000
  H   H558      1.0  0.05341  0.54969  0.83673  1.0000
  H   H559      1.0  0.18182  0.54236  0.91892  1.0000
  C   C562      1.0  0.02613  0.57141  0.89536  1.0000
  C   C563      1.0  0.02824  0.62760  0.82314  1.0000
  H   H560      1.0  0.37415  0.90816  0.77840  1.0000
  H   H561      1.0  0.06504  0.63122  0.82048  1.0000
  C   C564      1.0  0.24010  0.65376  0.95669  1.0000
  H   H562      1.0  0.05926  0.56236  0.85806  1.0000
  C   C565      1.0  0.44794  0.78942  0.90139  1.0000
  C   C566      1.0  0.38321  0.89137  0.77776  1.0000
  H   H563      1.0  0.37601  0.77604  0.93424  1.0000
  H   H564      1.0  0.40210  0.89829  0.92392  1.0000
  C   C567      1.0  0.49378  0.89455  0.82825  1.0000
  H   H565      1.0  0.02652  0.55458  0.90253  1.0000
  H   H566      1.0  0.22352  0.68514  0.01266  1.0000
  C   C568      1.0  0.45518  0.91705  0.92073  1.0000
  H   H567      1.0  0.13816  0.58199  0.96498  1.0000
  H   H568      1.0  0.20691  0.55756  0.92173  1.0000
  N   N44       1.0  0.43773  0.90345  0.92678  1.0000
  C   C569      1.0  0.19050  0.55978  0.97852  1.0000
  C   C570      1.0  0.15502  0.57270  0.96432  1.0000
  N   N45       1.0  0.03979  0.58410  0.83916  1.0000
  H   H569      1.0  0.01255  0.61597  0.91872  1.0000
  Fe  Fe96      1.0  0.21302  0.61412  0.00765  1.0000
  C   C571      1.0  0.40186  0.98623  0.84027  1.0000
  S   S191      1.0  0.23721  0.53302  0.00828  1.0000
  C   C572      1.0  0.00535  0.58144  0.88867  1.0000
  H   H570      1.0  0.49394  0.85895  0.82242  1.0000
  H   H571      1.0  0.15376  0.55473  0.78388  1.0000
  H   H572      1.0  0.17503  0.60527  0.77508  1.0000
  H   H573      1.0  0.12945  0.52194  0.78111  1.0000
  S   S192      1.0  0.40355  0.73579  0.01273  1.0000
  H   H574      1.0  0.41297  0.99946  0.84337  1.0000
  C   C573      1.0  0.15408  0.54616  0.77089  1.0000
  H   H575      1.0  0.01148  0.58894  0.93142  1.0000
  C   C574      1.0  0.24186  0.50448  0.01799  1.0000
  C   C575      1.0  0.49994  0.88822  0.88216  1.0000
  H   H576      1.0  0.50141  0.87977  0.92949  1.0000
  H   H577      1.0  0.00518  0.61516  0.94349  1.0000
  H   H578      1.0  0.00346  0.58016  0.84190  1.0000
  Fe  Fe97      1.0  0.61487  0.10028  0.18835  1.0000
  S   S193      1.0  0.61527  0.06292  0.18263  1.0000
  S   S194      1.0  0.60545  0.13018  0.16745  1.0000
  Fe  Fe98      1.0  0.62238  0.08947  0.23051  1.0000
  S   S195      1.0  0.62356  0.05139  0.22788  1.0000
  S   S196      1.0  0.62257  0.10740  0.25774  1.0000
  Fe  Fe99      1.0  0.64478  0.05814  0.20140  1.0000
  S   S197      1.0  0.67557  0.03431  0.19403  1.0000
  Fe  Fe100     1.0  0.59403  0.05903  0.20948  1.0000
  S   S198      1.0  0.56465  0.03629  0.21398  1.0000
  S   S199      1.0  0.64648  0.09599  0.20523  1.0000
  S   S200      1.0  0.59079  0.09660  0.21404  1.0000
  Fe  Fe101     1.0  0.88410  0.37411  0.17463  1.0000
  S   S201      1.0  0.92050  0.38070  0.16471  1.0000
  S   S202      1.0  0.85422  0.38430  0.15582  1.0000
  Fe  Fe102     1.0  0.89808  0.36220  0.21522  1.0000
  S   S203      1.0  0.93537  0.36803  0.20815  1.0000
  S   S204      1.0  0.88815  0.34716  0.24422  1.0000
  Fe  Fe103     1.0  0.92173  0.39871  0.19111  1.0000
  S   S205      1.0  0.94024  0.43102  0.18858  1.0000
  Fe  Fe104     1.0  0.93110  0.34947  0.18255  1.0000
  S   S206      1.0  0.95853  0.32261  0.17371  1.0000
  S   S207      1.0  0.88456  0.39473  0.20014  1.0000
  S   S208      1.0  0.89454  0.34091  0.19055  1.0000
  Fe  Fe105     1.0  0.64606  0.22070  0.04501  1.0000
  S   S209      1.0  0.65310  0.18394  0.03694  1.0000
  H   H579      1.0  0.87831  0.39723  0.06417  1.0000
  Fe  Fe106     1.0  0.59361  0.21391  0.05051  1.0000
  S   S210      1.0  0.59787  0.17702  0.04355  1.0000
  C   C576      1.0  0.96912  0.31036  0.22210  1.0000
  Fe  Fe107     1.0  0.62848  0.17477  0.06134  1.0000
  S   S211      1.0  0.63833  0.14428  0.08134  1.0000
  S   S212      1.0  0.62276  0.21092  0.07013  1.0000
  Fe  Fe108     1.0  0.80809  0.35125  0.05962  1.0000
  S   S213      1.0  0.77131  0.36534  0.06415  1.0000
  S   S214      1.0  0.83239  0.33667  0.08185  1.0000
  H   H580      1.0  0.56442  0.13371  0.19274  1.0000
  Fe  Fe109     1.0  0.78233  0.39586  0.04595  1.0000
  H   H581      1.0  0.89750  0.46868  0.13880  1.0000
  Fe  Fe110     1.0  0.76469  0.34898  0.03747  1.0000
  H   H582      1.0  0.82071  0.45104  0.11694  1.0000
  S   S215      1.0  0.81909  0.38222  0.04274  1.0000
  S   S216      1.0  0.80111  0.33262  0.03408  1.0000
  C   C577      1.0  0.53414  0.22463  0.04457  1.0000
  N   N46       1.0  0.51289  0.10978  0.19605  1.0000
  C   C578      1.0  0.52913  0.06101  0.16974  1.0000
  C   C579      1.0  0.77945  0.49982  0.04796  1.0000
  C   C580      1.0  0.69308  0.26541  0.04404  1.0000
  H   H583      1.0  0.98239  0.36235  0.18397  1.0000
  H   H584      1.0  0.54586  0.16818  0.04265  1.0000
  C   C581      1.0  0.71654  0.30678  0.03716  1.0000
  C   C582      1.0  0.84933  0.48168  0.18514  1.0000
  H   H585      1.0  0.66514  0.28384  0.03003  1.0000
  H   H586      1.0  0.71366  0.35767  0.06501  1.0000
  H   H587      1.0  0.55050  0.17814  0.07290  1.0000
  H   H588      1.0  0.99797  0.29126  0.17321  1.0000
  C   C583      1.0  0.99634  0.48839  0.17968  1.0000
  H   H589      1.0  0.51704  0.02721  0.21690  1.0000
  S   S217      1.0  0.67941  0.23889  0.04876  1.0000
  N   N47       1.0  0.88073  0.46548  0.16573  1.0000
  H   H590      1.0  0.77924  0.47578  0.07188  1.0000
  H   H591      1.0  0.53255  0.07036  0.15654  1.0000
  H   H592      1.0  0.84545  0.42430  0.18204  1.0000
  C   C584      1.0  0.52040  0.03678  0.20379  1.0000
  H   H593      1.0  0.93003  0.28128  0.22813  1.0000
  C   C585      1.0  0.51115  0.22770  0.05180  1.0000
  S   S218      1.0  0.73017  0.33334  0.03250  1.0000
  C   C586      1.0  0.97964  0.47491  0.20947  1.0000
  H   H594      1.0  0.58999  0.02387  0.17421  1.0000
  C   C587      1.0  0.92378  0.45419  0.19793  1.0000
  C   C588      1.0  0.90477  0.45084  0.21041  1.0000
  C   C589      1.0  0.89084  0.46981  0.21657  1.0000
  H   H595      1.0  0.97250  0.30096  0.20959  1.0000
  C   C590      1.0  0.92934  0.47641  0.19214  1.0000
  H   H596      1.0  0.90078  0.43371  0.21534  1.0000
  H   H597      1.0  0.87577  0.46724  0.22585  1.0000
  H   H598      1.0  0.74442  0.28841  0.05125  1.0000
  C   C591      1.0  0.84749  0.36953  0.13616  1.0000
  C   C592      1.0  0.82748  0.37686  0.12675  1.0000
  C   C593      1.0  0.82264  0.36711  0.11009  1.0000
  C   C594      1.0  0.83747  0.34943  0.10290  1.0000
  C   C595      1.0  0.85718  0.34175  0.11254  1.0000
  C   C596      1.0  0.86228  0.35185  0.12898  1.0000
  H   H599      1.0  0.81584  0.39045  0.13220  1.0000
  H   H600      1.0  0.80734  0.37311  0.10291  1.0000
  H   H601      1.0  0.86870  0.32801  0.10717  1.0000
  H   H602      1.0  0.87771  0.34597  0.13604  1.0000
  C   C597      1.0  0.61415  0.13325  0.14335  1.0000
  C   C598      1.0  0.60574  0.15280  0.13276  1.0000
  C   C599      1.0  0.61253  0.15621  0.11369  1.0000
  C   C600      1.0  0.62789  0.14009  0.10497  1.0000
  C   C601      1.0  0.63622  0.12051  0.11555  1.0000
  C   C602      1.0  0.62939  0.11708  0.13461  1.0000
  H   H603      1.0  0.59402  0.16547  0.13938  1.0000
  H   H604      1.0  0.60610  0.17143  0.10580  1.0000
  H   H605      1.0  0.64815  0.10796  0.10898  1.0000
  H   H606      1.0  0.63606  0.10200  0.14256  1.0000
  C   C603      1.0  0.54694  0.05599  0.18194  1.0000
  C   C604      1.0  0.54257  0.04370  0.19890  1.0000
  H   H607      1.0  0.65900  0.00495  0.23258  1.0000
  H   H608      1.0  0.56403  0.06149  0.17812  1.0000
  C   C605      1.0  0.89097  0.36127  0.26502  1.0000
  C   C606      1.0  0.71556  0.26710  0.04994  1.0000
  H   H609      1.0  0.72413  0.25247  0.05721  1.0000
  S   S219      1.0  0.55713  0.22746  0.05920  1.0000
  C   C607      1.0  0.89131  0.38515  0.26504  1.0000
  C   C608      1.0  0.84070  0.46005  0.18828  1.0000
  H   H610      1.0  0.91179  0.30771  0.22749  1.0000
  C   C609      1.0  0.99462  0.34751  0.18337  1.0000
  N   N48       1.0  0.94759  0.31131  0.23091  1.0000
  H   H611      1.0  0.52619  0.19410  0.08316  1.0000
  C   C610      1.0  0.98459  0.49301  0.19666  1.0000
  C   C611      1.0  0.77926  0.47767  0.05685  1.0000
  C   C612      1.0  0.72719  0.28756  0.04657  1.0000
  S   S220      1.0  0.77656  0.43086  0.05852  1.0000
  C   C613      1.0  0.98641  0.45235  0.20501  1.0000
  C   C614      1.0  0.69405  0.30508  0.03123  1.0000
  H   H612      1.0  0.93055  0.30104  0.20773  1.0000
  C   C615      1.0  0.89613  0.49206  0.21035  1.0000
  H   H613      1.0  0.70555  0.00230  0.17488  1.0000
  C   C616      1.0  0.92911  0.29966  0.22325  1.0000
  H   H614      1.0  0.80902  0.44507  0.08501  1.0000
  N   N49       1.0  0.67812  0.18478  0.09512  1.0000
  C   C617      1.0  0.67466  0.16791  0.10881  1.0000
  C   C618      1.0  0.67044  0.20707  0.09792  1.0000
  C   C619      1.0  0.66276  0.17305  0.12569  1.0000
  C   C620      1.0  0.65828  0.21279  0.11457  1.0000
  C   C621      1.0  0.65435  0.19560  0.12849  1.0000
  C   C622      1.0  0.69067  0.17881  0.07760  1.0000
  H   H615      1.0  0.68041  0.15018  0.10647  1.0000
  H   H616      1.0  0.67336  0.22053  0.08714  1.0000
  H   H617      1.0  0.65944  0.15947  0.13629  1.0000
  H   H618      1.0  0.65178  0.23039  0.11654  1.0000
  H   H619      1.0  0.64463  0.19966  0.14136  1.0000
  H   H620      1.0  0.70928  0.17493  0.07991  1.0000
  H   H621      1.0  0.68355  0.16356  0.07212  1.0000
  H   H622      1.0  0.68901  0.19301  0.06667  1.0000
  N   N50       1.0  0.71278  0.39149  0.05221  1.0000
  C   C623      1.0  0.70501  0.38609  0.03558  1.0000
  C   C624      1.0  0.72268  0.41179  0.05362  1.0000
  H   H623      1.0  0.51833  0.12443  0.14988  1.0000
  H   H624      1.0  0.82542  0.45784  0.19746  1.0000
  H   H625      1.0  0.98940  0.41365  0.18550  1.0000
  C   C625      1.0  0.70953  0.37580  0.06868  1.0000
  H   H626      1.0  0.69683  0.37016  0.03452  1.0000
  C   C626      1.0  0.85203  0.44124  0.17975  1.0000
  C   C627      1.0  0.54841  0.12775  0.18846  1.0000
  H   H627      1.0  0.84106  0.49639  0.19205  1.0000
  C   C628      1.0  0.90169  0.46824  0.15364  1.0000
  C   C629      1.0  0.59788  0.00894  0.16744  1.0000
  H   H628      1.0  0.72123  0.37907  0.07973  1.0000
  H   H629      1.0  0.69136  0.37771  0.07439  1.0000
  N   N51       1.0  0.85498  0.40616  0.08686  1.0000
  C   C630      1.0  0.86196  0.40976  0.10419  1.0000
  C   C631      1.0  0.83649  0.41898  0.07988  1.0000
  C   C632      1.0  0.84978  0.42595  0.11527  1.0000
  C   C633      1.0  0.82397  0.43535  0.09054  1.0000
  C   C634      1.0  0.83059  0.43873  0.10840  1.0000
  C   C635      1.0  0.86757  0.38883  0.07550  1.0000
  H   H630      1.0  0.87638  0.39937  0.10991  1.0000
  H   H631      1.0  0.83106  0.41646  0.06607  1.0000
  H   H632      1.0  0.85468  0.42783  0.12935  1.0000
  H   H633      1.0  0.89050  0.39543  0.25206  1.0000
  H   H634      1.0  0.85527  0.37823  0.06928  1.0000
  C   C636      1.0  0.94355  0.32226  0.24717  1.0000
  H   H635      1.0  0.62638  0.02709  0.15451  1.0000
  C   C637      1.0  0.53298  0.11740  0.20150  1.0000
  H   H636      1.0  0.94378  0.47904  0.18223  1.0000
  C   C638      1.0  0.52742  0.16732  0.04563  1.0000
  H   H637      1.0  0.53727  0.11532  0.21597  1.0000
  H   H638      1.0  0.87875  0.37657  0.08400  1.0000
  C   C639      1.0  0.51364  0.16272  0.03124  1.0000
  N   N52       1.0  0.51764  0.17170  0.06295  1.0000
  C   C640      1.0  0.61833  0.01087  0.15628  1.0000
  H   H639      1.0  0.50770  0.23241  0.06605  1.0000
  N   N53       1.0  0.99789  0.44796  0.18832  1.0000
  C   C641      1.0  0.77863  0.45812  0.04649  1.0000
  H   H640      1.0  0.73361  0.44296  0.03919  1.0000
  C   C642      1.0  0.72553  0.42699  0.03801  1.0000
  H   H641      1.0  0.72882  0.41624  0.06678  1.0000
  C   C643      1.0  0.87222  0.44425  0.16853  1.0000
  C   C644      1.0  0.68241  0.28463  0.03462  1.0000
  H   H642      1.0  0.63639  0.00509  0.19975  1.0000
  C   C645      1.0  0.67119  0.00644  0.18768  1.0000
  Fe  Fe111     1.0  0.62174  0.18948  0.01994  1.0000
  H   H643      1.0  0.96978  0.47825  0.22242  1.0000
  C   C646      1.0  0.98692  0.32174  0.22890  1.0000
  C   C647      1.0  0.86933  0.48416  0.17358  1.0000
  C   C648      1.0  0.98261  0.33397  0.24493  1.0000
  C   C649      1.0  0.53208  0.17704  0.07788  1.0000
  H   H644      1.0  0.91484  0.45385  0.15654  1.0000
  C   C650      1.0  0.98746  0.32656  0.17804  1.0000
  H   H645      1.0  0.55548  0.13759  0.15950  1.0000
  C   C651      1.0  0.96082  0.33411  0.25425  1.0000
  H   H646      1.0  0.90977  0.48436  0.15616  1.0000
  H   H647      1.0  0.98175  0.43828  0.21470  1.0000
  H   H648      1.0  0.68552  0.31973  0.02395  1.0000
  H   H649      1.0  0.92684  0.32209  0.25468  1.0000
  H   H650      1.0  0.88121  0.42939  0.16234  1.0000
  C   C652      1.0  0.54330  0.13011  0.16976  1.0000
  H   H651      1.0  0.50633  0.08852  0.22070  1.0000
  C   C653      1.0  0.91571  0.49532  0.19850  1.0000
  C   C654      1.0  0.77825  0.46091  0.02708  1.0000
  H   H652      1.0  0.53119  0.16365  0.08946  1.0000
  C   C655      1.0  0.53835  0.21881  0.02606  1.0000
  S   S221      1.0  0.61619  0.22697  0.02621  1.0000
  H   H653      1.0  0.95715  0.34345  0.26679  1.0000
  C   C656      1.0  0.52255  0.12273  0.16438  1.0000
  C   C657      1.0  0.50733  0.11284  0.17783  1.0000
  C   C658      1.0  0.50675  0.05472  0.17491  1.0000
  C   C659      1.0  0.71844  0.42123  0.02087  1.0000
  H   H654      1.0  0.55594  0.21648  0.02028  1.0000
  C   C660      1.0  0.00305  0.46564  0.17576  1.0000
  H   H655      1.0  0.99615  0.34321  0.25015  1.0000
  H   H656      1.0  0.63368  0.05924  0.26939  1.0000
  Fe  Fe112     1.0  0.59888  0.10487  0.38897  1.0000
  S   S222      1.0  0.63452  0.10743  0.37514  1.0000
  S   S223      1.0  0.57384  0.13595  0.38702  1.0000
  Fe  Fe113     1.0  0.60888  0.05620  0.40340  1.0000
  S   S224      1.0  0.64505  0.05465  0.39071  1.0000
  C   C661      1.0  0.62884  0.09322  0.27950  1.0000
  Fe  Fe114     1.0  0.64670  0.08946  0.40187  1.0000
  S   S225      1.0  0.67906  0.09805  0.41567  1.0000
  Fe  Fe115     1.0  0.62957  0.07248  0.36536  1.0000
  S   S226      1.0  0.63733  0.05674  0.33737  1.0000
  S   S227      1.0  0.61140  0.08984  0.41630  1.0000
  S   S228      1.0  0.59314  0.07131  0.37738  1.0000
  Fe  Fe116     1.0  0.94242  0.36153  0.36915  1.0000
  S   S229      1.0  0.90784  0.34987  0.36322  1.0000
  S   S230      1.0  0.97570  0.33963  0.36798  1.0000
  Fe  Fe117     1.0  0.92326  0.40948  0.37881  1.0000
  S   S231      1.0  0.88700  0.40153  0.37423  1.0000
  S   S232      1.0  0.93611  0.44168  0.38904  1.0000
  Fe  Fe118     1.0  0.89585  0.36745  0.38954  1.0000
  S   S233      1.0  0.87332  0.35128  0.41311  1.0000
  Fe  Fe119     1.0  0.90267  0.38489  0.34835  1.0000
  S   S234      1.0  0.88942  0.39742  0.32017  1.0000
  S   S235      1.0  0.93080  0.37700  0.39603  1.0000
  S   S236      1.0  0.93851  0.39494  0.35245  1.0000
  H   H657      1.0  0.53836  0.17041  0.37980  1.0000
  S   S237      1.0  0.91751  0.30114  0.48482  1.0000
  C   C662      1.0  0.99351  0.43459  0.37228  1.0000
  S   S238      1.0  0.68542  0.11338  0.50187  1.0000
  H   H658      1.0  0.84076  0.43993  0.41077  1.0000
  H   H659      1.0  0.56793  0.13564  0.30711  1.0000
  C   C663      1.0  0.57016  0.11708  0.30692  1.0000
  C   C664      1.0  0.67701  0.02570  0.50444  1.0000
  C   C665      1.0  0.89192  0.38289  0.29911  1.0000
  C   C666      1.0  0.89142  0.39589  0.28203  1.0000
  H   H660      1.0  0.82748  0.12651  0.48988  1.0000
  C   C667      1.0  0.57765  0.06979  0.30591  1.0000
  H   H661      1.0  0.94401  0.48746  0.39733  1.0000
  C   C668      1.0  0.89262  0.35892  0.29902  1.0000
  H   H662      1.0  0.89068  0.41444  0.28197  1.0000
  H   H663      1.0  0.57026  0.03041  0.38705  1.0000
  H   H664      1.0  0.57708  0.07511  0.27602  1.0000
  H   H665      1.0  0.89267  0.34873  0.31206  1.0000
  H   H666      1.0  0.88018  0.26766  0.44662  1.0000
  H   H667      1.0  0.97688  0.35895  0.40364  1.0000
  H   H668      1.0  0.96464  0.47037  0.36203  1.0000
  C   C669      1.0  0.91900  0.46754  0.38601  1.0000
  C   C670      1.0  0.63415  0.00208  0.36268  1.0000
  C   C671      1.0  0.89706  0.46809  0.37897  1.0000
  S   S239      1.0  0.90719  0.24467  0.51581  1.0000
  H   H669      1.0  0.89063  0.45253  0.37456  1.0000
  C   C672      1.0  0.88516  0.33940  0.43405  1.0000
  C   C673      1.0  0.87076  0.32930  0.44819  1.0000
  C   C674      1.0  0.88011  0.31821  0.46431  1.0000
  C   C675      1.0  0.90396  0.31723  0.46637  1.0000
  C   C676      1.0  0.91815  0.32802  0.45253  1.0000
  C   C677      1.0  0.90885  0.33899  0.43650  1.0000
  H   H670      1.0  0.85237  0.32957  0.44650  1.0000
  H   H671      1.0  0.86898  0.30995  0.47488  1.0000
  H   H672      1.0  0.93660  0.32737  0.45402  1.0000
  H   H673      1.0  0.92020  0.34658  0.42588  1.0000
  C   C678      1.0  0.63486  0.07140  0.31524  1.0000
  C   C679      1.0  0.63614  0.05854  0.29928  1.0000
  C   C680      1.0  0.63100  0.09529  0.31322  1.0000
  H   H674      1.0  0.63925  0.04007  0.30071  1.0000
  H   H675      1.0  0.63025  0.10539  0.32536  1.0000
  H   H676      1.0  0.92421  0.40090  0.44542  1.0000
  C   C681      1.0  0.57644  0.08055  0.32280  1.0000
  H   H677      1.0  0.57060  0.11739  0.27684  1.0000
  C   C682      1.0  0.68105  0.09910  0.44012  1.0000
  C   C683      1.0  0.66153  0.09848  0.45245  1.0000
  C   C684      1.0  0.66339  0.10181  0.47151  1.0000
  C   C685      1.0  0.68480  0.10551  0.47851  1.0000
  C   C686      1.0  0.70449  0.10524  0.46632  1.0000
  C   C687      1.0  0.70256  0.10223  0.44719  1.0000
  H   H678      1.0  0.64487  0.09611  0.44723  1.0000
  H   H679      1.0  0.64804  0.10209  0.48080  1.0000
  H   H680      1.0  0.72101  0.10837  0.47144  1.0000
  H   H681      1.0  0.71775  0.10280  0.43775  1.0000
  C   C688      1.0  0.53410  0.11259  0.38399  1.0000
  C   C689      1.0  0.54428  0.13370  0.38360  1.0000
  C   C690      1.0  0.53070  0.15406  0.38012  1.0000
  H   H682      1.0  0.54440  0.09676  0.38687  1.0000
  C   C691      1.0  0.57208  0.11487  0.34093  1.0000
  H   H683      1.0  0.71611  0.06570  0.49411  1.0000
  H   H684      1.0  0.56178  0.13167  0.34056  1.0000
  H   H685      1.0  0.57946  0.07019  0.33555  1.0000
  H   H686      1.0  0.80938  0.08952  0.48752  1.0000
  C   C692      1.0  0.92388  0.41714  0.43652  1.0000
  H   H687      1.0  0.93627  0.41481  0.42429  1.0000
  H   H688      1.0  0.58161  0.05139  0.30563  1.0000
  S   S240      1.0  0.75271  0.09994  0.51750  1.0000
  N   N54       1.0  0.99683  0.45905  0.37348  1.0000
  C   C693      1.0  0.98031  0.47536  0.36765  1.0000
  C   C694      1.0  0.63304  0.06936  0.28151  1.0000
  C   C695      1.0  0.99141  0.36448  0.39487  1.0000
  C   C696      1.0  0.81501  0.09421  0.50077  1.0000
  C   C697      1.0  0.57140  0.10688  0.28977  1.0000
  N   N55       1.0  0.57240  0.10388  0.32315  1.0000
  C   C698      1.0  0.85747  0.43534  0.41640  1.0000
  H   H689      1.0  0.58998  0.11763  0.34442  1.0000
  C   C699      1.0  0.88309  0.48875  0.37818  1.0000
  C   C700      1.0  0.72343  0.02900  0.49416  1.0000
  C   C701      1.0  0.57651  0.01261  0.38882  1.0000
  Fe  Fe120     1.0  0.90350  0.28327  0.51183  1.0000
  N   N56       1.0  0.90069  0.42349  0.43012  1.0000
  C   C702      1.0  0.86437  0.41236  0.42067  1.0000
  H   H690      1.0  0.64614  0.00959  0.35173  1.0000
  C   C703      1.0  0.99547  0.35658  0.37694  1.0000
  H   H691      1.0  0.86739  0.47026  0.41546  1.0000
  H   H692      1.0  0.65892  0.02458  0.50880  1.0000
  H   H693      1.0  0.90599  0.45930  0.42710  1.0000
  H   H694      1.0  0.50684  0.00561  0.39944  1.0000
  H   H695      1.0  0.89150  0.38881  0.43060  1.0000
  C   C704      1.0  0.98319  0.49873  0.36910  1.0000
  H   H696      1.0  0.89130  0.32975  0.28222  1.0000
  H   H697      1.0  0.62501  0.12461  0.29396  1.0000
  N   N57       1.0  0.69115  0.00617  0.50223  1.0000
  C   C705      1.0  0.89414  0.44606  0.42580  1.0000
  C   C706      1.0  0.89182  0.34821  0.28206  1.0000
  H   H698      1.0  0.95682  0.29747  0.39655  1.0000
  C   C707      1.0  0.87237  0.45235  0.41908  1.0000
  N   N58       1.0  0.92306  0.29436  0.40976  1.0000
  C   C708      1.0  0.89999  0.29573  0.40672  1.0000
  C   C709      1.0  0.93101  0.28370  0.42582  1.0000
  C   C710      1.0  0.88427  0.28576  0.41973  1.0000
  C   C711      1.0  0.91576  0.27361  0.43915  1.0000
  C   C712      1.0  0.89226  0.27464  0.43604  1.0000
  C   C713      1.0  0.93907  0.30592  0.39642  1.0000
  H   H699      1.0  0.89347  0.30528  0.39451  1.0000
  H   H700      1.0  0.94911  0.28354  0.42870  1.0000
  H   H701      1.0  0.86591  0.28758  0.41754  1.0000
  H   H702      1.0  0.79979  0.21218  0.51594  1.0000
  C   C714      1.0  0.57508  0.08308  0.28931  1.0000
  C   C715      1.0  0.62812  0.10613  0.29541  1.0000
  H   H703      1.0  0.93356  0.30567  0.38192  1.0000
  H   H704      1.0  0.93982  0.32409  0.39985  1.0000
  N   N59       1.0  0.64782  0.15487  0.44000  1.0000
  C   C716      1.0  0.66102  0.15272  0.42372  1.0000
  C   C717      1.0  0.62422  0.15557  0.43999  1.0000
  C   C718      1.0  0.65064  0.15116  0.40687  1.0000
  C   C719      1.0  0.61328  0.15406  0.42337  1.0000
  C   C720      1.0  0.62663  0.15204  0.40672  1.0000
  C   C721      1.0  0.65893  0.15778  0.45736  1.0000
  H   H705      1.0  0.67974  0.15154  0.42371  1.0000
  H   H706      1.0  0.61373  0.15723  0.45288  1.0000
  H   H707      1.0  0.66123  0.14871  0.39410  1.0000
  H   H708      1.0  0.59457  0.15429  0.42329  1.0000
  H   H709      1.0  0.61834  0.15092  0.39375  1.0000
  H   H710      1.0  0.64933  0.14961  0.46954  1.0000
  H   H711      1.0  0.67676  0.14943  0.45707  1.0000
  C   C722      1.0  0.88618  0.40672  0.42753  1.0000
  H   H712      1.0  0.65980  0.17632  0.45952  1.0000
  H   H713      1.0  0.98938  0.42675  0.38642  1.0000
  C   C723      1.0  0.70908  0.04898  0.49615  1.0000
  H   H714      1.0  0.86589  0.48903  0.37317  1.0000
  C   C724      1.0  0.58896  0.00501  0.40428  1.0000
  C   C725      1.0  0.92720  0.48782  0.39163  1.0000
  H   H715      1.0  0.85310  0.39889  0.41841  1.0000
  C   C726      1.0  0.82522  0.11488  0.50208  1.0000
  H   H716      1.0  0.92195  0.26600  0.45223  1.0000
  C   C727      1.0  0.50725  0.15353  0.37698  1.0000
  S   S241      1.0  0.59715  0.02468  0.41955  1.0000
  H   H717      1.0  0.67457  0.06290  0.50326  1.0000
  H   H718      1.0  0.92980  0.43070  0.44488  1.0000
  C   C728      1.0  0.68572  0.04738  0.50133  1.0000
  H   H719      1.0  0.56399  0.10403  0.35236  1.0000
  C   C729      1.0  0.71412  0.00760  0.49723  1.0000
  H   H720      1.0  0.63862  0.00730  0.39907  1.0000
  H   H721      1.0  0.62434  0.01651  0.36966  1.0000
  H   H722      1.0  0.74181  0.03005  0.49084  1.0000
  H   H723      1.0  0.97909  0.43175  0.36343  1.0000
  C   C730      1.0  0.51038  0.11205  0.38077  1.0000
  H   H724      1.0  0.56209  0.00298  0.36381  1.0000
  H   H725      1.0  0.00285  0.38593  0.41531  1.0000
  H   H726      1.0  0.80350  0.06386  0.51569  1.0000
  C   C731      1.0  0.81164  0.07979  0.51679  1.0000
  H   H727      1.0  0.96933  0.26488  0.51931  1.0000
  C   C732      1.0  0.83228  0.12068  0.51924  1.0000
  Fe  Fe121     1.0  0.61405  0.05202  0.71166  1.0000
  S   S242      1.0  0.64305  0.07193  0.71997  1.0000
  H   H728      1.0  0.55728  0.03350  0.72181  1.0000
  Fe  Fe122     1.0  0.58797  0.09352  0.69476  1.0000
  S   S243      1.0  0.61453  0.11687  0.70200  1.0000
  S   S244      1.0  0.55730  0.11074  0.68070  1.0000
  Fe  Fe123     1.0  0.64044  0.08967  0.69138  1.0000
  S   S245      1.0  0.67133  0.10260  0.67390  1.0000
  Fe  Fe124     1.0  0.61466  0.09720  0.72976  1.0000
  S   S246      1.0  0.61130  0.11730  0.75591  1.0000
  S   S247      1.0  0.61373  0.06746  0.68223  1.0000
  S   S248      1.0  0.58581  0.07614  0.72330  1.0000
  H   H729      1.0  0.52069  0.03949  0.67148  1.0000
  Fe  Fe125     1.0  0.88946  0.28884  0.55355  1.0000
  S   S249      1.0  0.89191  0.25069  0.56033  1.0000
  S   S250      1.0  0.87809  0.31710  0.57346  1.0000
  Fe  Fe126     1.0  0.92488  0.25092  0.54181  1.0000
  S   S251      1.0  0.95875  0.23306  0.55091  1.0000
  Fe  Fe127     1.0  0.87381  0.24747  0.53376  1.0000
  C   C733      1.0  0.75448  0.00848  0.53087  1.0000
  S   S252      1.0  0.92326  0.28911  0.53686  1.0000
  H   H730      1.0  0.94581  0.36049  0.64825  1.0000
  H   H731      1.0  0.53265  0.06968  0.72510  1.0000
  S   S253      1.0  0.71659  0.12649  0.54780  1.0000
  C   C734      1.0  0.98650  0.37480  0.70531  1.0000
  Fe  Fe128     1.0  0.74852  0.06785  0.53600  1.0000
  S   S254      1.0  0.71015  0.07298  0.53909  1.0000
  C   C735      1.0  0.97752  0.28213  0.56990  1.0000
  Fe  Fe129     1.0  0.71501  0.09257  0.56435  1.0000
  S   S255      1.0  0.68860  0.08273  0.58785  1.0000
  S   S256      1.0  0.75353  0.08488  0.56240  1.0000
  Fe  Fe130     1.0  0.90424  0.35968  0.67466  1.0000
  S   S257      1.0  0.90938  0.39679  0.66643  1.0000
  S   S258      1.0  0.90995  0.32954  0.65555  1.0000
  Fe  Fe131     1.0  0.90165  0.36890  0.71710  1.0000
  S   S259      1.0  0.90662  0.40643  0.71178  1.0000
  S   S260      1.0  0.89761  0.35114  0.74605  1.0000
  Fe  Fe132     1.0  0.88226  0.40485  0.68911  1.0000
  S   S261      1.0  0.85295  0.43195  0.68637  1.0000
  Fe  Fe133     1.0  0.93329  0.39515  0.68984  1.0000
  S   S262      1.0  0.96682  0.41203  0.68544  1.0000
  S   S263      1.0  0.87495  0.36776  0.69583  1.0000
  S   S264      1.0  0.93034  0.35758  0.69665  1.0000
  C   C736      1.0  0.80618  0.19941  0.52624  1.0000
  C   C737      1.0  0.83713  0.47464  0.69604  1.0000
  C   C738      1.0  0.85685  0.46047  0.69154  1.0000
  C   C739      1.0  0.87871  0.46927  0.69142  1.0000
  C   C740      1.0  0.50577  0.01529  0.71114  1.0000
  H   H732      1.0  0.82023  0.46798  0.69616  1.0000
  H   H733      1.0  0.89403  0.45839  0.68790  1.0000
  H   H734      1.0  0.59001  0.02078  0.68724  1.0000
  H   H735      1.0  0.84586  0.40123  0.71825  1.0000
  C   C741      1.0  0.52926  0.01441  0.71430  1.0000
  H   H736      1.0  0.96932  0.37125  0.71058  1.0000
  H   H737      1.0  0.64209  0.07810  0.76792  1.0000
  N   N60       1.0  0.98035  0.35244  0.65678  1.0000
  C   C742      1.0  0.98984  0.29614  0.55710  1.0000
  C   C743      1.0  0.88788  0.32055  0.59599  1.0000
  C   C744      1.0  0.90208  0.30365  0.60512  1.0000
  C   C745      1.0  0.90866  0.30675  0.62330  1.0000
  C   C746      1.0  0.90126  0.32678  0.63255  1.0000
  C   C747      1.0  0.88717  0.34371  0.62337  1.0000
  C   C748      1.0  0.88044  0.34053  0.60525  1.0000
  H   H738      1.0  0.90783  0.28813  0.59825  1.0000
  H   H739      1.0  0.91950  0.29350  0.63028  1.0000
  H   H740      1.0  0.88127  0.35917  0.63028  1.0000
  H   H741      1.0  0.86939  0.35370  0.59836  1.0000
  C   C749      1.0  0.80133  0.16323  0.54442  1.0000
  H   H742      1.0  0.63732  0.09051  0.59216  1.0000
  H   H743      1.0  0.95887  0.28206  0.56956  1.0000
  C   C750      1.0  0.82674  0.20280  0.53481  1.0000
  H   H744      1.0  0.83345  0.11086  0.54837  1.0000
  H   H745      1.0  0.80709  0.08150  0.56229  1.0000
  H   H746      1.0  0.82818  0.15396  0.56343  1.0000
  C   C751      1.0  0.96918  0.47374  0.68997  1.0000
  C   C752      1.0  0.98513  0.24156  0.53986  1.0000
  C   C753      1.0  0.53896  0.03405  0.71943  1.0000
  C   C754      1.0  0.98940  0.26725  0.58245  1.0000
  C   C755      1.0  0.58751  0.00388  0.69367  1.0000
  Fe  Fe134     1.0  0.75532  0.11789  0.54422  1.0000
  C   C756      1.0  0.81388  0.07105  0.55048  1.0000
  S   S265      1.0  0.84121  0.22857  0.52878  1.0000
  H   H747      1.0  0.96099  0.38449  0.65412  1.0000
  H   H748      1.0  0.80495  0.30453  0.56280  1.0000
  H   H749      1.0  0.82332  0.31920  0.57666  1.0000
  C   C757      1.0  0.67729  0.09571  0.65033  1.0000
  C   C758      1.0  0.66484  0.07981  0.64214  1.0000
  C   C759      1.0  0.66918  0.07554  0.62317  1.0000
  C   C760      1.0  0.68594  0.08713  0.61209  1.0000
  C   C761      1.0  0.69866  0.10280  0.62031  1.0000
  C   C762      1.0  0.69436  0.10702  0.63936  1.0000
  H   H750      1.0  0.65177  0.07087  0.65039  1.0000
  H   H751      1.0  0.65936  0.06326  0.61699  1.0000
  H   H752      1.0  0.71157  0.11188  0.61196  1.0000
  H   H753      1.0  0.70415  0.11931  0.64556  1.0000
  C   C763      1.0  0.53396  0.09418  0.67767  1.0000
  C   C764      1.0  0.53713  0.07043  0.67603  1.0000
  C   C765      1.0  0.67006  0.12739  0.72129  1.0000
  H   H754      1.0  0.55420  0.06184  0.67687  1.0000
  C   C766      1.0  0.99066  0.31829  0.67560  1.0000
  C   C767      1.0  0.66140  0.13867  0.73712  1.0000
  C   C768      1.0  0.85030  0.42540  0.73888  1.0000
  S   S266      1.0  0.61405  0.01504  0.72186  1.0000
  C   C769      1.0  0.51817  0.05783  0.67292  1.0000
  Fe  Fe135     1.0  0.71408  0.10608  0.52229  1.0000
  C   C770      1.0  0.84709  0.40367  0.73295  1.0000
  N   N61       1.0  0.81799  0.08595  0.53367  1.0000
  H   H755      1.0  0.72413  0.02292  0.54573  1.0000
  H   H756      1.0  0.90383  0.39868  0.75397  1.0000
  S   S267      1.0  0.76807  0.03469  0.52738  1.0000
  H   H757      1.0  0.84394  0.36811  0.74123  1.0000
  H   H758      1.0  0.77789  0.17761  0.52415  1.0000
  H   H759      1.0  0.00235  0.34418  0.71879  1.0000
  C   C771      1.0  0.97418  0.33268  0.66637  1.0000
  C   C772      1.0  0.96301  0.36777  0.64745  1.0000
  C   C773      1.0  0.83907  0.49724  0.70074  1.0000
  N   N62       1.0  0.66773  0.13077  0.75448  1.0000
  C   C774      1.0  0.82869  0.10582  0.53495  1.0000
  C   C775      1.0  0.90176  0.36469  0.76687  1.0000
  C   C776      1.0  0.99010  0.39437  0.69364  1.0000
  H   H760      1.0  0.85045  0.18815  0.55481  1.0000
  H   H761      1.0  0.96828  0.37074  0.63247  1.0000
  H   H762      1.0  0.85177  0.43983  0.72874  1.0000
  H   H763      1.0  0.85449  0.44518  0.76257  1.0000
  C   C777      1.0  0.85176  0.42839  0.75784  1.0000
  C   C778      1.0  0.68254  0.11161  0.75660  1.0000
  S   S268      1.0  0.78624  0.13805  0.55119  1.0000
  H   H764      1.0  0.70289  0.08446  0.74281  1.0000
  H   H765      1.0  0.83018  0.06126  0.55423  1.0000
  S   S269      1.0  0.86924  0.28607  0.52806  1.0000
  H   H766      1.0  0.95828  0.46462  0.70085  1.0000
  C   C779      1.0  0.51184  0.10520  0.67640  1.0000
  C   C780      1.0  0.82197  0.16654  0.55293  1.0000
  N   N63       1.0  0.83015  0.28266  0.57670  1.0000
  C   C781      1.0  0.84057  0.28196  0.59328  1.0000
  C   C782      1.0  0.82719  0.26278  0.56833  1.0000
  C   C783      1.0  0.84823  0.26097  0.60196  1.0000
  C   C784      1.0  0.83428  0.24147  0.57679  1.0000
  C   C785      1.0  0.84494  0.24059  0.59367  1.0000
  C   C786      1.0  0.82282  0.30475  0.56737  1.0000
  H   H767      1.0  0.84353  0.29773  0.59970  1.0000
  H   H768      1.0  0.81957  0.26328  0.55490  1.0000
  H   H769      1.0  0.85696  0.26061  0.61488  1.0000
  H   H770      1.0  0.83196  0.22579  0.57003  1.0000
  H   H771      1.0  0.85098  0.22417  0.60012  1.0000
  H   H772      1.0  0.83474  0.30835  0.55505  1.0000
  C   C787      1.0  0.84572  0.38509  0.74605  1.0000
  H   H773      1.0  0.98075  0.30704  0.54679  1.0000
  C   C788      1.0  0.90338  0.38842  0.76696  1.0000
  C   C789      1.0  0.52494  0.05440  0.72131  1.0000
  H   H774      1.0  0.66482  0.13346  0.70753  1.0000
  C   C790      1.0  0.83466  0.18602  0.54810  1.0000
  N   N64       1.0  0.84717  0.38815  0.76461  1.0000
  H   H775      1.0  0.80074  0.05862  0.54850  1.0000
  H   H776      1.0  0.95640  0.32804  0.66715  1.0000
  C   C791      1.0  0.73257  0.00766  0.53992  1.0000
  H   H777      1.0  0.62016  0.11565  0.58358  1.0000
  N   N65       1.0  0.62471  0.11351  0.61273  1.0000
  C   C792      1.0  0.60453  0.10466  0.61957  1.0000
  C   C793      1.0  0.63690  0.12597  0.62372  1.0000
  C   C794      1.0  0.59586  0.10852  0.63775  1.0000
  C   C795      1.0  0.62882  0.12998  0.64202  1.0000
  C   C796      1.0  0.60807  0.12135  0.64897  1.0000
  C   C797      1.0  0.63324  0.10923  0.59358  1.0000
  H   H778      1.0  0.59508  0.09446  0.61097  1.0000
  H   H779      1.0  0.65333  0.13230  0.61858  1.0000
  H   H780      1.0  0.57983  0.10154  0.64323  1.0000
  H   H781      1.0  0.63889  0.13922  0.65090  1.0000
  H   H782      1.0  0.60150  0.12442  0.66308  1.0000
  H   H783      1.0  0.64945  0.11778  0.58958  1.0000
  C   C798      1.0  0.88062  0.49236  0.69562  1.0000
  H   H784      1.0  0.98558  0.30296  0.68357  1.0000
  H   H785      1.0  0.96822  0.46523  0.67668  1.0000
  H   H786      1.0  0.69184  0.09892  0.71111  1.0000
  N   N66       1.0  0.99328  0.47284  0.69507  1.0000
  H   H787      1.0  0.97996  0.25560  0.59187  1.0000
  C   C799      1.0  0.98542  0.25789  0.52484  1.0000
  C   C800      1.0  0.68526  0.10794  0.72331  1.0000
  C   C801      1.0  0.79366  0.17977  0.53088  1.0000
  H   H788      1.0  0.96168  0.49178  0.68825  1.0000
  C   C802      1.0  0.69143  0.09984  0.74108  1.0000
  H   H789      1.0  0.50937  0.12360  0.67757  1.0000
  H   H790      1.0  0.99227  0.43921  0.70819  1.0000
  H   H791      1.0  0.64923  0.15353  0.73548  1.0000
  C   C803      1.0  0.00273  0.45351  0.70417  1.0000
  C   C804      1.0  0.00274  0.35833  0.65600  1.0000
  H   H792      1.0  0.89742  0.49920  0.69546  1.0000
  H   H793      1.0  0.64149  0.15083  0.76938  1.0000
  H   H794      1.0  0.83978  0.13694  0.52054  1.0000
  Fe  Fe136     1.0  0.62943  0.09375  0.86235  1.0000
  S   S270      1.0  0.59296  0.08405  0.86598  1.0000
  S   S271      1.0  0.64868  0.08498  0.83499  1.0000
  Fe  Fe137     1.0  0.62989  0.10649  0.90341  1.0000
  S   S272      1.0  0.59337  0.09741  0.90978  1.0000
  S   S273      1.0  0.65138  0.11506  0.92722  1.0000
  Fe  Fe138     1.0  0.60286  0.06667  0.89304  1.0000
  S   S274      1.0  0.58867  0.03290  0.90272  1.0000
  Fe  Fe139     1.0  0.58669  0.11558  0.88216  1.0000
  S   S275      1.0  0.55323  0.13634  0.87810  1.0000
  S   S276      1.0  0.64005  0.07395  0.88865  1.0000
  S   S277      1.0  0.62266  0.12720  0.87657  1.0000
  C   C805      1.0  0.86760  0.31562  0.93047  1.0000
  S   S278      1.0  0.61327  0.18227  0.99042  1.0000
  C   C806      1.0  0.90148  0.31182  0.90949  1.0000
  H   H795      1.0  0.61380  0.12054  0.82357  1.0000
  S   S279      1.0  0.83833  0.36878  0.99464  1.0000
  Fe  Fe140     1.0  0.88098  0.37179  0.88996  1.0000
  S   S280      1.0  0.91420  0.37063  0.90412  1.0000
  S   S281      1.0  0.84700  0.36565  0.90628  1.0000
  Fe  Fe141     1.0  0.90419  0.38570  0.85150  1.0000
  S   S282      1.0  0.93924  0.38615  0.86319  1.0000
  S   S283      1.0  0.89889  0.40088  0.82201  1.0000
  Fe  Fe142     1.0  0.93013  0.35361  0.87897  1.0000
  S   S284      1.0  0.95559  0.32359  0.88473  1.0000
  Fe  Fe143     1.0  0.92031  0.40307  0.88728  1.0000
  S   S285      1.0  0.93271  0.43164  0.90245  1.0000
  S   S286      1.0  0.89614  0.35154  0.86580  1.0000
  S   S287      1.0  0.88605  0.40572  0.87460  1.0000
  H   H796      1.0  0.98241  0.38890  0.90169  1.0000
  H   H797      1.0  0.67848  0.06910  0.92867  1.0000
  C   C807      1.0  0.93798  0.47209  0.85532  1.0000
  C   C808      1.0  0.93407  0.45337  0.86787  1.0000
  C   C809      1.0  0.93725  0.45502  0.88681  1.0000
  C   C810      1.0  0.94406  0.47540  0.89327  1.0000
  H   H798      1.0  0.65962  0.13245  0.78379  1.0000
  H   H799      1.0  0.92866  0.43769  0.86282  1.0000
  H   H800      1.0  0.94659  0.47661  0.90792  1.0000
  H   H801      1.0  0.85894  0.42854  0.90798  1.0000
  C   C811      1.0  0.66528  0.19891  0.96077  1.0000
  C   C812      1.0  0.90333  0.39909  0.78399  1.0000
  C   C813      1.0  0.90202  0.38616  0.80108  1.0000
  C   C814      1.0  0.90144  0.36229  0.80099  1.0000
  H   H802      1.0  0.58847  0.07675  0.81072  1.0000
  C   C815      1.0  0.84472  0.36860  0.77815  1.0000
  H   H803      1.0  0.90390  0.41755  0.78392  1.0000
  H   H804      1.0  0.90043  0.35212  0.81404  1.0000
  C   C816      1.0  0.61168  0.11791  0.79389  1.0000
  C   C817      1.0  0.83900  0.37017  0.96997  1.0000
  C   C818      1.0  0.82057  0.36418  0.96008  1.0000
  C   C819      1.0  0.82301  0.36343  0.94050  1.0000
  C   C820      1.0  0.84381  0.36869  0.93067  1.0000
  C   C821      1.0  0.86200  0.37515  0.94056  1.0000
  C   C822      1.0  0.85958  0.37589  0.96007  1.0000
  H   H805      1.0  0.80468  0.35962  0.96754  1.0000
  H   H806      1.0  0.80883  0.35841  0.93297  1.0000
  H   H807      1.0  0.87808  0.37924  0.93326  1.0000
  H   H808      1.0  0.87394  0.38049  0.96762  1.0000
  H   H809      1.0  0.87329  0.30058  0.97215  1.0000
  H   H810      1.0  0.93567  0.47077  0.84063  1.0000
  H   H811      1.0  0.68088  0.21944  0.01073  1.0000
  C   C823      1.0  0.65934  0.01850  0.91716  1.0000
  C   C824      1.0  0.53231  0.11658  0.87643  1.0000
  C   C825      1.0  0.53663  0.09384  0.88321  1.0000
  H   H812      1.0  0.65719  0.06653  0.79896  1.0000
  H   H813      1.0  0.88700  0.46525  0.93852  1.0000
  H   H814      1.0  0.55224  0.08870  0.89016  1.0000
  H   H815      1.0  0.90001  0.33325  0.78403  1.0000
  C   C826      1.0  0.63995  0.13264  0.94533  1.0000
  C   C827      1.0  0.61906  0.14588  0.94385  1.0000
  C   C828      1.0  0.61097  0.16049  0.95805  1.0000
  C   C829      1.0  0.62342  0.16180  0.97404  1.0000
  C   C830      1.0  0.64411  0.14822  0.97574  1.0000
  C   C831      1.0  0.65241  0.13386  0.96136  1.0000
  H   H816      1.0  0.60935  0.14522  0.93157  1.0000
  H   H817      1.0  0.59502  0.17102  0.95655  1.0000
  H   H818      1.0  0.65393  0.14914  0.98791  1.0000
  H   H819      1.0  0.66862  0.12370  0.96263  1.0000
  H   H820      1.0  0.85191  0.32229  0.96433  1.0000
  C   C832      1.0  0.63353  0.22763  0.96383  1.0000
  C   C833      1.0  0.61988  0.11114  0.81152  1.0000
  C   C834      1.0  0.63651  0.09275  0.81340  1.0000
  C   C835      1.0  0.64433  0.08079  0.79760  1.0000
  C   C836      1.0  0.98341  0.33020  0.89026  1.0000
  C   C837      1.0  0.66732  0.05504  0.92828  1.0000
  H   H821      1.0  0.98393  0.30580  0.91385  1.0000
  H   H822      1.0  0.93397  0.31103  0.92237  1.0000
  C   C838      1.0  0.58271  0.03380  0.84433  1.0000
  H   H823      1.0  0.59816  0.02586  0.94497  1.0000
  H   H824      1.0  0.84891  0.31742  0.93248  1.0000
  C   C839      1.0  0.51143  0.12322  0.86827  1.0000
  H   H825      1.0  0.63985  0.07157  0.94498  1.0000
  H   H826      1.0  0.55284  0.02962  0.87801  1.0000
  H   H827      1.0  0.69099  0.03504  0.91041  1.0000
  C   C840      1.0  0.98820  0.41702  0.88150  1.0000
  C   C841      1.0  0.64345  0.23544  0.97927  1.0000
  H   H828      1.0  0.67085  0.15795  0.77217  1.0000
  H   H829      1.0  0.62599  0.00683  0.92565  1.0000
  C   C842      1.0  0.99343  0.31836  0.90552  1.0000
  H   H830      1.0  0.63665  0.20248  0.94296  1.0000
  H   H831      1.0  0.62989  0.02580  0.87830  1.0000
  H   H832      1.0  0.52411  0.06006  0.88644  1.0000
  C   C843      1.0  0.90121  0.35164  0.78395  1.0000
  H   H833      1.0  0.86320  0.43410  0.93161  1.0000
  C   C844      1.0  0.62243  0.00950  0.88138  1.0000
  C   C845      1.0  0.63761  0.02034  0.92665  1.0000
  C   C846      1.0  0.55704  0.06984  0.82690  1.0000
  H   H834      1.0  0.77685  0.48516  0.00327  1.0000
  N   N67       1.0  0.63085  0.03919  0.93654  1.0000
  C   C847      1.0  0.65963  0.14369  0.77074  1.0000
  C   C848      1.0  0.87782  0.46526  0.89295  1.0000
  C   C849      1.0  0.89225  0.49367  0.91873  1.0000
  C   C850      1.0  0.90480  0.31423  0.94254  1.0000
  H   H835      1.0  0.66192  0.24482  0.00968  1.0000
  C   C851      1.0  0.60200  0.00833  0.89260  1.0000
  N   N68       1.0  0.66372  0.22511  0.98536  1.0000
  H   H836      1.0  0.97092  0.41739  0.87666  1.0000
  C   C852      1.0  0.64456  0.20926  0.95454  1.0000
  C   C853      1.0  0.99607  0.34619  0.87936  1.0000
  H   H837      1.0  0.87858  0.33075  0.97169  1.0000
  C   C854      1.0  0.67468  0.20711  0.97630  1.0000
  H   H838      1.0  0.54692  0.08418  0.82047  1.0000
  C   C855      1.0  0.59339  0.04772  0.83033  1.0000
  H   H839      1.0  0.60876  0.04497  0.96069  1.0000
  C   C856      1.0  0.64537  0.05641  0.93745  1.0000
  H   H840      1.0  0.82616  0.36620  0.78162  1.0000
  C   C857      1.0  0.91527  0.31214  0.92463  1.0000
  C   C858      1.0  0.94446  0.49259  0.86180  1.0000
  H   H841      1.0  0.63456  0.24952  0.98655  1.0000
  C   C859      1.0  0.67427  0.03600  0.91801  1.0000
  H   H842      1.0  0.51492  0.09835  0.92290  1.0000
  H   H843      1.0  0.87275  0.45412  0.88266  1.0000
  C   C860      1.0  0.60768  0.04156  0.94578  1.0000
  H   H844      1.0  0.61699  0.23522  0.95949  1.0000
  C   C861      1.0  0.63574  0.08726  0.78002  1.0000
  C   C862      1.0  0.87077  0.31739  0.96426  1.0000
  C   C863      1.0  0.54907  0.02331  0.86437  1.0000
  H   H845      1.0  0.85129  0.41189  0.78533  1.0000
  C   C864      1.0  0.99459  0.40096  0.89577  1.0000
  H   H846      1.0  0.88706  0.42238  0.91711  1.0000
  H   H847      1.0  0.52878  0.05896  0.84509  1.0000
  C   C865      1.0  0.52065  0.07759  0.88116  1.0000
  H   H848      1.0  0.59738  0.05598  0.93877  1.0000
  H   H849      1.0  0.72114  0.43263  0.00859  1.0000
  N   N69       1.0  0.88124  0.31596  0.94526  1.0000
  C   C866      1.0  0.87152  0.43463  0.91728  1.0000
  H   H850      1.0  0.59936  0.13263  0.79248  1.0000
  C   C867      1.0  0.87750  0.31370  0.91238  1.0000
  C   C868      1.0  0.52810  0.14126  0.92170  1.0000
  H   H851      1.0  0.59300  0.02005  0.85136  1.0000
  H   H852      1.0  0.69065  0.19881  0.98121  1.0000
  C   C869      1.0  0.67440  0.23383  0.00120  1.0000
  H   H853      1.0  0.91562  0.31455  0.95424  1.0000
  C   C870      1.0  0.88575  0.47152  0.92411  1.0000
  C   C871      1.0  0.58038  0.06575  0.82151  1.0000
  H   H854      1.0  0.88465  0.49287  0.87241  1.0000
  N   N70       1.0  0.50581  0.13391  0.91673  1.0000
  H   H855      1.0  0.67358  0.18418  0.95394  1.0000
  N   N71       1.0  0.55970  0.03766  0.84927  1.0000
  C   C872      1.0  0.54692  0.05556  0.84091  1.0000
  H   H856      1.0  0.90940  0.31044  0.89551  1.0000
  H   H857      1.0  0.86659  0.31427  0.90063  1.0000
  C   C873      1.0  0.61966  0.10612  0.77806  1.0000
  H   H858      1.0  0.52320  0.21185  0.00056  1.0000
  H   H859      1.0  0.85317  0.35260  0.77245  1.0000
  N   N72       1.0  0.87815  0.45782  0.91134  1.0000
  H   H860      1.0  0.61176  0.04495  0.82666  1.0000
  H   H861      1.0  0.70260  0.39583  0.00634  1.0000
  C   C874      1.0  0.51975  0.21618  0.01490  1.0000
  H   H862      1.0  0.98859  0.35509  0.86732  1.0000
  H   H863      1.0  0.68906  0.24420  0.99623  1.0000
  H   H864      1.0  0.68735  0.10518  0.77039  1.0000
  C   C875      1.0  0.88444  0.48721  0.88706  1.0000
  C   C876      1.0  0.77780  0.48312  0.01823  1.0000
  C   C877      1.0  0.99632  0.44921  0.85916  1.0000
  H   H865      1.0  0.53307  0.15652  0.91277  1.0000
  H   H866      1.0  0.52131  0.16024  0.01733  1.0000
  H   H867      1.0  0.54217  0.12765  0.91924  1.0000
  C   C878      1.0  0.94736  0.49434  0.88077  1.0000
  H   H868      1.0  0.52719  0.14550  0.93655  1.0000
  H   H869      1.0  0.50796  0.14083  0.86310  1.0000
  H   H870      1.0  0.98935  0.46527  0.86560  1.0000
  H   H871      1.0  0.52998  0.02376  0.86357  1.0000
  H   H872      1.0  0.98271  0.44294  0.85094  1.0000
  H   H873      1.0  0.55600  0.00512  0.86383  1.0000
  H   H874      1.0  0.66430  0.00381  0.90890  1.0000
  Fe  Fe144     1.0  0.80940  0.36530  0.01745  1.0000
  H   H875      1.0  0.85333  0.37120  0.79116  1.0000
  S   S288      1.0  0.77280  0.38119  0.01947  1.0000
  H   H876      1.0  0.77772  0.44603  0.01894  1.0000
  C   C879      1.0  0.70805  0.40066  0.01961  1.0000
  C   C880      1.0  0.84988  0.40950  0.77062  1.0000
  Fe  Fe145     1.0  0.60911  0.88619  0.21086  1.0000
  S   S289      1.0  0.60607  0.92230  0.19825  1.0000
  S   S290      1.0  0.59774  0.88220  0.24160  1.0000
  Fe  Fe146     1.0  0.61739  0.86517  0.17193  1.0000
  S   S291      1.0  0.61506  0.89994  0.15688  1.0000
  S   S292      1.0  0.61787  0.83099  0.15793  1.0000
  Fe  Fe147     1.0  0.63620  0.91069  0.17955  1.0000
  S   S293      1.0  0.66623  0.93226  0.17228  1.0000
  Fe  Fe148     1.0  0.58525  0.90828  0.17708  1.0000
  S   S294      1.0  0.55244  0.92655  0.16737  1.0000
  S   S295      1.0  0.64111  0.87517  0.19348  1.0000
  S   S296      1.0  0.58590  0.87290  0.19077  1.0000
  Fe  Fe149     1.0  0.91027  0.59251  0.21059  1.0000
  S   S297      1.0  0.92618  0.55654  0.21104  1.0000
  S   S298      1.0  0.92241  0.61223  0.23402  1.0000
  Fe  Fe150     1.0  0.88752  0.58681  0.17347  1.0000
  S   S299      1.0  0.90225  0.55040  0.17162  1.0000
  S   S300      1.0  0.86083  0.60191  0.15313  1.0000
  Fe  Fe151     1.0  0.89223  0.54709  0.20217  1.0000
  S   S301      1.0  0.87715  0.51562  0.21572  1.0000
  Fe  Fe152     1.0  0.93513  0.56329  0.18068  1.0000
  S   S302      1.0  0.97054  0.54749  0.17187  1.0000
  S   S303      1.0  0.87521  0.58253  0.20389  1.0000
  S   S304      1.0  0.92147  0.60031  0.18034  1.0000
  Fe  Fe153     1.0  0.82144  0.58827  0.04875  1.0000
  S   S305      1.0  0.78447  0.58009  0.05532  1.0000
  S   S306      1.0  0.85166  0.58369  0.06790  1.0000
  Fe  Fe154     1.0  0.77522  0.61354  0.03877  1.0000
  H   H877      1.0  0.69542  0.95857  0.21546  1.0000
  C   C881      1.0  0.65834  0.83460  0.02698  1.0000
  C   C882      1.0  0.56903  0.85100  0.12468  1.0000
  Fe  Fe155     1.0  0.78748  0.56340  0.02768  1.0000
  C   C883      1.0  0.80493  0.65050  0.11327  1.0000
  Fe  Fe156     1.0  0.62504  0.78357  0.05381  1.0000
  S   S307      1.0  0.62418  0.74531  0.06021  1.0000
  S   S308      1.0  0.63248  0.81380  0.07085  1.0000
  C   C884      1.0  0.51942  0.71073  0.06407  1.0000
  N   N73       1.0  0.55113  0.83633  0.15973  1.0000
  Fe  Fe157     1.0  0.59097  0.74869  0.04503  1.0000
  S   S309      1.0  0.56097  0.72894  0.05782  1.0000
  H   H878      1.0  0.96180  0.59396  0.21375  1.0000
  S   S310      1.0  0.59083  0.78687  0.04070  1.0000
  C   C885      1.0  0.77837  0.50269  0.02861  1.0000
  C   C886      1.0  0.53142  0.72717  0.05326  1.0000
  C   C887      1.0  0.62881  0.99151  0.14798  1.0000
  C   C888      1.0  0.79227  0.64852  0.09766  1.0000
  C   C889      1.0  0.72734  0.66078  0.04326  1.0000
  C   C890      1.0  0.67256  0.93142  0.22058  1.0000
  H   H879      1.0  0.55984  0.96980  0.18233  1.0000
  C   C891      1.0  0.97639  0.60459  0.21228  1.0000
  C   C892      1.0  0.63695  0.87834  0.26202  1.0000
  C   C893      1.0  0.51067  0.90804  0.16822  1.0000
  H   H880      1.0  0.54498  0.84052  0.18891  1.0000
  H   H881      1.0  0.70180  0.96257  0.16639  1.0000
  H   H882      1.0  0.77351  0.65018  0.09873  1.0000
  H   H883      1.0  0.63255  0.67563  0.08445  1.0000
  H   H884      1.0  0.64512  0.99255  0.13988  1.0000
  H   H885      1.0  0.59066  0.95293  0.16414  1.0000
  H   H886      1.0  0.97305  0.59689  0.16668  1.0000
  C   C894      1.0  0.85779  0.59218  0.13056  1.0000
  C   C895      1.0  0.87698  0.58479  0.11924  1.0000
  C   C896      1.0  0.87453  0.58119  0.10030  1.0000
  C   C897      1.0  0.85287  0.58468  0.09246  1.0000
  C   C898      1.0  0.83343  0.59070  0.10404  1.0000
  C   C899      1.0  0.83594  0.59460  0.12295  1.0000
  H   H887      1.0  0.89391  0.58296  0.12484  1.0000
  H   H888      1.0  0.88968  0.57644  0.09150  1.0000
  H   H889      1.0  0.81663  0.59323  0.09828  1.0000
  H   H890      1.0  0.82096  0.60016  0.13162  1.0000
  H   H891      1.0  0.97878  0.51054  0.19964  1.0000
  N   N74       1.0  0.58809  0.98836  0.17010  1.0000
  C   C900      1.0  0.91105  0.60870  0.25737  1.0000
  H   H892      1.0  0.87257  0.65794  0.08961  1.0000
  H   H893      1.0  0.65778  0.66044  0.02904  1.0000
  C   C901      1.0  0.66709  0.96087  0.17839  1.0000
  C   C902      1.0  0.64400  0.66732  0.03841  1.0000
  H   H894      1.0  0.79613  0.65358  0.12670  1.0000
  C   C903      1.0  0.56184  0.86696  0.13784  1.0000
  C   C904      1.0  0.60745  0.68765  0.04326  1.0000
  C   C905      1.0  0.64863  0.97284  0.18796  1.0000
  H   H895      1.0  0.67902  0.99324  0.24962  1.0000
  H   H896      1.0  0.57273  0.81513  0.11905  1.0000
  C   C906      1.0  0.67339  0.99179  0.23531  1.0000
  H   H897      1.0  0.63296  0.96448  0.19190  1.0000
  C   C907      1.0  0.52994  0.91147  0.17814  1.0000
  C   C908      1.0  0.69253  0.69411  0.03046  1.0000
  H   H898      1.0  0.98836  0.66013  0.20222  1.0000
  C   C909      1.0  0.53314  0.89952  0.19529  1.0000
  Fe  Fe158     1.0  0.64221  0.74111  0.03179  1.0000
  H   H899      1.0  0.54767  0.90259  0.20326  1.0000
  C   C910      1.0  0.62266  0.82642  0.13372  1.0000
  C   C911      1.0  0.62054  0.80436  0.12744  1.0000
  C   C912      1.0  0.62314  0.80020  0.10828  1.0000
  C   C913      1.0  0.62831  0.81801  0.09517  1.0000
  C   C914      1.0  0.63058  0.84002  0.10147  1.0000
  C   C915      1.0  0.62766  0.84426  0.12059  1.0000
  H   H900      1.0  0.61677  0.79041  0.13748  1.0000
  H   H901      1.0  0.62154  0.78314  0.10371  1.0000
  H   H902      1.0  0.63475  0.85391  0.09149  1.0000
  H   H903      1.0  0.62943  0.86128  0.12517  1.0000
  H   H904      1.0  0.62710  0.95525  0.14484  1.0000
  H   H905      1.0  0.63521  0.97421  0.25042  1.0000
  C   C916      1.0  0.69732  0.69189  0.04933  1.0000
  H   H906      1.0  0.87266  0.63355  0.10640  1.0000
  H   H907      1.0  0.64632  0.87180  0.24978  1.0000
  C   C917      1.0  0.99385  0.56520  0.17083  1.0000
  C   C918      1.0  0.88722  0.60934  0.26157  1.0000
  H   H908      1.0  0.71803  0.67384  0.07026  1.0000
  S   S311      1.0  0.74875  0.64002  0.05220  1.0000
  C   C919      1.0  0.63010  0.67600  0.06962  1.0000
  H   H909      1.0  0.77966  0.51473  0.05612  1.0000
  H   H910      1.0  0.79403  0.64252  0.06844  1.0000
  C   C920      1.0  0.61869  0.97058  0.15076  1.0000
  H   H911      1.0  0.55680  0.80238  0.15034  1.0000
  C   C921      1.0  0.68743  0.97172  0.17367  1.0000
  H   H912      1.0  0.68285  0.91974  0.21169  1.0000
  H   H913      1.0  0.87185  0.62894  0.08222  1.0000
  S   S312      1.0  0.67010  0.71374  0.02162  1.0000
  C   C922      1.0  0.82910  0.64806  0.11152  1.0000
  N   N75       1.0  0.99833  0.59498  0.21422  1.0000
  H   H914      1.0  0.54837  0.81138  0.18258  1.0000
  H   H915      1.0  0.54701  0.87166  0.16539  1.0000
  C   C923      1.0  0.80383  0.64416  0.08058  1.0000
  C   C924      1.0  0.82800  0.64164  0.07934  1.0000
  H   H916      1.0  0.68776  0.70290  0.05907  1.0000
  H   H917      1.0  0.68788  0.99612  0.22518  1.0000
  C   C925      1.0  0.61353  0.88560  0.26132  1.0000
  H   H918      1.0  0.87551  0.61064  0.25039  1.0000
  H   H919      1.0  0.59199  0.69648  0.03782  1.0000
  H   H920      1.0  0.52140  0.87268  0.21463  1.0000
  C   C926      1.0  0.56679  0.82767  0.12909  1.0000
  C   C927      1.0  0.71453  0.67533  0.05564  1.0000
  H   H921      1.0  0.99953  0.56673  0.23402  1.0000
  S   S313      1.0  0.81236  0.62223  0.03348  1.0000
  H   H922      1.0  0.52016  0.80267  0.05645  1.0000
  C   C928      1.0  0.65058  0.99580  0.19241  1.0000
  C   C929      1.0  0.99115  0.64191  0.20584  1.0000
  C   C930      1.0  0.51937  0.74164  0.04024  1.0000
  C   C931      1.0  0.00193  0.57025  0.21873  1.0000
  H   H923      1.0  0.83688  0.63771  0.06610  1.0000
  C   C932      1.0  0.86560  0.64096  0.09315  1.0000
  C   C933      1.0  0.54112  0.82880  0.17808  1.0000
  H   H924      1.0  0.64613  0.90788  0.22769  1.0000
  C   C934      1.0  0.65186  0.92484  0.22941  1.0000
  H   H925      1.0  0.62230  0.93515  0.24722  1.0000
  C   C935      1.0  0.63509  0.84228  0.02573  1.0000
  C   C936      1.0  0.99027  0.58907  0.16848  1.0000
  C   C937      1.0  0.64718  0.66614  0.05755  1.0000
  H   H926      1.0  0.59672  0.69478  0.07167  1.0000
  C   C938      1.0  0.61003  0.68674  0.06247  1.0000
  S   S314      1.0  0.82510  0.56920  0.02223  1.0000
  H   H927      1.0  0.52840  0.75444  0.03178  1.0000
  C   C939      1.0  0.64581  0.96224  0.24203  1.0000
  H   H928      1.0  0.94447  0.60757  0.26894  1.0000
  H   H929      1.0  0.57097  0.98985  0.19692  1.0000
  H   H930      1.0  0.83883  0.64907  0.12381  1.0000
  H   H931      1.0  0.66314  0.65820  0.06284  1.0000
  C   C940      1.0  0.55789  0.82057  0.14684  1.0000
  C   C941      1.0  0.59818  0.96932  0.16189  1.0000
  C   C942      1.0  0.56709  0.98686  0.18237  1.0000
  H   H932      1.0  0.62433  0.84424  0.03847  1.0000
  N   N76       1.0  0.84028  0.64338  0.09475  1.0000
  C   C943      1.0  0.51825  0.88266  0.20177  1.0000
  N   N77       1.0  0.66605  0.96865  0.23318  1.0000
  C   C944      1.0  0.55261  0.85925  0.15528  1.0000
  N   N78       1.0  0.62432  0.67797  0.03150  1.0000
  H   H933      1.0  0.52202  0.82878  0.17770  1.0000
  H   H934      1.0  0.57677  0.85661  0.11124  1.0000
  C   C945      1.0  0.67953  0.95347  0.22273  1.0000
  H   H935      1.0  0.56360  0.88517  0.13474  1.0000
  H   H936      1.0  0.52113  0.76636  0.07626  1.0000
  H   H937      1.0  0.52841  0.69948  0.07416  1.0000
  C   C946      1.0  0.63841  0.94025  0.24029  1.0000
  C   C947      1.0  0.72255  0.66304  0.02439  1.0000
  H   H938      1.0  0.95494  0.63557  0.20652  1.0000
  H   H939      1.0  0.55355  0.00008  0.17783  1.0000
  H   H940      1.0  0.50842  0.91690  0.15476  1.0000
  C   C948      1.0  0.97245  0.62815  0.20808  1.0000
  H   H941      1.0  0.92007  0.51238  0.19377  1.0000
  H   H942      1.0  0.98944  0.56069  0.21165  1.0000
  C   C949      1.0  0.68956  0.99424  0.17845  1.0000
  S   S315      1.0  0.64539  0.77930  0.02625  1.0000
  H   H943      1.0  0.66532  0.83056  0.04054  1.0000
  C   C950      1.0  0.50414  0.79578  0.06199  1.0000
  C   C951      1.0  0.50470  0.77542  0.07316  1.0000
  H   H944      1.0  0.99990  0.50233  0.16950  1.0000
  H   H945      1.0  0.87608  0.50102  0.17155  1.0000
  Fe  Fe159     1.0  0.59160  0.87092  0.37201  1.0000
  S   S316      1.0  0.63014  0.86262  0.36866  1.0000
  S   S317      1.0  0.56408  0.84567  0.37279  1.0000
  Fe  Fe160     1.0  0.59551  0.92158  0.36534  1.0000
  S   S318      1.0  0.63396  0.91788  0.36125  1.0000
  S   S319      1.0  0.57459  0.95502  0.36118  1.0000
  Fe  Fe161     1.0  0.62852  0.88831  0.34405  1.0000
  S   S320      1.0  0.64915  0.88249  0.31668  1.0000
  Fe  Fe162     1.0  0.63265  0.89287  0.38643  1.0000
  S   S321      1.0  0.65958  0.90008  0.40698  1.0000
  S   S322      1.0  0.59010  0.89413  0.34623  1.0000
  S   S323      1.0  0.59401  0.89905  0.39161  1.0000
  Fe  Fe163     1.0  0.94163  0.57927  0.36430  1.0000
  S   S324      1.0  0.92949  0.61594  0.35732  1.0000
  S   S325      1.0  0.97779  0.56301  0.36249  1.0000
  Fe  Fe164     1.0  0.89404  0.56560  0.37683  1.0000
  S   S326      1.0  0.87791  0.60136  0.37148  1.0000
  S   S327      1.0  0.87350  0.53462  0.38337  1.0000
  Fe  Fe165     1.0  0.89994  0.60107  0.34456  1.0000
  S   S328      1.0  0.88129  0.61099  0.31807  1.0000
  Fe  Fe166     1.0  0.90881  0.61305  0.38488  1.0000
  S   S329      1.0  0.91190  0.64343  0.40299  1.0000
  S   S330      1.0  0.91400  0.56468  0.34936  1.0000
  S   S331      1.0  0.92299  0.57709  0.39245  1.0000
  C   C952      1.0  0.56431  0.84852  0.30297  1.0000
  S   S332      1.0  0.90007  0.71732  0.50158  1.0000
  S   S333      1.0  0.89008  0.65163  0.49045  1.0000
  C   C953      1.0  0.57180  0.99708  0.37574  1.0000
  S   S334      1.0  0.74012  0.88465  0.50654  1.0000
  S   S335      1.0  0.68854  0.85212  0.48522  1.0000
  C   C954      1.0  0.87846  0.61000  0.28022  1.0000
  H   H946      1.0  0.60582  0.97581  0.41888  1.0000
  N   N79       1.0  0.84311  0.69248  0.48351  1.0000
  H   H947      1.0  0.78166  0.87887  0.46185  1.0000
  C   C955      1.0  0.86250  0.56078  0.30740  1.0000
  H   H948      1.0  0.62141  0.99243  0.35602  1.0000
  C   C956      1.0  0.89339  0.60908  0.29492  1.0000
  C   C957      1.0  0.91727  0.60744  0.29079  1.0000
  H   H949      1.0  0.66521  0.98293  0.49919  1.0000
  C   C958      1.0  0.84957  0.71448  0.48033  1.0000
  C   C959      1.0  0.60411  0.83736  0.29423  1.0000
  H   H950      1.0  0.92895  0.60693  0.30195  1.0000
  C   C960      1.0  0.67075  0.95668  0.40056  1.0000
  C   C961      1.0  0.84550  0.67750  0.46953  1.0000
  H   H951      1.0  0.82943  0.55812  0.34067  1.0000
  H   H952      1.0  0.97742  0.61118  0.34990  1.0000
  C   C962      1.0  0.90706  0.64457  0.42754  1.0000
  C   C963      1.0  0.91364  0.66376  0.43629  1.0000
  C   C964      1.0  0.90937  0.66582  0.45565  1.0000
  C   C965      1.0  0.89812  0.64882  0.46643  1.0000
  C   C966      1.0  0.89163  0.62960  0.45769  1.0000
  C   C967      1.0  0.89619  0.62738  0.43839  1.0000
  H   H953      1.0  0.92200  0.67720  0.42805  1.0000
  H   H954      1.0  0.91438  0.68075  0.46216  1.0000
  H   H955      1.0  0.88287  0.61637  0.46588  1.0000
  H   H956      1.0  0.89095  0.61256  0.43186  1.0000
  C   C968      1.0  0.68167  0.98369  0.50610  1.0000
  C   C969      1.0  0.91358  0.50859  0.39023  1.0000
  H   H957      1.0  0.83406  0.69788  0.51235  1.0000
  H   H958      1.0  0.91999  0.52415  0.39469  1.0000
  H   H959      1.0  0.95687  0.65142  0.37976  1.0000
  C   C970      1.0  0.63558  0.88533  0.29525  1.0000
  C   C971      1.0  0.61243  0.89337  0.29433  1.0000
  H   H960      1.0  0.78229  0.98876  0.51668  1.0000
  H   H961      1.0  0.72284  0.84069  0.45485  1.0000
  C   C972      1.0  0.97298  0.61602  0.40094  1.0000
  H   H962      1.0  0.60277  0.89908  0.30668  1.0000
  H   H963      1.0  0.64564  0.83336  0.30685  1.0000
  C   C973      1.0  0.53629  0.85846  0.37829  1.0000
  C   C974      1.0  0.51072  0.97325  0.38628  1.0000
  H   H964      1.0  0.84111  0.65984  0.47225  1.0000
  H   H965      1.0  0.97003  0.51170  0.36457  1.0000
  C   C975      1.0  0.53316  0.87514  0.39150  1.0000
  H   H966      1.0  0.63439  0.80855  0.31976  1.0000
  H   H967      1.0  0.63669  0.83528  0.33077  1.0000
  H   H968      1.0  0.54781  0.88000  0.39851  1.0000
  C   C976      1.0  0.67957  0.86652  0.46410  1.0000
  C   C977      1.0  0.68821  0.88731  0.45727  1.0000
  C   C978      1.0  0.68180  0.89731  0.43984  1.0000
  C   C979      1.0  0.66646  0.88688  0.42910  1.0000
  C   C980      1.0  0.65771  0.86619  0.43601  1.0000
  C   C981      1.0  0.66439  0.85600  0.45332  1.0000
  H   H969      1.0  0.69999  0.89554  0.46534  1.0000
  H   H970      1.0  0.68879  0.91324  0.43466  1.0000
  H   H971      1.0  0.64600  0.85788  0.42792  1.0000
  H   H972      1.0  0.65769  0.83986  0.45840  1.0000
  C   C982      1.0  0.88847  0.52864  0.29868  1.0000
  C   C983      1.0  0.73860  0.84255  0.46179  1.0000
  C   C984      1.0  0.58001  0.97405  0.37789  1.0000
  C   C985      1.0  0.59233  0.96638  0.39343  1.0000
  C   C986      1.0  0.59625  0.98176  0.40688  1.0000
  C   C987      1.0  0.56946  0.84572  0.32168  1.0000
  H   H973      1.0  0.59876  0.94861  0.39515  1.0000
  C   C988      1.0  0.51705  0.85179  0.36963  1.0000
  C   C989      1.0  0.77157  0.86422  0.46563  1.0000
  H   H974      1.0  0.87024  0.71164  0.43523  1.0000
  H   H975      1.0  0.54692  0.85415  0.29921  1.0000
  N   N80       1.0  0.60910  0.83510  0.31261  1.0000
  N   N81       1.0  0.64715  0.98678  0.37579  1.0000
  H   H976      1.0  0.65916  0.98074  0.42126  1.0000
  C   C990      1.0  0.65860  0.96719  0.36957  1.0000
  C   C991      1.0  0.86212  0.70649  0.44866  1.0000
  C   C992      1.0  0.67052  0.95182  0.38187  1.0000
  H   H977      1.0  0.84429  0.66917  0.50720  1.0000
  H   H978      1.0  0.84777  0.72638  0.49141  1.0000
  H   H979      1.0  0.54503  0.92722  0.39971  1.0000
  C   C993      1.0  0.89133  0.50902  0.38383  1.0000
  C   C994      1.0  0.51525  0.98839  0.39969  1.0000
  Fe  Fe167     1.0  0.70784  0.86533  0.50874  1.0000
  H   H980      1.0  0.76960  0.81827  0.49659  1.0000
  H   H981      1.0  0.85998  0.61177  0.28319  1.0000
  C   C995      1.0  0.53080  0.98124  0.41323  1.0000
  H   H982      1.0  0.67888  0.93583  0.37712  1.0000
  N   N82       1.0  0.98311  0.63625  0.39687  1.0000
  H   H983      1.0  0.95874  0.66430  0.40163  1.0000
  H   H984      1.0  0.61761  0.83455  0.28336  1.0000
  C   C996      1.0  0.99890  0.58298  0.36149  1.0000
  H   H985      1.0  0.65809  0.96310  0.35512  1.0000
  H   H986      1.0  0.86516  0.73897  0.46067  1.0000
  C   C997      1.0  0.76464  0.83005  0.48507  1.0000
  H   H987      1.0  0.67931  0.94452  0.41030  1.0000
  C   C998      1.0  0.73095  0.80812  0.48191  1.0000
  C   C999      1.0  0.63258  0.82754  0.31774  1.0000
  C   C1000     1.0  0.58169  0.84419  0.28913  1.0000
  H   H988      1.0  0.53031  0.92189  0.37067  1.0000
  C   C1001     1.0  0.83373  0.68460  0.50196  1.0000
  N   N83       1.0  0.74523  0.82718  0.47589  1.0000
  H   H989      1.0  0.79348  0.85076  0.48744  1.0000
  H   H990      1.0  0.72078  0.81219  0.49501  1.0000
  C   C1002     1.0  0.96907  0.65641  0.38986  1.0000
  N   N84       1.0  0.86156  0.55229  0.32553  1.0000
  C   C1003     1.0  0.85495  0.68428  0.45190  1.0000
  C   C1004     1.0  0.99405  0.60582  0.35514  1.0000
  H   H991      1.0  0.55357  0.95332  0.42375  1.0000
  H   H992      1.0  0.85771  0.67203  0.44110  1.0000
  C   C1005     1.0  0.60147  0.89346  0.27746  1.0000
  C   C1006     1.0  0.85934  0.72176  0.46292  1.0000
  H   H993      1.0  0.71838  0.80525  0.47140  1.0000
  H   H994      1.0  0.74586  0.87373  0.44562  1.0000
  H   H995      1.0  0.57803  0.84673  0.27450  1.0000
  N   N85       1.0  0.52159  0.95168  0.38622  1.0000
  C   C1007     1.0  0.64777  0.99192  0.39402  1.0000
  C   C1008     1.0  0.84697  0.56454  0.33958  1.0000
  H   H996      1.0  0.69378  0.96945  0.50107  1.0000
  H   H997      1.0  0.97990  0.66941  0.38253  1.0000
  H   H998      1.0  0.51935  0.83879  0.35950  1.0000
  H   H999      1.0  0.59589  0.83669  0.34087  1.0000
  H   H1000     1.0  0.58332  0.89899  0.27707  1.0000
  C   C1009     1.0  0.75158  0.86133  0.45650  1.0000
  H   H1001     1.0  0.72555  0.99215  0.49615  1.0000
  H   H1002     1.0  0.74186  0.79193  0.48426  1.0000
  C   C1010     1.0  0.53638  0.94430  0.39975  1.0000
  C   C1011     1.0  0.77822  0.84845  0.47996  1.0000
  H   H1003     1.0  0.81559  0.68018  0.50119  1.0000
  C   C1012     1.0  0.51093  0.88479  0.39627  1.0000
  H   H1004     1.0  0.85448  0.56217  0.35343  1.0000
  H   H1005     1.0  0.95482  0.61486  0.39878  1.0000
  H   H1006     1.0  0.85301  0.57684  0.30349  1.0000
  C   C1013     1.0  0.59205  0.83882  0.32627  1.0000
  Fe  Fe168     1.0  0.89936  0.67955  0.50901  1.0000
  H   H1007     1.0  0.66588  0.87201  0.27954  1.0000
  H   H1008     1.0  0.84565  0.58337  0.33604  1.0000
  C   C1014     1.0  0.64793  0.87825  0.27894  1.0000
  S   S336      1.0  0.96588  0.72849  0.50683  1.0000
  C   C1015     1.0  0.65941  0.97691  0.40671  1.0000
  C   C1016     1.0  0.87324  0.53187  0.33044  1.0000
  C   C1017     1.0  0.54123  0.95896  0.41343  1.0000
  H   H1009     1.0  0.55613  0.84900  0.33263  1.0000
  C   C1018     1.0  0.88693  0.51977  0.31713  1.0000
  H   H1010     1.0  0.87219  0.52494  0.34476  1.0000
  C   C1019     1.0  0.87619  0.54929  0.29375  1.0000
  C   C1020     1.0  0.98595  0.59648  0.40762  1.0000
  H   H1011     1.0  0.87737  0.55650  0.27948  1.0000
  C   C1021     1.0  0.51676  0.93628  0.37184  1.0000
  H   H1012     1.0  0.89910  0.51955  0.28819  1.0000
  C   C1022     1.0  0.92603  0.60772  0.27206  1.0000
  H   H1013     1.0  0.51680  0.94568  0.35797  1.0000
  H   H1014     1.0  0.53496  0.99302  0.42341  1.0000
  H   H1015     1.0  0.89631  0.50366  0.32114  1.0000
  Fe  Fe169     1.0  0.93158  0.71575  0.51877  1.0000
  H   H1016     1.0  0.50858  0.89723  0.40686  1.0000
  H   H1017     1.0  0.97798  0.58030  0.41019  1.0000
  C   C1023     1.0  0.00305  0.50532  0.37664  1.0000
  C   C1024     1.0  0.99117  0.72923  0.51934  1.0000
  H   H1018     1.0  0.76225  0.95236  0.51909  1.0000
  Fe  Fe170     1.0  0.58558  0.86075  0.69238  1.0000
  S   S337      1.0  0.62330  0.85850  0.69875  1.0000
  S   S338      1.0  0.56613  0.82897  0.69164  1.0000
  Fe  Fe171     1.0  0.58195  0.91184  0.68737  1.0000
  S   S339      1.0  0.61880  0.91391  0.69338  1.0000
  S   S340      1.0  0.56144  0.94498  0.68029  1.0000
  Fe  Fe172     1.0  0.62685  0.88471  0.67461  1.0000
  S   S341      1.0  0.65853  0.89009  0.65476  1.0000
  Fe  Fe173     1.0  0.61247  0.88783  0.71697  1.0000
  S   S342      1.0  0.62854  0.89503  0.74400  1.0000
  S   S343      1.0  0.58999  0.88458  0.66689  1.0000
  S   S344      1.0  0.57454  0.88810  0.71233  1.0000
  Fe  Fe174     1.0  0.91031  0.68552  0.55021  1.0000
  S   S345      1.0  0.91112  0.72405  0.54547  1.0000
  S   S346      1.0  0.92577  0.66450  0.57494  1.0000
  Fe  Fe175     1.0  0.87928  0.72259  0.52875  1.0000
  Fe  Fe176     1.0  0.72344  0.90457  0.53036  1.0000
  H   H1019     1.0  0.82363  0.50781  0.70456  1.0000
  H   H1020     1.0  0.86578  0.60476  0.61908  1.0000
  H   H1021     1.0  0.96143  0.69959  0.58022  1.0000
  C   C1025     1.0  0.73181  0.96706  0.53367  1.0000
  Fe  Fe177     1.0  0.70674  0.86165  0.55186  1.0000
  S   S347      1.0  0.73897  0.88043  0.55259  1.0000
  S   S348      1.0  0.68642  0.84573  0.57690  1.0000
  H   H1022     1.0  0.63230  0.94343  0.73625  1.0000
  C   C1026     1.0  0.80467  0.81425  0.52819  1.0000
  S   S349      1.0  0.69028  0.88666  0.53101  1.0000
  C   C1027     1.0  0.79240  0.79442  0.52924  1.0000
  H   H1023     1.0  0.56909  0.99290  0.67096  1.0000
  C   C1028     1.0  0.75403  0.96763  0.52507  1.0000
  Fe  Fe178     1.0  0.90185  0.60142  0.67533  1.0000
  S   S350      1.0  0.90582  0.56408  0.66903  1.0000
  S   S351      1.0  0.88511  0.62825  0.65501  1.0000
  Fe  Fe179     1.0  0.91890  0.59149  0.71517  1.0000
  S   S352      1.0  0.92418  0.55358  0.71154  1.0000
  S   S353      1.0  0.93258  0.60390  0.74141  1.0000
  Fe  Fe180     1.0  0.93921  0.56384  0.68317  1.0000
  S   S354      1.0  0.97303  0.54724  0.67246  1.0000
  Fe  Fe181     1.0  0.89046  0.55733  0.69805  1.0000
  S   S355      1.0  0.86152  0.53479  0.70696  1.0000
  S   S356      1.0  0.93655  0.60161  0.68741  1.0000
  S   S357      1.0  0.88374  0.59475  0.70364  1.0000
  H   H1024     1.0  0.65559  0.97195  0.66992  1.0000
  C   C1029     1.0  0.82873  0.76977  0.52876  1.0000
  S   S358      1.0  0.93198  0.67765  0.52406  1.0000
  H   H1025     1.0  0.54852  0.87660  0.64412  1.0000
  C   C1030     1.0  0.52585  0.90121  0.65888  1.0000
  C   C1031     1.0  0.84095  0.78961  0.52769  1.0000
  C   C1032     1.0  0.98812  0.56403  0.70377  1.0000
  C   C1033     1.0  0.83262  0.58171  0.66595  1.0000
  H   H1026     1.0  0.97019  0.56645  0.70846  1.0000
  C   C1034     1.0  0.91372  0.65432  0.59694  1.0000
  C   C1035     1.0  0.92748  0.63917  0.60831  1.0000
  C   C1036     1.0  0.91902  0.63101  0.62608  1.0000
  C   C1037     1.0  0.89672  0.63812  0.63278  1.0000
  C   C1038     1.0  0.88290  0.65317  0.62140  1.0000
  C   C1039     1.0  0.89129  0.66118  0.60354  1.0000
  H   H1027     1.0  0.94483  0.63371  0.60334  1.0000
  H   H1028     1.0  0.92983  0.61939  0.63464  1.0000
  H   H1029     1.0  0.86562  0.65882  0.62644  1.0000
  H   H1030     1.0  0.88055  0.67290  0.59501  1.0000
  N   N86       1.0  0.85881  0.57711  0.63907  1.0000
  C   C1040     1.0  0.84495  0.59102  0.65035  1.0000
  H   H1031     1.0  0.64480  0.97089  0.73482  1.0000
  H   H1032     1.0  0.85068  0.52560  0.66178  1.0000
  H   H1033     1.0  0.87349  0.57658  0.61117  1.0000
  H   H1034     1.0  0.66134  0.94546  0.74303  1.0000
  S   S359      1.0  0.72192  0.83835  0.52970  1.0000
  C   C1041     1.0  0.65263  0.96389  0.69961  1.0000
  S   S360      1.0  0.84269  0.74135  0.52903  1.0000
  H   H1035     1.0  0.79464  0.75727  0.53038  1.0000
  H   H1036     1.0  0.93717  0.55084  0.75252  1.0000
  C   C1042     1.0  0.82901  0.81162  0.52740  1.0000
  H   H1037     1.0  0.85964  0.78802  0.52711  1.0000
  C   C1043     1.0  0.89158  0.54962  0.75825  1.0000
  H   H1038     1.0  0.53993  0.90795  0.66556  1.0000
  C   C1044     1.0  0.87284  0.58720  0.62348  1.0000
  H   H1039     1.0  0.84377  0.60951  0.64759  1.0000
  C   C1045     1.0  0.57356  0.96580  0.69238  1.0000
  C   C1046     1.0  0.58215  0.95964  0.70980  1.0000
  C   C1047     1.0  0.59346  0.97544  0.71908  1.0000
  C   C1048     1.0  0.65958  0.95937  0.68117  1.0000
  H   H1040     1.0  0.82533  0.55060  0.68219  1.0000
  H   H1041     1.0  0.58023  0.94256  0.71611  1.0000
  H   H1042     1.0  0.59993  0.97058  0.73261  1.0000
  H   H1043     1.0  0.97127  0.67269  0.59152  1.0000
  C   C1049     1.0  0.66459  0.87855  0.63254  1.0000
  C   C1050     1.0  0.65430  0.85916  0.62742  1.0000
  C   C1051     1.0  0.66085  0.84960  0.61019  1.0000
  C   C1052     1.0  0.67732  0.85959  0.59769  1.0000
  C   C1053     1.0  0.68728  0.87926  0.60264  1.0000
  C   C1054     1.0  0.68113  0.88850  0.62006  1.0000
  H   H1044     1.0  0.64170  0.85120  0.63692  1.0000
  H   H1045     1.0  0.65313  0.83431  0.60656  1.0000
  H   H1046     1.0  0.69997  0.88714  0.59319  1.0000
  H   H1047     1.0  0.68920  0.90350  0.62386  1.0000
  C   C1055     1.0  0.91842  0.60440  0.76391  1.0000
  C   C1056     1.0  0.53900  0.83216  0.68196  1.0000
  C   C1057     1.0  0.53303  0.81524  0.67059  1.0000
  H   H1048     1.0  0.67037  0.91374  0.72125  1.0000
  H   H1049     1.0  0.52703  0.86287  0.69574  1.0000
  H   H1050     1.0  0.54564  0.80145  0.66692  1.0000
  H   H1051     1.0  0.67585  0.93416  0.66301  1.0000
  C   C1058     1.0  0.53086  0.88356  0.64666  1.0000
  H   H1052     1.0  0.59538  0.86141  0.75700  1.0000
  H   H1053     1.0  0.88380  0.60368  0.75505  1.0000
  C   C1059     1.0  0.66803  0.92693  0.71012  1.0000
  C   C1060     1.0  0.86086  0.55387  0.64297  1.0000
  C   C1061     1.0  0.84864  0.54397  0.65840  1.0000
  C   C1062     1.0  0.52257  0.84991  0.68675  1.0000
  H   H1054     1.0  0.52322  0.81522  0.72241  1.0000
  C   C1063     1.0  0.57571  0.98812  0.68448  1.0000
  H   H1055     1.0  0.68330  0.90504  0.68879  1.0000
  C   C1064     1.0  0.67104  0.93824  0.67731  1.0000
  C   C1065     1.0  0.80436  0.77242  0.52951  1.0000
  Fe  Fe182     1.0  0.75316  0.85867  0.52893  1.0000
  N   N87       1.0  0.99267  0.68389  0.56835  1.0000
  C   C1066     1.0  0.67537  0.92190  0.69184  1.0000
  H   H1056     1.0  0.87243  0.54291  0.63441  1.0000
  H   H1057     1.0  0.70421  0.98679  0.54806  1.0000
  S   S361      1.0  0.71508  0.94299  0.53331  1.0000
  H   H1058     1.0  0.82218  0.59286  0.67515  1.0000
  H   H1059     1.0  0.89616  0.56234  0.74676  1.0000
  C   C1067     1.0  0.61757  0.88558  0.76650  1.0000
  H   H1060     1.0  0.83878  0.82673  0.52660  1.0000
  C   C1068     1.0  0.99008  0.73403  0.53818  1.0000
  H   H1061     1.0  0.97343  0.73691  0.54556  1.0000
  H   H1062     1.0  0.96508  0.67812  0.55153  1.0000
  C   C1069     1.0  0.93166  0.54863  0.76715  1.0000
  H   H1063     1.0  0.99767  0.60496  0.67057  1.0000
  C   C1070     1.0  0.59678  0.99729  0.71083  1.0000
  H   H1064     1.0  0.89069  0.58862  0.62780  1.0000
  N   N88       1.0  0.74568  0.82392  0.58425  1.0000
  C   C1071     1.0  0.73788  0.83916  0.59730  1.0000
  C   C1072     1.0  0.76609  0.82672  0.57413  1.0000
  C   C1073     1.0  0.75064  0.85774  0.60054  1.0000
  C   C1074     1.0  0.77941  0.84498  0.57712  1.0000
  C   C1075     1.0  0.77159  0.86060  0.59040  1.0000
  C   C1076     1.0  0.73173  0.80506  0.58036  1.0000
  H   H1065     1.0  0.72144  0.83730  0.60504  1.0000
  H   H1066     1.0  0.77205  0.81499  0.56347  1.0000
  H   H1067     1.0  0.74404  0.87004  0.61060  1.0000
  H   H1068     1.0  0.79539  0.84729  0.56879  1.0000
  H   H1069     1.0  0.78149  0.87514  0.59253  1.0000
  H   H1070     1.0  0.71768  0.80253  0.59134  1.0000
  H   H1071     1.0  0.72335  0.80912  0.56699  1.0000
  H   H1072     1.0  0.74262  0.78870  0.57953  1.0000
  C   C1077     1.0  0.99867  0.62185  0.69611  1.0000
  C   C1078     1.0  0.83441  0.55803  0.66990  1.0000
  H   H1073     1.0  0.77373  0.79597  0.52991  1.0000
  N   N89       1.0  0.65701  0.94780  0.71380  1.0000
  C   C1079     1.0  0.64849  0.95220  0.73291  1.0000
  C   C1080     1.0  0.97707  0.68896  0.58458  1.0000
  H   H1074     1.0  0.99924  0.50580  0.68213  1.0000
  C   C1081     1.0  0.72131  0.98710  0.54125  1.0000
  H   H1075     1.0  0.98099  0.61866  0.70069  1.0000
  S   S362      1.0  0.87740  0.68435  0.53555  1.0000
  C   C1082     1.0  0.99442  0.55472  0.68663  1.0000
  S   S363      1.0  0.79067  0.84264  0.52780  1.0000
  C   C1083     1.0  0.51084  0.81598  0.66396  1.0000
  C   C1084     1.0  0.86070  0.50628  0.70047  1.0000
  C   C1085     1.0  0.89445  0.60366  0.76685  1.0000
  H   H1076     1.0  0.51642  0.86028  0.62919  1.0000
  H   H1077     1.0  0.67855  0.98035  0.52138  1.0000
  C   C1086     1.0  0.76530  0.98831  0.52366  1.0000
  C   C1087     1.0  0.99797  0.67371  0.53647  1.0000
  H   H1078     1.0  0.64336  0.98020  0.70243  1.0000
  H   H1079     1.0  0.99999  0.57829  0.72802  1.0000
  C   C1088     1.0  0.98360  0.67840  0.55227  1.0000
  C   C1089     1.0  0.51287  0.87449  0.63821  1.0000
  H   H1080     1.0  0.89084  0.53259  0.75235  1.0000
  H   H1081     1.0  0.51404  0.93380  0.68104  1.0000
  H   H1082     1.0  0.50584  0.79053  0.70128  1.0000
  H   H1083     1.0  0.53995  0.99855  0.71272  1.0000
  H   H1084     1.0  0.87409  0.55544  0.76397  1.0000
  H   H1085     1.0  0.50651  0.80284  0.65507  1.0000
  N   N90       1.0  0.50352  0.90956  0.66256  1.0000
  H   H1086     1.0  0.98541  0.69869  0.59477  1.0000
  H   H1087     1.0  0.99054  0.67042  0.52351  1.0000
  C   C1090     1.0  0.60167  0.86867  0.76903  1.0000
  C   C1091     1.0  0.50455  0.81580  0.72175  1.0000
  Fe  Fe183     1.0  0.60215  0.87341  0.85238  1.0000
  S   S364      1.0  0.58668  0.90789  0.86038  1.0000
  S   S365      1.0  0.59388  0.85821  0.82540  1.0000
  Fe  Fe184     1.0  0.62057  0.86190  0.89159  1.0000
  S   S366      1.0  0.60667  0.89577  0.90230  1.0000
  S   S367      1.0  0.64032  0.83431  0.90911  1.0000
  Fe  Fe185     1.0  0.57526  0.88959  0.88724  1.0000
  S   S368      1.0  0.53890  0.89651  0.89871  1.0000
  Fe  Fe186     1.0  0.61954  0.91085  0.87446  1.0000
  S   S369      1.0  0.63864  0.94309  0.86986  1.0000
  S   S370      1.0  0.58815  0.85473  0.87839  1.0000
  S   S371      1.0  0.63619  0.87740  0.86463  1.0000
  Fe  Fe187     1.0  0.81296  0.60230  0.00758  1.0000
  H   H1088     1.0  0.83261  0.51590  0.95657  1.0000
  S   S372      1.0  0.82676  0.61571  0.97879  1.0000
  S   S373      1.0  0.77602  0.53033  0.01694  1.0000
  C   C1092     1.0  0.80752  0.53754  0.97179  1.0000
  S   S374      1.0  0.59730  0.80380  0.98973  1.0000
  Fe  Fe188     1.0  0.90664  0.57286  0.88969  1.0000
  S   S375      1.0  0.94448  0.56132  0.88665  1.0000
  S   S376      1.0  0.89035  0.56118  0.91821  1.0000
  Fe  Fe189     1.0  0.90633  0.59024  0.84813  1.0000
  S   S377      1.0  0.94393  0.58064  0.84280  1.0000
  S   S378      1.0  0.88463  0.60118  0.82351  1.0000
  Fe  Fe190     1.0  0.93654  0.54838  0.85934  1.0000
  S   S379      1.0  0.94900  0.51590  0.84610  1.0000
  Fe  Fe191     1.0  0.94846  0.59481  0.87038  1.0000
  S   S380      1.0  0.97849  0.61687  0.87215  1.0000
  S   S381      1.0  0.89857  0.55673  0.86342  1.0000
  S   S382      1.0  0.91103  0.60759  0.87483  1.0000
  C   C1093     1.0  0.94422  0.62456  0.91395  1.0000
  C   C1094     1.0  0.94236  0.58873  0.93221  1.0000
  H   H1089     1.0  0.88351  0.54649  0.79535  1.0000
  C   C1095     1.0  0.53675  0.88261  0.84201  1.0000
  H   H1090     1.0  0.76628  0.59471  0.94993  1.0000
  H   H1091     1.0  0.55350  0.87803  0.84749  1.0000
  C   C1096     1.0  0.52735  0.90527  0.84280  1.0000
  S   S383      1.0  0.77515  0.59608  0.01180  1.0000
  H   H1092     1.0  0.54705  0.83852  0.84546  1.0000
  C   C1097     1.0  0.89784  0.60311  0.80062  1.0000
  C   C1098     1.0  0.92171  0.60441  0.79757  1.0000
  H   H1093     1.0  0.93604  0.63839  0.90539  1.0000
  C   C1099     1.0  0.62570  0.89472  0.78230  1.0000
  H   H1094     1.0  0.93234  0.60523  0.80922  1.0000
  H   H1095     1.0  0.63799  0.90782  0.78050  1.0000
  C   C1100     1.0  0.84588  0.60089  0.96263  1.0000
  C   C1101     1.0  0.85020  0.61117  0.94468  1.0000
  C   C1102     1.0  0.86420  0.59955  0.93103  1.0000
  C   C1103     1.0  0.87415  0.57747  0.93523  1.0000
  C   C1104     1.0  0.87024  0.56738  0.95329  1.0000
  C   C1105     1.0  0.85614  0.57896  0.96690  1.0000
  H   H1096     1.0  0.84239  0.62816  0.94124  1.0000
  H   H1097     1.0  0.86690  0.60753  0.91719  1.0000
  H   H1098     1.0  0.87786  0.55033  0.95673  1.0000
  H   H1099     1.0  0.85303  0.57084  0.98065  1.0000
  N   N91       1.0  0.90868  0.54835  0.77251  1.0000
  N   N92       1.0  0.79658  0.57412  0.95660  1.0000
  C   C1106     1.0  0.62406  0.96811  0.87834  1.0000
  C   C1107     1.0  0.60338  0.96705  0.88926  1.0000
  H   H1100     1.0  0.80620  0.52562  0.98392  1.0000
  C   C1108     1.0  0.93189  0.60516  0.77934  1.0000
  H   H1101     1.0  0.86568  0.60248  0.78734  1.0000
  H   H1102     1.0  0.59599  0.95070  0.89238  1.0000
  H   H1103     1.0  0.91316  0.60672  0.91949  1.0000
  C   C1109     1.0  0.78283  0.59617  0.95651  1.0000
  C   C1110     1.0  0.62834  0.82564  0.93149  1.0000
  C   C1111     1.0  0.60652  0.83451  0.93796  1.0000
  C   C1112     1.0  0.59724  0.82727  0.95568  1.0000
  C   C1113     1.0  0.60963  0.81114  0.96720  1.0000
  C   C1114     1.0  0.63157  0.80236  0.96085  1.0000
  C   C1115     1.0  0.64084  0.80956  0.94304  1.0000
  H   H1104     1.0  0.59670  0.84688  0.92924  1.0000
  H   H1105     1.0  0.58030  0.83422  0.96046  1.0000
  H   H1106     1.0  0.64134  0.79000  0.96961  1.0000
  H   H1107     1.0  0.65773  0.80258  0.93816  1.0000
  N   N93       1.0  0.97847  0.60638  0.92702  1.0000
  S   S384      1.0  0.60872  0.74199  0.01714  1.0000
  C   C1116     1.0  0.52065  0.87864  0.88893  1.0000
  C   C1117     1.0  0.52662  0.85512  0.88754  1.0000
  C   C1118     1.0  0.96603  0.58886  0.93479  1.0000
  N   N94       1.0  0.62594  0.84676  0.00874  1.0000
  H   H1108     1.0  0.54234  0.84750  0.89325  1.0000
  C   C1119     1.0  0.61803  0.88708  0.80042  1.0000
  C   C1120     1.0  0.60243  0.86989  0.80293  1.0000
  C   C1121     1.0  0.59429  0.86075  0.78715  1.0000
  C   C1122     1.0  0.81067  0.56874  0.94133  1.0000
  H   H1109     1.0  0.62449  0.89422  0.81243  1.0000
  H   H1110     1.0  0.58232  0.84737  0.78892  1.0000
  C   C1123     1.0  0.50566  0.91121  0.83595  1.0000
  H   H1111     1.0  0.52128  0.83012  0.83624  1.0000
  N   N95       1.0  0.65391  0.82617  0.84298  1.0000
  C   C1124     1.0  0.66993  0.84166  0.83759  1.0000
  C   C1125     1.0  0.64006  0.81871  0.83025  1.0000
  C   C1126     1.0  0.67206  0.85041  0.81907  1.0000
  C   C1127     1.0  0.64199  0.82683  0.81157  1.0000
  C   C1128     1.0  0.65796  0.84292  0.80601  1.0000
  C   C1129     1.0  0.65130  0.81743  0.86248  1.0000
  H   H1112     1.0  0.68076  0.84781  0.84770  1.0000
  H   H1113     1.0  0.62693  0.80694  0.83460  1.0000
  H   H1114     1.0  0.68425  0.86322  0.81495  1.0000
  H   H1115     1.0  0.63040  0.82153  0.80165  1.0000
  H   H1116     1.0  0.65893  0.85001  0.79171  1.0000
  H   H1117     1.0  0.65579  0.79864  0.86367  1.0000
  H   H1118     1.0  0.66252  0.82579  0.87165  1.0000
  H   H1119     1.0  0.63320  0.82095  0.86807  1.0000
  C   C1130     1.0  0.91794  0.54455  0.80469  1.0000
  H   H1120     1.0  0.81243  0.58106  0.92953  1.0000
  H   H1121     1.0  0.78309  0.56263  0.98356  1.0000
  C   C1131     1.0  0.51184  0.84128  0.87924  1.0000
  C   C1132     1.0  0.96781  0.62422  0.91689  1.0000
  H   H1122     1.0  0.51637  0.82309  0.87829  1.0000
  C   C1133     1.0  0.53488  0.84261  0.83420  1.0000
  C   C1134     1.0  0.63949  0.84407  0.99269  1.0000
  H   H1123     1.0  0.89823  0.50461  0.92882  1.0000
  H   H1124     1.0  0.89692  0.51850  0.89571  1.0000
  C   C1135     1.0  0.79457  0.55867  0.97157  1.0000
  C   C1136     1.0  0.90171  0.54626  0.79101  1.0000
  H   H1125     1.0  0.59849  0.87218  0.01325  1.0000
  Fe  Fe192     1.0  0.61097  0.78025  0.01359  1.0000
  C   C1137     1.0  0.59245  0.98712  0.89646  1.0000
  H   H1126     1.0  0.67313  0.83321  0.98062  1.0000
  H   H1127     1.0  0.96647  0.54781  0.77612  1.0000
  N   N96       1.0  0.52470  0.86624  0.83493  1.0000
  H   H1128     1.0  0.59560  0.85510  0.99353  1.0000
  H   H1129     1.0  0.69002  0.82466  0.01149  1.0000
  H   H1130     1.0  0.64945  0.99027  0.86585  1.0000
  H   H1131     1.0  0.77914  0.60189  0.97089  1.0000
  H   H1132     1.0  0.79255  0.60994  0.94896  1.0000
  C   C1138     1.0  0.88421  0.60307  0.78515  1.0000
  H   H1133     1.0  0.54464  0.84040  0.82060  1.0000
  H   H1134     1.0  0.63229  0.84764  0.97919  1.0000
  C   C1139     1.0  0.93145  0.60672  0.92172  1.0000
  C   C1140     1.0  0.63350  0.98939  0.87436  1.0000
  H   H1135     1.0  0.73217  0.65209  0.01464  1.0000
  C   C1141     1.0  0.94833  0.54701  0.78046  1.0000
  H   H1136     1.0  0.95406  0.54371  0.80986  1.0000
  H   H1137     1.0  0.98987  0.57234  0.89079  1.0000
  C   C1142     1.0  0.82370  0.54766  0.94099  1.0000
  C   C1143     1.0  0.66270  0.83603  0.99341  1.0000
  H   H1138     1.0  0.99287  0.61883  0.82806  1.0000
  H   H1139     1.0  0.57666  0.98612  0.90516  1.0000
  C   C1144     1.0  0.82222  0.53207  0.95642  1.0000
  H   H1140     1.0  0.83548  0.54387  0.92912  1.0000
  C   C1145     1.0  0.94138  0.54488  0.79934  1.0000
  C   C1146     1.0  0.67215  0.83126  0.01069  1.0000
  H   H1141     1.0  0.93246  0.57474  0.93817  1.0000
  H   H1142     1.0  0.91238  0.54336  0.81936  1.0000
  H   H1143     1.0  0.97439  0.57482  0.94297  1.0000
  C   C1147     1.0  0.70528  0.67952  0.01809  1.0000
  H   H1144     1.0  0.53663  0.91796  0.84910  1.0000
  H   H1145     1.0  0.70181  0.68100  0.00346  1.0000
  H   H1146     1.0  0.95260  0.51011  0.88576  1.0000
  C   C1148     1.0  0.60149  0.85472  0.00796  1.0000
  H   H1147     1.0  0.95039  0.60613  0.77719  1.0000
  H   H1148     1.0  0.59067  0.84260  0.01647  1.0000
  H   H1149     1.0  0.97767  0.63799  0.91050  1.0000
  H   H1150     1.0  0.63251  0.69416  0.00509  1.0000
  H   H1151     1.0  0.62833  0.66390  0.00481  1.0000
  H   H1152     1.0  0.60381  0.68418  0.00775  1.0000
  C   C1149     1.0  0.62205  0.68012  0.01129  1.0000
  C   C1150     1.0  0.89148  0.50154  0.90009  1.0000
  C   C1151     1.0  0.50358  0.87198  0.82789  1.0000
  C   C1152     1.0  0.00308  0.60665  0.93040  1.0000
