data_image0
_chemical_formula_structural       FeS2FeS2FeSFeS3FeSCFeS2FeSFeS3FeS2FeS2FeSFeS3FeS2FeS2FeCFeHS2C3HC2HCH2C6H4C3H4C6H4C6H5NH2C3H5C3H4C5HCHC2HCH2CH3C2H5CSH2CH3CHNC6H8C3H3C2HNC4H5NH3C2HC2HNHC3HC2NCSCH6CNC2FeS2FeS2FeSFeS3FeS2FeSCFeSFeS3FeS2FeS2FeSFeS3FeSCFeSHFeSFeS3HC6HC2HC6H4C4HC6H4C2H3C6H4CH4CHNHCHNCH2C2HCH2C4HNC6H9CH4CSCH2CH2NC6H9SH4CH2CHC2HC2H2CHCHC2HCHCNC6H6C2H3SHC3NCH3CH2NH3C3H2C2HCHCHFeS2FeS2FeSFeS3FeS2FeS2FeNFeS3FeS2FeS2FeCFeS3FeSHFeSHFeSFeS3HC2HCH2C2H2C6H4C7H4C2H8C2NHC6H5C2HC4H2C4H3CHC2H2CSHCH2CHC2HC8H3NC6H9NC4HCH2C4H4NSCHC3HCHC2H2SHCH2CH2C2NCNH3C2NHCHCHCNHC5H3CH2C2HC2HCHCH2NH6CHC2H7SHC2H2CFeSHFeS2FeSFeS3FeS2FeS2FeSFeS3FeSCFeSNFeSFeS3FeS2FeS2FeSFeS3C4H3NHC2H2C5H5C6H4C6H4C6H4C5H2C3H3CHC4H4CHCHCHNHCHNC6H6CH3SH3C2HCNC6H10C3H4CHCHC4HNHC3SH2NH2CH2C2NH3CHCHCHCHFeSFeS2FeSFeHS2FeS2FeS2FeSFeS3FeSCFeS2FeSFeS3FeS2FeSFeSFeS3C6H5C3H3C6H4C8H4SHC2HC2HCHC2H2C3H2CH3C2SH2C4H4C3HCHCH3C3SC3HCNCNC2NHCH8CHCHNC2NC6H9CH8C3HCHCHC2NH2CH2CHNC2H4C2HC2SCH2C2H3CHC2H2NCHC4H3CHFeS2FeS2FeSFeS3FeS2FeS2FeSFeS3FeS2FeS2Fe2S3FeS2FeSFeSFeS3C6H4C6H4C6H4CH3CNCNHCHSNHC3HCH6C4H5C5H3SCHC6H2C7HCH4CH3CH2CH2CH8CH2CHCSH2C4NC6H5C4H3C2HNC6H2CH3CH2CHNHCNC6H10C4H4C4H4CHCHCHC2NH2C3H2C3H2FeSFeS2FeSFeS3FeS2FeS2FeSFeS3FeS2FeS2FeSFeS3FeS2FeSFeSFeS3C6H4C6H6CHCH2NCHCHCHC6H4C6H6C3NH3CH2C4HCH2C6H5CH2CSCHC2SCH2CHC2HSHCH5C4H2C2HCH6C2H2C3HNH2C3HCH2C3HNC3H5C2HNCHC2H2C2H3NC2HCH3C3NCHCNC9HCH2CH3CH3CH3C3FeSCFeS2FeSFeS3FeS2FeS2FeSFeS3FeS2FeSCFeSFeS3FeSHFeS2FeSFeS3C2HC2HC6H4C2HC7H4C3HC3HCHC6H6C3H4C5H2CH2SCHC4H2C2HNHCNH2CNC6H10NCH3CH2C2HCHC2H5NHCNCH5C2HCHC2SH2NH4CHCH2CHCHCHC3SC3HC2H7C3HCH2CFeS2FeS2FeSFeS3FeS2FeS2FeSFeS3FeS2FeS2FeSFeS3FeS2FeSCFeSFeS3CH2CH2CHC3H2C3H3C4H4C6H5C4HC4H2C6H4C6H4CHNC5HCHC2SC2HCH2CHSH5C3NC6H12CNHC2H3NC4H2C2HC3HC3HCH4CHC3HNHNC3HNCH4C2H2C2H2C3NH3CHC2NCH2CH8CHC2HC2HCHC2H2C2H2C2HNC2H2C2H3C2HCHNHC3H2SFeS2FeS2FeSFeCS2FeS2FeS2FeSFeS3FeS2FeS2FeCFeS3FeS2FeSHFeSFeS3HC5HC3H2C2HCH4CHCH2C7H4SH6C6H4C6H4C2H3C2H2CH2C4H4CHC3HC3H2CNHCHSC4HNC6H8NC2NHNCSH2CHCH3CH7C3HCNC2H2C2H3CHCHCH2CNHCHC2H2FeS2FeS2FeHFeS3FeS2FeS2FeSFeS3FeS2FeS2FeSFeCS2FeS2FeS2FeSFeHS2HCHCHC3H2CH2CH2C4HCH3C6H4C6H6C3HN2CNH2CH2SHSHCHC6H4C2HC2H2CHCH2C3H2C6HSH2CH2CNHCHNC4HCH3CH4CH2CH2CH3CHCH2CH2C5H2C3HC2H3CHNC2H3C3HCHCHC2H2CFeS2FeS2FeSFeS3FeS2FeS2FeSFeS3FeS2FeS2FeSFeS3FeS2FeS2FeSFeS3C2H2C3H3CH2NCH4C4NH2C6H4C2HC2H2CHCHC6H4C4H3C8H5NC6H3NCHC2SHCH3CHC2H3C3H2NCHCH5C4H2CH3C2H3C2HCH2C2H3CHC2NC6H8NC6H2C3HCH3C4HC2HC6H2CH3NC2H5CH2CSH7NH5CH2C3HC3HC2FeS2FeS2FeSFeS3FeSCFeS2FeSFeS3FeSCFeSHFeSFeS3FeS2FeS2FeSFeS3H2CHC4HCH2C6HC2HC6H4C6H4C6H6CH3CHCH3CH3C2H2CSNH3C2HC2H2CHC2HNC4NH4C3HCH2C3HCHNHCNHCH3CH2NC2H4CHC2HCSCH3CH2C2H2NH3CH2CNC4HCH5C2H2C2H3C3HCHC3H2CH2FeS2FeSFeSFeS3FeS2FeS2FeSFeS3FeSHFeS2FeSFeS3FeS2FeS2FeSFeS3C7H2CHC6H5CH2C7H5CHC6H4NCNH2C3H2CH3CHCHC2HCHC6H3CH3NC2HCH2C3H2CH2CH2C6HC2HCH2C3H3C2H3CNC6H8NHCH4CHC2HCHCNHC3HCNHCH4CH2CHCNCHNCH2C2HCH2CHCH2CSCH8C3H2FeS2FeSFeSFeS3FeS2FeS2FeSFeS3FeSHFeSHFeSFeS3FeS2FeS2FeSFeS3HC3HCH3CHC2H3CHCH2C6H4C2HC6H4C2HC7H4C2H3CHCHC2NHC2NC6H11C2H4C2HC2HCHCH2CNC7H5CHCNC2HCHCH2CHCHC2HC2H4NH2CS2C3H2C2NHNH3C3H2CHC2HCHC5H5NCHCFeS2FeS2FeSFeS3FeS2FeSCFeSFeS3FeS2FeS2FeSFeS3FeS2FeS2FeHFeCS2C3H3C2HC3H4CH4C6H4C6H3C6H4C6H4C3HCH2NC3HCH2CHCHC3H9CH4C2HNH5C2H2CHC2HC2H2CH2SH2CH3CH3NCHNH3C2HC3H3C3NHCNHC2H2CHCHCNH3CHC3H5SCHC2H2
_chemical_formula_sum              "Fe256 S512 C1536 H1536 N128"
_cell_length_a       54.8758
_cell_length_b       55.119
_cell_length_c       93.3636
_cell_angle_alpha    82.1044
_cell_angle_beta     82.2642
_cell_angle_gamma    80.8071

_space_group_name_H-M_alt    "P 1"
_space_group_IT_number       1

loop_
  _space_group_symop_operation_xyz
  'x, y, z'

loop_
  _atom_site_type_symbol
  _atom_site_label
  _atom_site_symmetry_multiplicity
  _atom_site_fract_x
  _atom_site_fract_y
  _atom_site_fract_z
  _atom_site_occupancy
  Fe  Fe1       1.0  0.23298  0.40046  0.16690  1.0000
  S   S1        1.0  0.19839  0.38572  0.17815  1.0000
  S   S2        1.0  0.22916  0.44256  0.16120  1.0000
  Fe  Fe2       1.0  0.25851  0.34776  0.16114  1.0000
  S   S3        1.0  0.22552  0.33014  0.17179  1.0000
  S   S4        1.0  0.29004  0.32473  0.14838  1.0000
  Fe  Fe3       1.0  0.20296  0.36232  0.15972  1.0000
  S   S5        1.0  0.17055  0.35799  0.14785  1.0000
  Fe  Fe4       1.0  0.22424  0.35506  0.18915  1.0000
  S   S6        1.0  0.22347  0.34025  0.21330  1.0000
  S   S7        1.0  0.23592  0.37839  0.14797  1.0000
  S   S8        1.0  0.25897  0.37124  0.17902  1.0000
  Fe  Fe5       1.0  0.44823  0.18236  0.16414  1.0000
  S   S9        1.0  0.43063  0.15052  0.15925  1.0000
  C   C1        1.0  0.38514  0.14896  0.21812  1.0000
  Fe  Fe6       1.0  0.39750  0.21494  0.16815  1.0000
  S   S10       1.0  0.37698  0.18545  0.16350  1.0000
  S   S11       1.0  0.37561  0.25018  0.17628  1.0000
  Fe  Fe7       1.0  0.40160  0.15948  0.17790  1.0000
  S   S12       1.0  0.38511  0.12836  0.19273  1.0000
  Fe  Fe8       1.0  0.40762  0.17888  0.14524  1.0000
  S   S13       1.0  0.39478  0.17262  0.12400  1.0000
  S   S14       1.0  0.42059  0.18917  0.18386  1.0000
  S   S15       1.0  0.42675  0.21057  0.14877  1.0000
  Fe  Fe9       1.0  0.09059  0.36267  0.06055  1.0000
  S   S16       1.0  0.12896  0.35061  0.04948  1.0000
  S   S17       1.0  0.05938  0.33960  0.06559  1.0000
  Fe  Fe10      1.0  0.10200  0.41298  0.06428  1.0000
  S   S18       1.0  0.14087  0.40512  0.05348  1.0000
  S   S19       1.0  0.08837  0.44907  0.07325  1.0000
  Fe  Fe11      1.0  0.12413  0.38885  0.03697  1.0000
  S   S20       1.0  0.13062  0.40456  0.01310  1.0000
  Fe  Fe12      1.0  0.14200  0.36834  0.06714  1.0000
  S   S21       1.0  0.17629  0.35807  0.07926  1.0000
  S   S22       1.0  0.08501  0.39958  0.04705  1.0000
  S   S23       1.0  0.10400  0.37730  0.07896  1.0000
  Fe  Fe13      1.0  0.42969  0.07430  0.03160  1.0000
  S   S24       1.0  0.44352  0.03351  0.03423  1.0000
  S   S25       1.0  0.41067  0.08914  0.01140  1.0000
  Fe  Fe14      1.0  0.44436  0.08223  0.06139  1.0000
  S   S26       1.0  0.45907  0.04180  0.06571  1.0000
  S   S27       1.0  0.45576  0.10253  0.07862  1.0000
  Fe  Fe15      1.0  0.47590  0.04502  0.04250  1.0000
  C   C2        1.0  0.38440  0.11057  0.13126  1.0000
  Fe  Fe16      1.0  0.42518  0.03462  0.05711  1.0000
  H   H1        1.0  0.36862  0.12708  0.16498  1.0000
  S   S28       1.0  0.46351  0.08584  0.03841  1.0000
  S   S29       1.0  0.40887  0.07478  0.05423  1.0000
  C   C3        1.0  0.11019  0.46870  0.06610  1.0000
  C   C4        1.0  0.12362  0.46565  0.05250  1.0000
  C   C5        1.0  0.23342  0.49103  0.16267  1.0000
  H   H2        1.0  0.41708  0.08579  0.12425  1.0000
  C   C6        1.0  0.36505  0.02297  0.03734  1.0000
  C   C7        1.0  0.37900  0.11775  0.15606  1.0000
  H   H3        1.0  0.11895  0.45286  0.04587  1.0000
  C   C8        1.0  0.14310  0.47924  0.04735  1.0000
  H   H4        1.0  0.36671  0.31922  0.13861  1.0000
  H   H5        1.0  0.16437  0.44353  0.98562  1.0000
  C   C9        1.0  0.41205  0.15320  0.11144  1.0000
  C   C10       1.0  0.40082  0.14852  0.09961  1.0000
  C   C11       1.0  0.41361  0.13248  0.08966  1.0000
  C   C12       1.0  0.43799  0.12142  0.09130  1.0000
  C   C13       1.0  0.44921  0.12613  0.10314  1.0000
  C   C14       1.0  0.43624  0.14173  0.11325  1.0000
  H   H6        1.0  0.38212  0.15738  0.09810  1.0000
  H   H7        1.0  0.40486  0.12921  0.08052  1.0000
  H   H8        1.0  0.46810  0.11773  0.10446  1.0000
  H   H9        1.0  0.44506  0.14513  0.12233  1.0000
  C   C15       1.0  0.24353  0.46620  0.16639  1.0000
  C   C16       1.0  0.26483  0.46114  0.17364  1.0000
  C   C17       1.0  0.27608  0.48078  0.17688  1.0000
  H   H10       1.0  0.16525  0.44117  0.06975  1.0000
  H   H11       1.0  0.27286  0.44215  0.17652  1.0000
  H   H12       1.0  0.29276  0.47669  0.18227  1.0000
  H   H13       1.0  0.17107  0.48774  0.98289  1.0000
  C   C18       1.0  0.17231  0.35923  0.12869  1.0000
  C   C19       1.0  0.15153  0.35521  0.12253  1.0000
  C   C20       1.0  0.15225  0.35558  0.10737  1.0000
  C   C21       1.0  0.17388  0.35980  0.09821  1.0000
  C   C22       1.0  0.19462  0.36406  0.10434  1.0000
  C   C23       1.0  0.19386  0.36380  0.11951  1.0000
  H   H14       1.0  0.13478  0.35164  0.12953  1.0000
  H   H15       1.0  0.13625  0.35200  0.10281  1.0000
  H   H16       1.0  0.21147  0.36723  0.09734  1.0000
  H   H17       1.0  0.21002  0.36688  0.12409  1.0000
  C   C24       1.0  0.31047  0.30018  0.15664  1.0000
  C   C25       1.0  0.32845  0.28616  0.14772  1.0000
  C   C26       1.0  0.34746  0.26913  0.15374  1.0000
  C   C27       1.0  0.34870  0.26610  0.16876  1.0000
  C   C28       1.0  0.32990  0.27912  0.17774  1.0000
  C   C29       1.0  0.31076  0.29598  0.17173  1.0000
  H   H18       1.0  0.32828  0.28916  0.13603  1.0000
  H   H19       1.0  0.36187  0.25931  0.14670  1.0000
  H   H20       1.0  0.33070  0.27687  0.18937  1.0000
  H   H21       1.0  0.29693  0.30653  0.17873  1.0000
  H   H22       1.0  0.13111  0.42110  0.08400  1.0000
  N   N1        1.0  0.38825  0.01911  0.01382  1.0000
  H   H23       1.0  0.49351  0.22444  0.16320  1.0000
  H   H24       1.0  0.02872  0.37692  0.01949  1.0000
  C   C30       1.0  0.46500  0.07550  0.97796  1.0000
  C   C31       1.0  0.08511  0.34456  0.00812  1.0000
  C   C32       1.0  0.04237  0.36059  0.03978  1.0000
  H   H25       1.0  0.39459  0.04604  0.99576  1.0000
  H   H26       1.0  0.37837  0.11426  0.12049  1.0000
  H   H27       1.0  0.17089  0.34108  0.21019  1.0000
  H   H28       1.0  0.34877  0.14746  0.12833  1.0000
  H   H29       1.0  0.18462  0.41179  0.07347  1.0000
  C   C33       1.0  0.14259  0.34920  0.98712  1.0000
  C   C34       1.0  0.13270  0.38750  0.99818  1.0000
  C   C35       1.0  0.14081  0.36202  0.99935  1.0000
  H   H30       1.0  0.39395  0.09651  0.98298  1.0000
  H   H31       1.0  0.36497  0.09458  0.21593  1.0000
  H   H32       1.0  0.42105  0.03477  0.00553  1.0000
  H   H33       1.0  0.14598  0.35227  0.00961  1.0000
  C   C36       1.0  0.02425  0.36716  0.03014  1.0000
  C   C37       1.0  0.34891  0.14011  0.14004  1.0000
  C   C38       1.0  0.35736  0.33695  0.14250  1.0000
  C   C39       1.0  0.45255  0.07787  0.99202  1.0000
  C   C40       1.0  0.42692  0.08567  0.99389  1.0000
  H   H34       1.0  0.41193  0.01581  0.99365  1.0000
  C   C41       1.0  0.33450  0.34921  0.16542  1.0000
  H   H35       1.0  0.46289  0.07417  0.00135  1.0000
  C   C42       1.0  0.11492  0.48678  0.07409  1.0000
  C   C43       1.0  0.36917  0.10997  0.22074  1.0000
  H   H36       1.0  0.19353  0.44027  0.07738  1.0000
  C   C44       1.0  0.03661  0.34799  0.05355  1.0000
  H   H37       1.0  0.33056  0.17181  0.22019  1.0000
  H   H38       1.0  0.06092  0.36490  0.03653  1.0000
  C   C45       1.0  0.41443  0.08970  0.14713  1.0000
  H   H39       1.0  0.49739  0.07543  0.06412  1.0000
  H   H40       1.0  0.32109  0.36148  0.15925  1.0000
  H   H41       1.0  0.33911  0.34111  0.13806  1.0000
  C   C46       1.0  0.41378  0.09041  0.98164  1.0000
  C   C47       1.0  0.17764  0.43002  0.07748  1.0000
  H   H42       1.0  0.34827  0.15650  0.14590  1.0000
  H   H43       1.0  0.39323  0.16387  0.21136  1.0000
  H   H44       1.0  0.10803  0.41336  0.10832  1.0000
  H   H45       1.0  0.50200  0.11589  0.05182  1.0000
  H   H46       1.0  0.38788  0.04927  0.02598  1.0000
  C   C48       1.0  0.19871  0.32784  0.22469  1.0000
  S   S30       1.0  0.40142  0.00779  0.07010  1.0000
  H   H47       1.0  0.36011  0.03283  0.04686  1.0000
  H   H48       1.0  0.43156  0.07743  0.14889  1.0000
  C   C49       1.0  0.38108  0.03198  0.02559  1.0000
  H   H49       1.0  0.01741  0.47722  0.04915  1.0000
  H   H50       1.0  0.19528  0.42861  0.10302  1.0000
  H   H51       1.0  0.02119  0.46463  0.06770  1.0000
  C   C50       1.0  0.35599  0.00088  0.03688  1.0000
  H   H52       1.0  0.00821  0.33187  0.06825  1.0000
  N   N2        1.0  0.20997  0.30271  0.13181  1.0000
  C   C51       1.0  0.20295  0.30267  0.11829  1.0000
  C   C52       1.0  0.23334  0.30705  0.13327  1.0000
  C   C53       1.0  0.21933  0.30763  0.10576  1.0000
  C   C54       1.0  0.25013  0.31221  0.12098  1.0000
  C   C55       1.0  0.24302  0.31256  0.10715  1.0000
  C   C56       1.0  0.19270  0.29691  0.14479  1.0000
  H   H53       1.0  0.18435  0.29953  0.11710  1.0000
  H   H54       1.0  0.23912  0.30678  0.14397  1.0000
  H   H55       1.0  0.21332  0.30852  0.09504  1.0000
  H   H56       1.0  0.26849  0.31604  0.12225  1.0000
  H   H57       1.0  0.25572  0.31688  0.09751  1.0000
  H   H58       1.0  0.19459  0.27661  0.14795  1.0000
  H   H59       1.0  0.19622  0.30601  0.15408  1.0000
  H   H60       1.0  0.17317  0.30415  0.14281  1.0000
  C   C57       1.0  0.12704  0.41715  0.10732  1.0000
  C   C58       1.0  0.16345  0.42136  0.11812  1.0000
  C   C59       1.0  0.13882  0.41698  0.11968  1.0000
  H   H61       1.0  0.40672  0.09796  0.16939  1.0000
  H   H62       1.0  0.17299  0.42044  0.12769  1.0000
  H   H63       1.0  0.12918  0.41273  0.13046  1.0000
  C   C60       1.0  0.06374  0.49794  0.04942  1.0000
  C   C61       1.0  0.01258  0.34190  0.05766  1.0000
  H   H64       1.0  0.09387  0.30881  0.00052  1.0000
  N   N3        1.0  0.35392  0.33482  0.15845  1.0000
  C   C62       1.0  0.37054  0.31900  0.16625  1.0000
  C   C63       1.0  0.33097  0.34749  0.18064  1.0000
  C   C64       1.0  0.36757  0.31680  0.18147  1.0000
  C   C65       1.0  0.34759  0.33109  0.18868  1.0000
  H   H65       1.0  0.38562  0.30711  0.16079  1.0000
  H   H66       1.0  0.31508  0.35834  0.18613  1.0000
  H   H67       1.0  0.38010  0.30326  0.18758  1.0000
  H   H68       1.0  0.34467  0.32903  0.20049  1.0000
  H   H69       1.0  0.36863  0.35187  0.13807  1.0000
  N   N4        1.0  0.04320  0.49289  0.05873  1.0000
  H   H70       1.0  0.07655  0.38273  0.01220  1.0000
  H   H71       1.0  0.07155  0.48587  0.04121  1.0000
  H   H72       1.0  0.49997  0.12936  0.06853  1.0000
  C   C66       1.0  0.17596  0.42587  0.10414  1.0000
  C   C67       1.0  0.14015  0.42162  0.09354  1.0000
  H   H73       1.0  0.04509  0.45601  0.05364  1.0000
  C   C68       1.0  0.08734  0.32826  0.99761  1.0000
  C   C69       1.0  0.07373  0.36139  0.98009  1.0000
  H   H74       1.0  0.33215  0.13106  0.14385  1.0000
  N   N5        1.0  0.37144  0.12254  0.14246  1.0000
  H   H75       1.0  0.06556  0.39776  0.98727  1.0000
  C   C70       1.0  0.03114  0.47167  0.05715  1.0000
  C   C71       1.0  0.40054  0.10122  0.15862  1.0000
  C   C72       1.0  0.40629  0.09430  0.13336  1.0000
  H   H76       1.0  0.08992  0.33785  0.01901  1.0000
  C   C73       1.0  0.07739  0.36972  0.00434  1.0000
  C   C74       1.0  0.37967  0.12922  0.21179  1.0000
  N   N6        1.0  0.16416  0.42623  0.09208  1.0000
  C   C75       1.0  0.07133  0.37819  0.99032  1.0000
  S   S31       1.0  0.49020  0.17126  0.16454  1.0000
  C   C76       1.0  0.17461  0.33129  0.22071  1.0000
  H   H77       1.0  0.14906  0.32951  0.98806  1.0000
  H   H78       1.0  0.11993  0.41971  0.98381  1.0000
  H   H79       1.0  0.15392  0.47631  0.03699  1.0000
  H   H80       1.0  0.31338  0.13371  0.21795  1.0000
  H   H81       1.0  0.10424  0.48947  0.08451  1.0000
  H   H82       1.0  0.21691  0.49511  0.15710  1.0000
  C   C77       1.0  0.12636  0.40002  0.98474  1.0000
  N   N7        1.0  0.08205  0.33684  0.98374  1.0000
  C   C78       1.0  0.40473  0.02929  0.00157  1.0000
  C   C79       1.0  0.14840  0.49676  0.05550  1.0000
  Fe  Fe17      1.0  0.10003  0.25576  0.30275  1.0000
  S   S32       1.0  0.10131  0.29599  0.29534  1.0000
  S   S33       1.0  0.06300  0.24122  0.31008  1.0000
  Fe  Fe18      1.0  0.15678  0.24522  0.30337  1.0000
  S   S34       1.0  0.16161  0.28498  0.29573  1.0000
  S   S35       1.0  0.18987  0.21955  0.31184  1.0000
  Fe  Fe19      1.0  0.12811  0.29451  0.31180  1.0000
  S   S36       1.0  0.12441  0.32676  0.32533  1.0000
  Fe  Fe20      1.0  0.13467  0.28292  0.27997  1.0000
  S   S37       1.0  0.13401  0.30151  0.25666  1.0000
  S   S38       1.0  0.12470  0.25513  0.32034  1.0000
  S   S39       1.0  0.13186  0.24227  0.28649  1.0000
  Fe  Fe21      1.0  0.29203  0.10429  0.29519  1.0000
  S   S40       1.0  0.32141  0.12774  0.29610  1.0000
  S   S41       1.0  0.25291  0.12131  0.29031  1.0000
  Fe  Fe22      1.0  0.32939  0.05688  0.29420  1.0000
  S   S42       1.0  0.36141  0.07791  0.29411  1.0000
  C   C80       1.0  0.01423  0.34300  0.41783  1.0000
  Fe  Fe23      1.0  0.33786  0.09699  0.31196  1.0000
  S   S43       1.0  0.36272  0.10398  0.32829  1.0000
  Fe  Fe24      1.0  0.34294  0.10697  0.27829  1.0000
  S   S44       1.0  0.36188  0.13316  0.26099  1.0000
  S   S45       1.0  0.30628  0.07483  0.31281  1.0000
  S   S46       1.0  0.31301  0.08450  0.27661  1.0000
  Fe  Fe25      1.0  0.08576  0.38549  0.41778  1.0000
  S   S47       1.0  0.09290  0.34495  0.42524  1.0000
  S   S48       1.0  0.04795  0.40423  0.41288  1.0000
  Fe  Fe26      1.0  0.13914  0.39167  0.41814  1.0000
  S   S49       1.0  0.15047  0.35132  0.42542  1.0000
  S   S50       1.0  0.16741  0.41768  0.41545  1.0000
  Fe  Fe27      1.0  0.12662  0.34500  0.40870  1.0000
  S   S51       1.0  0.13547  0.31492  0.39344  1.0000
  Fe  Fe28      1.0  0.11552  0.35584  0.44110  1.0000
  S   S52       1.0  0.10932  0.34080  0.46504  1.0000
  S   S53       1.0  0.11815  0.38510  0.40030  1.0000
  S   S54       1.0  0.10574  0.39652  0.43469  1.0000
  Fe  Fe29      1.0  0.45917  0.09198  0.40665  1.0000
  S   S55       1.0  0.42307  0.09336  0.42140  1.0000
  C   C81       1.0  0.12507  0.35369  0.28587  1.0000
  Fe  Fe30      1.0  0.45916  0.03869  0.40192  1.0000
  S   S56       1.0  0.42374  0.03598  0.41666  1.0000
  H   H83       1.0  0.01099  0.36423  0.45273  1.0000
  Fe  Fe31      1.0  0.41068  0.07311  0.40479  1.0000
  S   S57       1.0  0.37308  0.08017  0.39599  1.0000
  Fe  Fe32      1.0  0.44001  0.05615  0.43150  1.0000
  S   S58       1.0  0.44178  0.04012  0.45516  1.0000
  S   S59       1.0  0.44547  0.07473  0.38938  1.0000
  S   S60       1.0  0.47680  0.05595  0.41756  1.0000
  H   H84       1.0  0.34282  0.13026  0.38739  1.0000
  C   C82       1.0  0.15398  0.44861  0.41160  1.0000
  C   C83       1.0  0.16684  0.46783  0.41335  1.0000
  C   C84       1.0  0.04372  0.37752  0.45729  1.0000
  C   C85       1.0  0.29201  0.14079  0.25328  1.0000
  C   C86       1.0  0.12054  0.47890  0.40282  1.0000
  C   C87       1.0  0.13073  0.45417  0.40645  1.0000
  H   H85       1.0  0.18481  0.46356  0.41738  1.0000
  C   C88       1.0  0.15659  0.35880  0.26015  1.0000
  C   C89       1.0  0.15633  0.49263  0.41007  1.0000
  H   H86       1.0  0.12065  0.43945  0.40513  1.0000
  C   C90       1.0  0.36530  0.09471  0.34699  1.0000
  C   C91       1.0  0.38793  0.09590  0.35211  1.0000
  C   C92       1.0  0.39084  0.09027  0.36697  1.0000
  C   C93       1.0  0.37093  0.08391  0.37701  1.0000
  C   C94       1.0  0.34828  0.08242  0.37191  1.0000
  C   C95       1.0  0.34550  0.08759  0.35692  1.0000
  H   H87       1.0  0.40331  0.10147  0.34451  1.0000
  H   H88       1.0  0.40822  0.09185  0.37069  1.0000
  H   H89       1.0  0.33268  0.07768  0.37960  1.0000
  H   H90       1.0  0.32787  0.08685  0.35314  1.0000
  C   C96       1.0  0.36938  0.13041  0.24221  1.0000
  C   C97       1.0  0.41597  0.03445  0.35658  1.0000
  C   C98       1.0  0.36401  0.11054  0.23592  1.0000
  C   C99       1.0  0.29593  0.13044  0.24014  1.0000
  H   H91       1.0  0.35578  0.09575  0.24272  1.0000
  C   C100      1.0  0.13120  0.31862  0.37465  1.0000
  C   C101      1.0  0.13556  0.29764  0.36712  1.0000
  C   C102      1.0  0.13328  0.29979  0.35211  1.0000
  C   C103      1.0  0.12673  0.32303  0.34438  1.0000
  C   C104      1.0  0.12230  0.34403  0.35193  1.0000
  C   C105      1.0  0.12447  0.34187  0.36696  1.0000
  H   H92       1.0  0.14093  0.27958  0.37290  1.0000
  H   H93       1.0  0.13689  0.28346  0.34648  1.0000
  H   H94       1.0  0.11725  0.36210  0.34607  1.0000
  H   H95       1.0  0.12126  0.35823  0.37254  1.0000
  C   C106      1.0  0.15960  0.30997  0.24428  1.0000
  C   C107      1.0  0.18379  0.30604  0.24815  1.0000
  H   H96       1.0  0.34727  0.05460  0.32978  1.0000
  H   H97       1.0  0.18749  0.29624  0.25866  1.0000
  H   H98       1.0  0.33873  0.16254  0.37986  1.0000
  C   C108      1.0  0.20877  0.19401  0.30445  1.0000
  C   C109      1.0  0.22956  0.18242  0.31136  1.0000
  C   C110      1.0  0.24386  0.16070  0.30677  1.0000
  C   C111      1.0  0.23718  0.15005  0.29539  1.0000
  C   C112      1.0  0.21667  0.16188  0.28828  1.0000
  C   C113      1.0  0.20269  0.18394  0.29266  1.0000
  H   H99       1.0  0.23438  0.19006  0.32050  1.0000
  H   H100      1.0  0.25954  0.15174  0.31237  1.0000
  H   H101      1.0  0.21144  0.15379  0.27943  1.0000
  H   H102      1.0  0.18678  0.19271  0.28723  1.0000
  C   C114      1.0  0.38008  0.14949  0.23325  1.0000
  H   H103      1.0  0.09508  0.36408  0.27252  1.0000
  H   H104      1.0  0.42332  0.09229  0.45750  1.0000
  H   H105      1.0  0.01054  0.29410  0.33106  1.0000
  H   H106      1.0  0.44639  0.14648  0.37569  1.0000
  C   C115      1.0  0.13087  0.36374  0.25978  1.0000
  H   H107      1.0  0.01107  0.33494  0.37126  1.0000
  N   N8        1.0  0.05828  0.31994  0.39218  1.0000
  H   H108      1.0  0.28877  0.11348  0.23941  1.0000
  C   C116      1.0  0.01723  0.29794  0.29413  1.0000
  H   H109      1.0  0.11299  0.35128  0.29602  1.0000
  N   N9        1.0  0.30161  0.16179  0.25441  1.0000
  C   C117      1.0  0.03932  0.35771  0.37197  1.0000
  H   H110      1.0  0.28152  0.13172  0.26260  1.0000
  H   H111      1.0  0.08845  0.29635  0.40116  1.0000
  C   C118      1.0  0.02974  0.35998  0.41960  1.0000
  C   C119      1.0  0.02836  0.38300  0.41107  1.0000
  H   H112      1.0  0.49892  0.16991  0.40098  1.0000
  C   C120      1.0  0.11505  0.36101  0.27272  1.0000
  H   H113      1.0  0.04224  0.35538  0.42781  1.0000
  H   H114      1.0  0.36632  0.03321  0.31844  1.0000
  C   C121      1.0  0.48769  0.11181  0.44450  1.0000
  C   C122      1.0  0.03870  0.23883  0.29971  1.0000
  C   C123      1.0  0.04230  0.23971  0.28453  1.0000
  C   C124      1.0  0.30958  0.14184  0.22811  1.0000
  H   H115      1.0  0.06035  0.24200  0.27869  1.0000
  N   N10       1.0  0.18664  0.38253  0.38201  1.0000
  C   C125      1.0  0.18066  0.36953  0.37181  1.0000
  C   C126      1.0  0.19560  0.37032  0.39444  1.0000
  C   C127      1.0  0.18423  0.34364  0.37376  1.0000
  C   C128      1.0  0.19896  0.34445  0.39685  1.0000
  C   C129      1.0  0.19319  0.33108  0.38643  1.0000
  C   C130      1.0  0.18200  0.40966  0.37996  1.0000
  H   H116      1.0  0.17282  0.37913  0.36217  1.0000
  H   H117      1.0  0.19988  0.38054  0.40270  1.0000
  H   H118      1.0  0.17929  0.33333  0.36573  1.0000
  H   H119      1.0  0.20542  0.33489  0.40690  1.0000
  H   H120      1.0  0.19491  0.31102  0.38836  1.0000
  H   H121      1.0  0.18531  0.41705  0.36830  1.0000
  H   H122      1.0  0.16249  0.41619  0.38425  1.0000
  H   H123      1.0  0.19439  0.41770  0.38596  1.0000
  H   H124      1.0  0.40464  0.04679  0.32126  1.0000
  C   C131      1.0  0.02796  0.33644  0.37572  1.0000
  H   H125      1.0  0.35577  0.02573  0.35869  1.0000
  H   H126      1.0  0.38432  0.16490  0.23804  1.0000
  H   H127      1.0  0.22180  0.31225  0.24158  1.0000
  H   H128      1.0  0.03155  0.37271  0.36437  1.0000
  C   C132      1.0  0.12921  0.37772  0.47489  1.0000
  S   S61       1.0  0.47725  0.00574  0.39069  1.0000
  C   C133      1.0  0.35882  0.03614  0.32985  1.0000
  H   H129      1.0  0.03166  0.29852  0.28498  1.0000
  H   H130      1.0  0.02560  0.23731  0.26515  1.0000
  C   C134      1.0  0.31521  0.17295  0.24271  1.0000
  H   H131      1.0  0.28549  0.16236  0.27665  1.0000
  H   H132      1.0  0.16868  0.36022  0.24995  1.0000
  N   N11       1.0  0.11489  0.17872  0.30575  1.0000
  C   C135      1.0  0.13358  0.16102  0.30103  1.0000
  C   C136      1.0  0.11760  0.19147  0.31689  1.0000
  C   C137      1.0  0.15544  0.15527  0.30776  1.0000
  C   C138      1.0  0.13935  0.18642  0.32371  1.0000
  C   C139      1.0  0.15827  0.16810  0.31916  1.0000
  C   C140      1.0  0.09230  0.18508  0.29842  1.0000
  H   H133      1.0  0.13180  0.15136  0.29194  1.0000
  H   H134      1.0  0.10303  0.20587  0.32043  1.0000
  H   H135      1.0  0.17043  0.14146  0.30392  1.0000
  H   H136      1.0  0.14186  0.19709  0.33222  1.0000
  H   H137      1.0  0.17549  0.16446  0.32414  1.0000
  H   H138      1.0  0.09317  0.20259  0.29099  1.0000
  H   H139      1.0  0.08973  0.17032  0.29201  1.0000
  H   H140      1.0  0.07554  0.18785  0.30650  1.0000
  H   H141      1.0  0.12333  0.36863  0.24943  1.0000
  S   S62       1.0  0.47532  0.12767  0.40117  1.0000
  H   H142      1.0  0.15845  0.34233  0.29608  1.0000
  H   H143      1.0  0.10265  0.48314  0.39869  1.0000
  H   H144      1.0  0.47019  0.12338  0.44266  1.0000
  H   H145      1.0  0.13322  0.38479  0.46356  1.0000
  C   C141      1.0  0.01105  0.38926  0.40100  1.0000
  H   H146      1.0  0.42434  0.01725  0.39059  1.0000
  H   H147      1.0  0.43041  0.03441  0.36349  1.0000
  C   C142      1.0  0.06787  0.30064  0.40328  1.0000
  H   H148      1.0  0.49516  0.03788  0.45246  1.0000
  C   C143      1.0  0.15087  0.34867  0.28583  1.0000
  C   C144      1.0  0.42935  0.08368  0.46780  1.0000
  H   H149      1.0  0.20360  0.34855  0.26239  1.0000
  C   C145      1.0  0.06935  0.34084  0.38867  1.0000
  C   C146      1.0  0.42043  0.04063  0.34155  1.0000
  H   H150      1.0  0.47287  0.07792  0.44535  1.0000
  H   H151      1.0  0.06020  0.28314  0.40338  1.0000
  C   C147      1.0  0.01505  0.23582  0.30705  1.0000
  H   H152      1.0  0.06872  0.37672  0.37601  1.0000
  C   C148      1.0  0.39254  0.02912  0.36275  1.0000
  H   H153      1.0  0.38846  0.02553  0.37447  1.0000
  C   C149      1.0  0.00558  0.29540  0.32010  1.0000
  C   C150      1.0  0.43935  0.05863  0.46945  1.0000
  H   H154      1.0  0.34682  0.02163  0.33390  1.0000
  C   C151      1.0  0.40138  0.04111  0.33288  1.0000
  H   H155      1.0  0.02800  0.30176  0.38930  1.0000
  C   C152      1.0  0.02254  0.23708  0.27687  1.0000
  N   N12       1.0  0.37590  0.14437  0.37751  1.0000
  C   C153      1.0  0.38715  0.14002  0.39002  1.0000
  C   C154      1.0  0.38933  0.15006  0.36435  1.0000
  C   C155      1.0  0.41258  0.14096  0.38952  1.0000
  C   C156      1.0  0.41489  0.15077  0.36345  1.0000
  C   C157      1.0  0.42655  0.14615  0.37615  1.0000
  C   C158      1.0  0.34910  0.14393  0.37826  1.0000
  H   H156      1.0  0.37658  0.13526  0.40044  1.0000
  H   H157      1.0  0.38043  0.15340  0.35442  1.0000
  H   H158      1.0  0.42153  0.13749  0.39943  1.0000
  H   H159      1.0  0.42561  0.15469  0.35297  1.0000
  H   H160      1.0  0.34434  0.13809  0.36816  1.0000
  H   H161      1.0  0.01522  0.32524  0.42448  1.0000
  C   C159      1.0  0.05569  0.38443  0.46808  1.0000
  C   C160      1.0  0.48935  0.08602  0.44597  1.0000
  H   H162      1.0  0.19981  0.35462  0.28108  1.0000
  H   H163      1.0  0.08527  0.34290  0.39387  1.0000
  H   H164      1.0  0.01201  0.23512  0.31878  1.0000
  S   S63       1.0  0.34268  0.01526  0.29546  1.0000
  H   H165      1.0  0.04302  0.29685  0.30985  1.0000
  C   C161      1.0  0.19317  0.34433  0.27329  1.0000
  C   C162      1.0  0.06011  0.36000  0.37851  1.0000
  C   C163      1.0  0.03767  0.31768  0.38597  1.0000
  N   N13       1.0  0.16626  0.35105  0.27306  1.0000
  C   C164      1.0  0.20318  0.31513  0.23845  1.0000
  H   H166      1.0  0.43834  0.04553  0.33668  1.0000
  H   H167      1.0  0.06293  0.30706  0.41421  1.0000
  H   H168      1.0  0.07395  0.39007  0.46514  1.0000
  C   C165      1.0  0.37407  0.02940  0.35375  1.0000
  H   H169      1.0  0.29139  0.01317  0.29019  1.0000
  H   H170      1.0  0.05257  0.37811  0.44616  1.0000
  N   N14       1.0  0.37876  0.03496  0.33900  1.0000
  H   H171      1.0  0.01003  0.40694  0.39429  1.0000
  H   H172      1.0  0.19762  0.32411  0.27663  1.0000
  H   H173      1.0  0.31628  0.17075  0.27252  1.0000
  C   C166      1.0  0.29803  0.17225  0.26828  1.0000
  C   C167      1.0  0.15517  0.32249  0.23049  1.0000
  C   C168      1.0  0.02378  0.29711  0.30819  1.0000
  H   H174      1.0  0.32363  0.18903  0.24377  1.0000
  H   H175      1.0  0.28962  0.19199  0.26679  1.0000
  C   C169      1.0  0.31919  0.16331  0.22935  1.0000
  C   C170      1.0  0.02040  0.36983  0.46098  1.0000
  H   H176      1.0  0.00357  0.44347  0.41114  1.0000
  C   C171      1.0  0.00927  0.36938  0.47535  1.0000
  H   H177      1.0  0.00308  0.29319  0.26934  1.0000
  C   C172      1.0  0.13324  0.49815  0.40470  1.0000
  H   H178      1.0  0.13652  0.32561  0.22738  1.0000
  Fe  Fe33      1.0  0.10113  0.41151  0.56414  1.0000
  S   S64       1.0  0.10462  0.37589  0.55444  1.0000
  S   S65       1.0  0.06244  0.43068  0.56999  1.0000
  Fe  Fe34      1.0  0.15679  0.40960  0.56264  1.0000
  S   S66       1.0  0.16465  0.37377  0.55284  1.0000
  S   S67       1.0  0.19069  0.42453  0.56661  1.0000
  Fe  Fe35      1.0  0.13481  0.39078  0.53860  1.0000
  S   S68       1.0  0.14010  0.39694  0.51379  1.0000
  Fe  Fe36      1.0  0.13382  0.36249  0.56967  1.0000
  S   S69       1.0  0.13254  0.32639  0.58447  1.0000
  S   S70       1.0  0.12925  0.42756  0.54742  1.0000
  S   S71       1.0  0.12806  0.39718  0.58040  1.0000
  Fe  Fe37      1.0  0.31525  0.12328  0.67229  1.0000
  S   S72       1.0  0.35413  0.12202  0.67800  1.0000
  S   S73       1.0  0.29560  0.16235  0.66668  1.0000
  Fe  Fe38      1.0  0.31990  0.06641  0.67492  1.0000
  S   S74       1.0  0.35837  0.06162  0.68144  1.0000
  S   S75       1.0  0.30366  0.03544  0.66722  1.0000
  Fe  Fe39      1.0  0.34398  0.09218  0.69554  1.0000
  N   N15       1.0  0.46785  0.15657  0.56733  1.0000
  Fe  Fe40      1.0  0.36500  0.09198  0.66337  1.0000
  S   S76       1.0  0.40115  0.08540  0.64857  1.0000
  S   S77       1.0  0.30436  0.09460  0.69061  1.0000
  S   S78       1.0  0.32727  0.09573  0.65614  1.0000
  Fe  Fe41      1.0  0.11934  0.28017  0.68216  1.0000
  S   S79       1.0  0.14225  0.31060  0.68250  1.0000
  S   S80       1.0  0.07774  0.29320  0.68300  1.0000
  Fe  Fe42      1.0  0.16587  0.24136  0.67916  1.0000
  S   S81       1.0  0.19166  0.26912  0.67862  1.0000
  S   S82       1.0  0.18010  0.20049  0.67883  1.0000
  Fe  Fe43      1.0  0.16557  0.28346  0.69730  1.0000
  C   C173      1.0  0.02170  0.37663  0.48584  1.0000
  Fe  Fe44      1.0  0.16601  0.29339  0.66392  1.0000
  S   S83       1.0  0.18021  0.31708  0.64376  1.0000
  S   S84       1.0  0.14055  0.25432  0.69847  1.0000
  S   S85       1.0  0.14219  0.26439  0.66291  1.0000
  Fe  Fe45      1.0  0.48078  0.09585  0.54905  1.0000
  S   S86       1.0  0.44248  0.11542  0.54591  1.0000
  H   H179      1.0  0.22230  0.17010  0.71213  1.0000
  Fe  Fe46      1.0  0.46572  0.04590  0.54977  1.0000
  S   S87       1.0  0.42596  0.06085  0.54656  1.0000
  H   H180      1.0  0.10428  0.33086  0.49637  1.0000
  Fe  Fe47      1.0  0.44239  0.08874  0.52973  1.0000
  S   S88       1.0  0.42837  0.10409  0.50808  1.0000
  Fe  Fe48      1.0  0.42936  0.08605  0.56308  1.0000
  S   S89       1.0  0.39717  0.09671  0.58015  1.0000
  S   S90       1.0  0.48181  0.07164  0.53158  1.0000
  S   S91       1.0  0.46787  0.06873  0.56756  1.0000
  H   H181      1.0  0.22498  0.24768  0.70691  1.0000
  C   C174      1.0  0.43350  0.08638  0.49327  1.0000
  C   C175      1.0  0.11901  0.36569  0.63094  1.0000
  H   H182      1.0  0.17715  0.41800  0.52670  1.0000
  C   C176      1.0  0.36511  0.13666  0.71899  1.0000
  H   H183      1.0  0.41191  0.07436  0.68069  1.0000
  H   H184      1.0  0.44964  0.05279  0.50521  1.0000
  C   C177      1.0  0.07854  0.30487  0.64178  1.0000
  C   C178      1.0  0.01320  0.27884  0.67151  1.0000
  H   H185      1.0  0.27008  0.24025  0.69873  1.0000
  H   H186      1.0  0.17740  0.33759  0.70995  1.0000
  C   C179      1.0  0.40007  0.08875  0.62954  1.0000
  C   C180      1.0  0.37878  0.10059  0.62339  1.0000
  C   C181      1.0  0.37837  0.10312  0.60823  1.0000
  C   C182      1.0  0.39910  0.09364  0.59907  1.0000
  C   C183      1.0  0.42041  0.08168  0.60519  1.0000
  C   C184      1.0  0.42092  0.07940  0.62037  1.0000
  H   H187      1.0  0.36271  0.10812  0.63028  1.0000
  H   H188      1.0  0.36182  0.11239  0.60359  1.0000
  H   H189      1.0  0.43643  0.07415  0.59824  1.0000
  H   H190      1.0  0.43747  0.07019  0.62505  1.0000
  C   C185      1.0  0.21895  0.48860  0.55731  1.0000
  C   C186      1.0  0.26349  0.17224  0.67056  1.0000
  C   C187      1.0  0.25483  0.19772  0.66870  1.0000
  C   C188      1.0  0.22941  0.20658  0.67153  1.0000
  C   C189      1.0  0.21234  0.19001  0.67609  1.0000
  C   C190      1.0  0.22097  0.16449  0.67796  1.0000
  C   C191      1.0  0.24651  0.15560  0.67530  1.0000
  H   H191      1.0  0.26788  0.21068  0.66502  1.0000
  H   H192      1.0  0.22306  0.22619  0.66984  1.0000
  H   H193      1.0  0.20785  0.15151  0.68140  1.0000
  H   H194      1.0  0.25300  0.13591  0.67673  1.0000
  C   C192      1.0  0.19265  0.45626  0.56267  1.0000
  C   C193      1.0  0.17165  0.47408  0.56095  1.0000
  H   H195      1.0  0.35900  0.14096  0.70827  1.0000
  H   H196      1.0  0.38481  0.03275  0.64790  1.0000
  H   H197      1.0  0.45470  0.02827  0.48426  1.0000
  H   H198      1.0  0.20523  0.42555  0.51585  1.0000
  H   H199      1.0  0.15338  0.46847  0.56235  1.0000
  H   H200      1.0  0.42585  0.13763  0.71027  1.0000
  H   H201      1.0  0.41717  0.13932  0.58870  1.0000
  H   H202      1.0  0.05140  0.37723  0.56046  1.0000
  C   C194      1.0  0.13099  0.38086  0.50063  1.0000
  C   C195      1.0  0.11939  0.35964  0.50440  1.0000
  N   N16       1.0  0.02000  0.35830  0.56665  1.0000
  H   H203      1.0  0.11576  0.35246  0.51574  1.0000
  C   C196      1.0  0.14717  0.32302  0.60051  1.0000
  C   C197      1.0  0.14245  0.30378  0.61156  1.0000
  C   C198      1.0  0.15243  0.30173  0.62486  1.0000
  C   C199      1.0  0.16774  0.31858  0.62708  1.0000
  C   C200      1.0  0.17310  0.33732  0.61585  1.0000
  C   C201      1.0  0.16266  0.33972  0.60267  1.0000
  H   H204      1.0  0.13056  0.29076  0.60992  1.0000
  H   H205      1.0  0.14822  0.28716  0.63334  1.0000
  H   H206      1.0  0.18505  0.35035  0.61742  1.0000
  H   H207      1.0  0.16664  0.35449  0.59418  1.0000
  H   H208      1.0  0.13016  0.38060  0.62799  1.0000
  C   C202      1.0  0.33683  0.04878  0.62843  1.0000
  C   C203      1.0  0.41835  0.11180  0.68038  1.0000
  H   H209      1.0  0.41816  0.11672  0.47847  1.0000
  C   C204      1.0  0.02138  0.41668  0.53362  1.0000
  C   C205      1.0  0.03162  0.29062  0.67570  1.0000
  C   C206      1.0  0.05598  0.27830  0.67640  1.0000
  C   C207      1.0  0.06207  0.25439  0.67234  1.0000
  H   H210      1.0  0.02677  0.30919  0.67874  1.0000
  H   H211      1.0  0.08078  0.24474  0.67278  1.0000
  C   C208      1.0  0.04679  0.41821  0.53114  1.0000
  C   C209      1.0  0.05910  0.42354  0.54221  1.0000
  C   C210      1.0  0.04599  0.42779  0.55573  1.0000
  C   C211      1.0  0.18530  0.33332  0.72017  1.0000
  H   H212      1.0  0.04833  0.22394  0.66524  1.0000
  H   H213      1.0  0.05723  0.41457  0.52079  1.0000
  H   H214      1.0  0.07889  0.42403  0.54029  1.0000
  C   C212      1.0  0.37920  0.03598  0.62016  1.0000
  H   H215      1.0  0.47097  0.15969  0.54430  1.0000
  C   C213      1.0  0.35079  0.05394  0.60269  1.0000
  C   C214      1.0  0.09258  0.33893  0.62440  1.0000
  H   H216      1.0  0.39741  0.05068  0.70410  1.0000
  H   H217      1.0  0.04784  0.41095  0.49551  1.0000
  C   C215      1.0  0.36548  0.03089  0.64636  1.0000
  S   S92       1.0  0.35547  0.08875  0.71842  1.0000
  H   H218      1.0  0.05998  0.31104  0.64755  1.0000
  C   C216      1.0  0.44345  0.15431  0.57180  1.0000
  H   H219      1.0  0.43273  0.01496  0.56467  1.0000
  H   H220      1.0  0.10665  0.36869  0.60971  1.0000
  C   C217      1.0  0.11297  0.34741  0.49341  1.0000
  H   H221      1.0  0.31303  0.06473  0.61190  1.0000
  C   C218      1.0  0.03158  0.48578  0.53736  1.0000
  C   C219      1.0  0.00651  0.34154  0.56323  1.0000
  H   H222      1.0  0.12924  0.35713  0.65276  1.0000
  C   C220      1.0  0.18951  0.30874  0.72653  1.0000
  C   C221      1.0  0.15847  0.46181  0.51503  1.0000
  C   C222      1.0  0.33168  0.05658  0.61410  1.0000
  C   C223      1.0  0.19118  0.43090  0.52500  1.0000
  C   C224      1.0  0.13570  0.38985  0.48584  1.0000
  C   C225      1.0  0.25835  0.18078  0.70510  1.0000
  C   C226      1.0  0.27185  0.20053  0.70116  1.0000
  C   C227      1.0  0.04365  0.24265  0.66808  1.0000
  H   H223      1.0  0.02354  0.47230  0.53224  1.0000
  H   H224      1.0  0.42421  0.14835  0.68357  1.0000
  H   H225      1.0  0.20023  0.42829  0.53519  1.0000
  N   N17       1.0  0.21440  0.23110  0.63601  1.0000
  C   C228      1.0  0.19703  0.21559  0.64057  1.0000
  C   C229      1.0  0.23887  0.22167  0.63278  1.0000
  C   C230      1.0  0.20407  0.18991  0.64233  1.0000
  C   C231      1.0  0.24658  0.19608  0.63452  1.0000
  C   C232      1.0  0.22904  0.18015  0.63939  1.0000
  C   C233      1.0  0.20656  0.25794  0.63405  1.0000
  H   H226      1.0  0.17765  0.22301  0.64325  1.0000
  H   H227      1.0  0.25263  0.23395  0.62908  1.0000
  H   H228      1.0  0.19036  0.17776  0.64656  1.0000
  H   H229      1.0  0.26613  0.18863  0.63253  1.0000
  H   H230      1.0  0.23489  0.16032  0.64126  1.0000
  H   H231      1.0  0.22173  0.26836  0.63534  1.0000
  H   H232      1.0  0.20045  0.26389  0.62307  1.0000
  H   H233      1.0  0.19094  0.26349  0.64236  1.0000
  H   H234      1.0  0.32459  0.00581  0.69252  1.0000
  N   N18       1.0  0.09254  0.32584  0.63797  1.0000
  C   C234      1.0  0.42325  0.12374  0.70362  1.0000
  C   C235      1.0  0.03458  0.33589  0.54133  1.0000
  C   C236      1.0  0.02926  0.49102  0.56326  1.0000
  C   C237      1.0  0.25979  0.22473  0.70183  1.0000
  H   H235      1.0  0.26750  0.16193  0.70431  1.0000
  C   C238      1.0  0.10489  0.33267  0.64822  1.0000
  H   H236      1.0  0.41742  0.11621  0.66875  1.0000
  H   H237      1.0  0.02541  0.49695  0.58586  1.0000
  C   C239      1.0  0.45481  0.13016  0.59411  1.0000
  C   C240      1.0  0.01645  0.22276  0.70214  1.0000
  C   C241      1.0  0.04827  0.35300  0.54492  1.0000
  C   C242      1.0  0.01367  0.32995  0.55058  1.0000
  H   H238      1.0  0.32185  0.05072  0.63726  1.0000
  H   H239      1.0  0.29153  0.19702  0.69731  1.0000
  H   H240      1.0  0.49415  0.12329  0.59600  1.0000
  H   H241      1.0  0.08304  0.33344  0.61618  1.0000
  N   N19       1.0  0.17966  0.45665  0.52179  1.0000
  S   S93       1.0  0.48289  0.00609  0.55105  1.0000
  C   C243      1.0  0.01141  0.37098  0.57962  1.0000
  H   H242      1.0  0.18630  0.23317  0.71162  1.0000
  C   C244      1.0  0.37393  0.15485  0.72535  1.0000
  C   C245      1.0  0.36455  0.11289  0.72643  1.0000
  C   C246      1.0  0.41210  0.05762  0.70887  1.0000
  H   H243      1.0  0.10459  0.32250  0.65904  1.0000
  C   C247      1.0  0.44683  0.04762  0.48295  1.0000
  H   H244      1.0  0.04013  0.32728  0.53139  1.0000
  C   C248      1.0  0.42221  0.12976  0.68868  1.0000
  C   C249      1.0  0.14763  0.48634  0.51157  1.0000
  H   H245      1.0  0.20785  0.47139  0.53009  1.0000
  H   H246      1.0  0.42978  0.04479  0.70750  1.0000
  S   S94       1.0  0.18180  0.28381  0.71861  1.0000
  H   H247      1.0  0.38966  0.04155  0.59688  1.0000
  C   C250      1.0  0.05691  0.39215  0.49324  1.0000
  H   H248      1.0  0.37444  0.17312  0.71946  1.0000
  H   H249      1.0  0.14978  0.44691  0.51235  1.0000
  C   C251      1.0  0.04072  0.36398  0.55774  1.0000
  H   H250      1.0  0.00285  0.31665  0.54793  1.0000
  H   H251      1.0  0.19112  0.20983  0.72682  1.0000
  C   C252      1.0  0.23425  0.22881  0.70636  1.0000
  C   C253      1.0  0.02028  0.42755  0.55805  1.0000
  N   N20       1.0  0.22106  0.20931  0.70990  1.0000
  C   C254      1.0  0.37463  0.04328  0.60570  1.0000
  N   N21       1.0  0.01728  0.49028  0.55142  1.0000
  H   H252      1.0  0.18793  0.37142  0.72208  1.0000
  H   H253      1.0  0.49452  0.17221  0.55120  1.0000
  H   H254      1.0  0.36216  0.01139  0.64947  1.0000
  C   C255      1.0  0.21619  0.46364  0.56100  1.0000
  C   C256      1.0  0.48591  0.14573  0.57592  1.0000
  N   N22       1.0  0.04470  0.38381  0.48216  1.0000
  H   H255      1.0  0.23244  0.44992  0.56237  1.0000
  C   C257      1.0  0.01574  0.49617  0.57657  1.0000
  H   H256      1.0  0.34729  0.06042  0.59153  1.0000
  C   C258      1.0  0.42006  0.09985  0.71009  1.0000
  H   H257      1.0  0.06452  0.35789  0.53780  1.0000
  C   C259      1.0  0.19095  0.47545  0.52484  1.0000
  N   N23       1.0  0.36046  0.03908  0.63131  1.0000
  H   H258      1.0  0.41015  0.02077  0.50350  1.0000
  C   C260      1.0  0.44399  0.06144  0.49482  1.0000
  C   C261      1.0  0.19439  0.21370  0.71479  1.0000
  C   C262      1.0  0.11852  0.35250  0.64482  1.0000
  C   C263      1.0  0.00979  0.26616  0.70714  1.0000
  C   C264      1.0  0.39962  0.00837  0.48471  1.0000
  H   H259      1.0  0.42918  0.16230  0.56483  1.0000
  H   H260      1.0  0.08852  0.28998  0.64905  1.0000
  H   H261      1.0  0.01559  0.20913  0.71205  1.0000
  C   C265      1.0  0.23280  0.18553  0.70945  1.0000
  H   H262      1.0  0.39793  0.02833  0.62244  1.0000
  H   H263      1.0  0.07604  0.29656  0.63198  1.0000
  C   C266      1.0  0.10582  0.35901  0.62068  1.0000
  C   C267      1.0  0.30893  0.00306  0.67299  1.0000
  H   H264      1.0  0.14468  0.40621  0.48280  1.0000
  C   C268      1.0  0.01904  0.25464  0.66789  1.0000
  C   C269      1.0  0.43654  0.14122  0.58527  1.0000
  H   H265      1.0  0.04940  0.48772  0.56248  1.0000
  C   C270      1.0  0.41513  0.08812  0.68722  1.0000
  H   H266      1.0  0.01279  0.37652  0.49695  1.0000
  C   C271      1.0  0.11797  0.35633  0.47860  1.0000
  H   H267      1.0  0.44969  0.11978  0.60452  1.0000
  H   H268      1.0  0.35304  0.04244  0.65396  1.0000
  N   N24       1.0  0.41558  0.08255  0.70194  1.0000
  H   H269      1.0  0.23731  0.49402  0.55578  1.0000
  H   H270      1.0  0.05552  0.37935  0.50351  1.0000
  H   H271      1.0  0.03604  0.22591  0.69890  1.0000
  H   H272      1.0  0.02975  0.26570  0.70654  1.0000
  H   H273      1.0  0.18424  0.20180  0.70971  1.0000
  H   H274      1.0  0.40274  0.02520  0.47764  1.0000
  C   C272      1.0  0.47969  0.13226  0.58938  1.0000
  H   H275      1.0  0.46341  0.18884  0.55198  1.0000
  C   C273      1.0  0.42636  0.09746  0.47970  1.0000
  C   C274      1.0  0.47447  0.17010  0.55303  1.0000
  H   H276      1.0  0.13072  0.49033  0.50632  1.0000
  H   H277      1.0  0.01069  0.21480  0.69300  1.0000
  H   H278      1.0  0.02592  0.38089  0.58248  1.0000
  H   H279      1.0  0.07699  0.39284  0.48974  1.0000
  H   H280      1.0  0.40549  0.05768  0.72068  1.0000
  H   H281      1.0  0.01010  0.43101  0.56850  1.0000
  H   H282      1.0  0.05125  0.47801  0.53859  1.0000
  S   S95       1.0  0.00728  0.40777  0.51989  1.0000
  H   H283      1.0  0.00650  0.35745  0.58915  1.0000
  C   C275      1.0  0.00796  0.42171  0.54699  1.0000
  C   C276      1.0  0.40369  0.00575  0.49936  1.0000
  H   H284      1.0  0.42034  0.09552  0.72177  1.0000
  H   H285      1.0  0.40406  0.99981  0.52760  1.0000
  C   C277      1.0  0.19132  0.35246  0.72707  1.0000
  Fe  Fe49      1.0  0.45315  0.17787  0.78419  1.0000
  S   S96       1.0  0.43265  0.14650  0.78205  1.0000
  H   H286      1.0  0.48835  0.12201  0.87509  1.0000
  Fe  Fe50      1.0  0.40396  0.21302  0.78901  1.0000
  S   S97       1.0  0.38032  0.18365  0.78806  1.0000
  S   S98       1.0  0.38936  0.25384  0.79018  1.0000
  Fe  Fe51      1.0  0.40779  0.15903  0.80165  1.0000
  S   S99       1.0  0.40090  0.12752  0.81935  1.0000
  Fe  Fe52      1.0  0.40720  0.17357  0.76862  1.0000
  S   S100      1.0  0.39390  0.17314  0.74639  1.0000
  S   S101      1.0  0.42920  0.18926  0.80431  1.0000
  S   S102      1.0  0.42993  0.20412  0.76901  1.0000
  Fe  Fe53      1.0  0.22138  0.36790  0.77137  1.0000
  S   S103      1.0  0.26120  0.36829  0.77504  1.0000
  S   S104      1.0  0.20698  0.37222  0.74920  1.0000
  Fe  Fe54      1.0  0.20349  0.36257  0.80415  1.0000
  S   S105      1.0  0.24166  0.36173  0.81020  1.0000
  S   S106      1.0  0.16901  0.35707  0.81989  1.0000
  Fe  Fe55      1.0  0.24459  0.39359  0.79222  1.0000
  S   S107      1.0  0.25658  0.42715  0.79988  1.0000
  Fe  Fe56      1.0  0.25488  0.33681  0.79271  1.0000
  S   S108      1.0  0.27437  0.29718  0.79662  1.0000
  S   S109      1.0  0.20535  0.39544  0.78720  1.0000
  S   S110      1.0  0.21604  0.33539  0.78795  1.0000
  Fe  Fe57      1.0  0.43327  0.03754  0.91185  1.0000
  S   S111      1.0  0.41462  0.07123  0.92227  1.0000
  C   C278      1.0  0.45189  0.08026  0.96569  1.0000
  Fe  Fe58      1.0  0.47648  0.06303  0.89707  1.0000
  S   S112      1.0  0.46160  0.09816  0.90659  1.0000
  N   N25       1.0  0.16468  0.45683  0.94908  1.0000
  Fe  Fe59      1.0  0.45292  0.07389  0.92752  1.0000
  S   S113      1.0  0.46874  0.07827  0.94820  1.0000
  Fe  Fe60      1.0  0.42538  0.09185  0.90021  1.0000
  S   S114      1.0  0.40191  0.12280  0.88744  1.0000
  S   S115      1.0  0.47086  0.03890  0.91826  1.0000
  S   S116      1.0  0.44087  0.05782  0.88963  1.0000
  Fe  Fe61      1.0  0.08452  0.35554  0.91799  1.0000
  S   S117      1.0  0.12415  0.33803  0.91958  1.0000
  S   S118      1.0  0.05266  0.33373  0.91972  1.0000
  Fe  Fe62      1.0  0.09558  0.40630  0.92040  1.0000
  S   S119      1.0  0.13600  0.39340  0.92248  1.0000
  S   S120      1.0  0.07744  0.44533  0.92203  1.0000
  Fe  Fe63      1.0  0.13401  0.37119  0.90416  1.0000
  S   S121      1.0  0.16708  0.37083  0.88653  1.0000
  Fe  Fe64      1.0  0.12283  0.36171  0.93758  1.0000
  S   S122      1.0  0.13733  0.34456  0.95888  1.0000
  S   S123      1.0  0.09428  0.38675  0.90108  1.0000
  S   S124      1.0  0.08259  0.37661  0.93705  1.0000
  C   C279      1.0  0.10008  0.46433  0.91553  1.0000
  C   C280      1.0  0.12135  0.45524  0.90673  1.0000
  C   C281      1.0  0.14122  0.46888  0.90328  1.0000
  C   C282      1.0  0.36957  0.06267  0.89923  1.0000
  H   H287      1.0  0.14690  0.31496  0.75544  1.0000
  H   H288      1.0  0.37227  0.08936  0.74622  1.0000
  H   H289      1.0  0.12271  0.43748  0.90279  1.0000
  N   N26       1.0  0.20695  0.49500  0.80977  1.0000
  H   H290      1.0  0.15800  0.46141  0.89688  1.0000
  C   C283      1.0  0.14705  0.35296  0.75870  1.0000
  C   C284      1.0  0.26243  0.48810  0.76970  1.0000
  H   H291      1.0  0.17198  0.45352  0.92633  1.0000
  H   H292      1.0  0.44782  0.14825  0.84799  1.0000
  C   C285      1.0  0.26065  0.45719  0.79102  1.0000
  C   C286      1.0  0.25930  0.46386  0.77610  1.0000
  C   C287      1.0  0.21108  0.46122  0.82894  1.0000
  C   C288      1.0  0.38833  0.03495  0.88095  1.0000
  C   C289      1.0  0.21239  0.47780  0.83876  1.0000
  H   H293      1.0  0.08144  0.49494  0.92678  1.0000
  H   H294      1.0  0.25625  0.45026  0.76946  1.0000
  H   H295      1.0  0.34779  0.30604  0.76246  1.0000
  H   H296      1.0  0.30463  0.22317  0.76519  1.0000
  H   H297      1.0  0.15125  0.29908  0.78140  1.0000
  C   C290      1.0  0.16748  0.36333  0.83812  1.0000
  C   C291      1.0  0.18690  0.37241  0.84299  1.0000
  C   C292      1.0  0.18587  0.37578  0.85774  1.0000
  C   C293      1.0  0.16550  0.37008  0.86778  1.0000
  C   C294      1.0  0.14575  0.36164  0.86285  1.0000
  C   C295      1.0  0.14678  0.35825  0.84807  1.0000
  H   H298      1.0  0.20286  0.37654  0.83545  1.0000
  H   H299      1.0  0.20123  0.38228  0.86148  1.0000
  H   H300      1.0  0.13003  0.35708  0.87049  1.0000
  H   H301      1.0  0.13163  0.35130  0.84440  1.0000
  C   C296      1.0  0.40489  0.12873  0.83766  1.0000
  C   C297      1.0  0.39296  0.14841  0.84518  1.0000
  C   C298      1.0  0.39275  0.14671  0.86041  1.0000
  C   C299      1.0  0.40480  0.12556  0.86816  1.0000
  C   C300      1.0  0.41781  0.10652  0.86047  1.0000
  C   C301      1.0  0.41759  0.10796  0.84534  1.0000
  H   H302      1.0  0.38281  0.16439  0.83939  1.0000
  H   H303      1.0  0.38265  0.16160  0.86622  1.0000
  H   H304      1.0  0.42713  0.09012  0.86615  1.0000
  H   H305      1.0  0.42670  0.09258  0.83962  1.0000
  C   C302      1.0  0.35738  0.26554  0.79331  1.0000
  C   C303      1.0  0.33916  0.24992  0.79561  1.0000
  C   C304      1.0  0.31384  0.25998  0.79706  1.0000
  C   C305      1.0  0.30646  0.28572  0.79605  1.0000
  C   C306      1.0  0.32465  0.30136  0.79412  1.0000
  C   C307      1.0  0.35002  0.29126  0.79280  1.0000
  H   H306      1.0  0.34457  0.23011  0.79614  1.0000
  H   H307      1.0  0.29989  0.24773  0.79871  1.0000
  H   H308      1.0  0.31921  0.32120  0.79347  1.0000
  H   H309      1.0  0.36403  0.30345  0.79116  1.0000
  C   C308      1.0  0.47338  0.14278  0.82883  1.0000
  C   C309      1.0  0.20587  0.32270  0.74670  1.0000
  C   C310      1.0  0.20153  0.34729  0.74039  1.0000
  C   C311      1.0  0.20806  0.47023  0.81444  1.0000
  C   C312      1.0  0.17031  0.49268  0.95963  1.0000
  H   H310      1.0  0.21365  0.31842  0.75695  1.0000
  H   H311      1.0  0.21264  0.44148  0.83246  1.0000
  C   C313      1.0  0.26485  0.47511  0.79944  1.0000
  C   C314      1.0  0.37266  0.10767  0.74035  1.0000
  C   C315      1.0  0.38224  0.14959  0.73922  1.0000
  H   H312      1.0  0.01537  0.41554  0.89853  1.0000
  H   H313      1.0  0.26614  0.47012  0.81096  1.0000
  H   H314      1.0  0.38775  0.12156  0.75740  1.0000
  C   C316      1.0  0.01444  0.36973  0.88684  1.0000
  H   H315      1.0  0.46779  0.10182  0.87141  1.0000
  C   C317      1.0  0.16137  0.44535  0.93635  1.0000
  C   C318      1.0  0.01804  0.44874  0.90776  1.0000
  C   C319      1.0  0.03352  0.36128  0.89575  1.0000
  C   C320      1.0  0.02903  0.34556  0.90862  1.0000
  H   H316      1.0  0.15457  0.39867  0.75144  1.0000
  H   H317      1.0  0.40481  0.01215  0.86413  1.0000
  H   H318      1.0  0.41589  0.09140  0.95823  1.0000
  H   H319      1.0  0.05187  0.36631  0.89244  1.0000
  C   C321      1.0  0.16337  0.44341  0.96256  1.0000
  H   H320      1.0  0.16068  0.42412  0.96380  1.0000
  C   C322      1.0  0.37628  0.07161  0.85853  1.0000
  H   H321      1.0  0.20736  0.45714  0.80686  1.0000
  C   C323      1.0  0.00525  0.43113  0.90379  1.0000
  H   H322      1.0  0.01812  0.38144  0.87674  1.0000
  N   N27       1.0  0.14934  0.36891  0.76829  1.0000
  H   H323      1.0  0.26185  0.49292  0.75811  1.0000
  C   C324      1.0  0.12775  0.38712  0.97257  1.0000
  H   H324      1.0  0.14557  0.35963  0.74732  1.0000
  N   N28       1.0  0.33673  0.27188  0.75949  1.0000
  C   C325      1.0  0.31682  0.25914  0.76209  1.0000
  C   C326      1.0  0.36039  0.25953  0.75737  1.0000
  C   C327      1.0  0.32037  0.23329  0.76279  1.0000
  C   C328      1.0  0.36456  0.23375  0.75782  1.0000
  C   C329      1.0  0.34442  0.22058  0.76055  1.0000
  C   C330      1.0  0.33267  0.29901  0.75814  1.0000
  H   H325      1.0  0.29809  0.26890  0.76403  1.0000
  H   H326      1.0  0.37626  0.26950  0.75563  1.0000
  H   H327      1.0  0.10327  0.30736  0.97309  1.0000
  H   H328      1.0  0.38331  0.22398  0.75619  1.0000
  H   H329      1.0  0.03814  0.44660  0.90545  1.0000
  H   H330      1.0  0.37436  0.08096  0.90075  1.0000
  C   C331      1.0  0.16776  0.48125  0.94752  1.0000
  H   H331      1.0  0.37955  0.04847  0.90689  1.0000
  H   H332      1.0  0.39295  0.02039  0.88963  1.0000
  H   H333      1.0  0.45687  0.13431  0.87205  1.0000
  S   S125      1.0  0.41469  0.00329  0.91597  1.0000
  H   H334      1.0  0.49639  0.21538  0.79087  1.0000
  H   H335      1.0  0.37178  0.08627  0.84983  1.0000
  H   H336      1.0  0.39411  0.04529  0.84396  1.0000
  C   C332      1.0  0.16917  0.47907  0.97341  1.0000
  C   C333      1.0  0.15130  0.36043  0.78263  1.0000
  H   H337      1.0  0.12243  0.39683  0.96232  1.0000
  C   C334      1.0  0.15185  0.33523  0.78758  1.0000
  N   N29       1.0  0.22091  0.31098  0.84441  1.0000
  C   C335      1.0  0.23945  0.32073  0.84908  1.0000
  C   C336      1.0  0.19942  0.30814  0.85337  1.0000
  C   C337      1.0  0.23692  0.32742  0.86320  1.0000
  C   C338      1.0  0.19637  0.31443  0.86758  1.0000
  C   C339      1.0  0.21525  0.32415  0.87250  1.0000
  C   C340      1.0  0.22349  0.30430  0.82955  1.0000
  H   H338      1.0  0.25623  0.32362  0.84185  1.0000
  H   H339      1.0  0.18426  0.30151  0.84943  1.0000
  H   H340      1.0  0.25145  0.33550  0.86684  1.0000
  H   H341      1.0  0.17905  0.31287  0.87457  1.0000
  H   H342      1.0  0.21259  0.33004  0.88332  1.0000
  H   H343      1.0  0.24288  0.30401  0.82416  1.0000
  H   H344      1.0  0.21850  0.28554  0.82962  1.0000
  H   H345      1.0  0.21112  0.31789  0.82289  1.0000
  H   H346      1.0  0.34930  0.06270  0.90221  1.0000
  H   H347      1.0  0.34759  0.20052  0.76104  1.0000
  C   C341      1.0  0.37040  0.07595  0.87310  1.0000
  C   C342      1.0  0.46598  0.13937  0.84381  1.0000
  C   C343      1.0  0.14772  0.32762  0.76325  1.0000
  H   H348      1.0  0.16812  0.42513  0.93763  1.0000
  H   H349      1.0  0.15388  0.32860  0.79892  1.0000
  H   H350      1.0  0.12980  0.40542  0.76591  1.0000
  H   H351      1.0  0.36137  0.09417  0.87557  1.0000
  C   C344      1.0  0.01950  0.48614  0.91882  1.0000
  H   H352      1.0  0.21467  0.47107  0.85005  1.0000
  C   C345      1.0  0.14876  0.39540  0.76335  1.0000
  H   H353      1.0  0.14136  0.44823  0.93475  1.0000
  C   C346      1.0  0.42615  0.08745  0.96760  1.0000
  C   C347      1.0  0.39496  0.03012  0.86651  1.0000
  C   C348      1.0  0.38890  0.04863  0.85524  1.0000
  C   C349      1.0  0.13593  0.36164  0.97373  1.0000
  H   H354      1.0  0.31496  0.30608  0.76452  1.0000
  N   N30       1.0  0.37654  0.05776  0.88407  1.0000
  H   H355      1.0  0.15283  0.37308  0.79031  1.0000
  C   C350      1.0  0.15030  0.31873  0.77778  1.0000
  C   C351      1.0  0.38147  0.12589  0.74672  1.0000
  C   C352      1.0  0.08497  0.31939  0.97289  1.0000
  S   S126      1.0  0.49519  0.16588  0.78263  1.0000
  H   H356      1.0  0.20324  0.28464  0.74481  1.0000
  H   H357      1.0  0.16226  0.40319  0.76864  1.0000
  N   N31       1.0  0.48129  0.12486  0.85301  1.0000
  H   H358      1.0  0.45111  0.00144  0.89028  1.0000
  H   H359      1.0  0.33204  0.30667  0.74654  1.0000
  C   C353      1.0  0.13975  0.49164  0.90857  1.0000
  H   H360      1.0  0.08489  0.32912  0.96163  1.0000
  H   H361      1.0  0.46109  0.15398  0.82154  1.0000
  C   C354      1.0  0.19988  0.30357  0.73980  1.0000
  C   C355      1.0  0.47311  0.12065  0.86864  1.0000
  N   N32       1.0  0.00547  0.46839  0.91446  1.0000
  H   H362      1.0  0.02995  0.47738  0.92805  1.0000
  H   H363      1.0  0.21049  0.48967  0.78729  1.0000
  H   H364      1.0  0.06961  0.36823  0.96911  1.0000
  C   C356      1.0  0.09799  0.48776  0.92010  1.0000
  H   H365      1.0  0.16835  0.49201  0.93686  1.0000
  C   C357      1.0  0.49664  0.13149  0.82326  1.0000
  H   H366      1.0  0.48492  0.07003  0.97657  1.0000
  C   C358      1.0  0.00534  0.33869  0.91266  1.0000
  H   H367      1.0  0.03301  0.49239  0.90959  1.0000
  C   C359      1.0  0.16554  0.45429  0.97493  1.0000
  H   H368      1.0  0.06979  0.30781  0.97508  1.0000
  Fe  Fe65      1.0  0.44193  0.76247  0.16868  1.0000
  S   S127      1.0  0.41240  0.79572  0.16501  1.0000
  Fe  Fe66      1.0  0.40608  0.72644  0.16470  1.0000
  S   S128      1.0  0.37518  0.75734  0.16108  1.0000
  S   S129      1.0  0.39893  0.68711  0.16337  1.0000
  Fe  Fe67      1.0  0.40387  0.77702  0.14669  1.0000
  S   S130      1.0  0.39018  0.79465  0.12519  1.0000
  Fe  Fe68      1.0  0.38680  0.77280  0.17970  1.0000
  H   H369      1.0  0.16766  0.68847  0.02428  1.0000
  S   S131      1.0  0.43484  0.74526  0.14924  1.0000
  S   S132      1.0  0.41626  0.74048  0.18435  1.0000
  Fe  Fe69      1.0  0.26373  0.57031  0.17318  1.0000
  S   S133      1.0  0.22243  0.57909  0.17498  1.0000
  S   S134      1.0  0.28078  0.52985  0.17715  1.0000
  Fe  Fe70      1.0  0.27098  0.62486  0.16721  1.0000
  S   S135      1.0  0.22957  0.63696  0.16800  1.0000
  S   S136      1.0  0.28990  0.65958  0.16495  1.0000
  Fe  Fe71      1.0  0.22648  0.60941  0.18779  1.0000
  S   S137      1.0  0.19672  0.61945  0.20609  1.0000
  Fe  Fe72      1.0  0.22871  0.60595  0.15497  1.0000
  S   S138      1.0  0.19897  0.60598  0.14028  1.0000
  S   S139      1.0  0.26760  0.59858  0.18793  1.0000
  S   S140      1.0  0.27035  0.59567  0.15229  1.0000
  Fe  Fe73      1.0  0.16032  0.55263  0.05254  1.0000
  S   S141      1.0  0.18200  0.58226  0.04144  1.0000
  C   C360      1.0  0.26599  0.50559  0.17306  1.0000
  Fe  Fe74      1.0  0.11906  0.58865  0.06562  1.0000
  S   S142      1.0  0.13732  0.62174  0.05584  1.0000
  S   S143      1.0  0.08179  0.58983  0.07892  1.0000
  Fe  Fe75      1.0  0.14516  0.60229  0.03566  1.0000
  S   S144      1.0  0.13716  0.62192  0.01356  1.0000
  Fe  Fe76      1.0  0.17241  0.59847  0.06270  1.0000
  S   S145      1.0  0.20394  0.61149  0.07157  1.0000
  S   S146      1.0  0.12423  0.57108  0.04502  1.0000
  S   S147      1.0  0.15341  0.56693  0.07422  1.0000
  Fe  Fe77      1.0  0.40856  0.89152  0.03545  1.0000
  S   S148      1.0  0.41048  0.85003  0.03877  1.0000
  S   S149      1.0  0.37519  0.91686  0.04380  1.0000
  Fe  Fe78      1.0  0.46271  0.89009  0.02427  1.0000
  S   S150      1.0  0.46933  0.84889  0.02684  1.0000
  Fe  Fe79      1.0  0.43382  0.85213  0.01683  1.0000
  S   S151      1.0  0.43702  0.82710  0.99916  1.0000
  Fe  Fe80      1.0  0.44574  0.85065  0.04835  1.0000
  S   S152      1.0  0.46046  0.82993  0.06889  1.0000
  S   S153      1.0  0.42874  0.89367  0.01282  1.0000
  S   S154      1.0  0.44207  0.89198  0.04644  1.0000
  C   C361      1.0  0.20091  0.60909  0.12110  1.0000
  C   C362      1.0  0.22309  0.61199  0.11214  1.0000
  C   C363      1.0  0.22379  0.61306  0.09692  1.0000
  C   C364      1.0  0.20243  0.61100  0.09062  1.0000
  C   C365      1.0  0.18029  0.60827  0.09959  1.0000
  C   C366      1.0  0.17954  0.60743  0.11475  1.0000
  H   H370      1.0  0.23961  0.61340  0.11693  1.0000
  H   H371      1.0  0.24095  0.61534  0.09001  1.0000
  H   H372      1.0  0.16369  0.60687  0.09487  1.0000
  H   H373      1.0  0.16230  0.60528  0.12161  1.0000
  H   H374      1.0  0.13067  0.63275  0.98318  1.0000
  C   C367      1.0  0.17680  0.57202  0.98806  1.0000
  C   C368      1.0  0.10074  0.57608  0.99211  1.0000
  C   C369      1.0  0.46914  0.94520  0.05749  1.0000
  H   H375      1.0  0.24274  0.61917  0.21868  1.0000
  H   H376      1.0  0.23784  0.56128  0.14070  1.0000
  H   H377      1.0  0.35584  0.88050  0.08362  1.0000
  C   C370      1.0  0.41039  0.80240  0.10939  1.0000
  C   C371      1.0  0.43579  0.80203  0.10990  1.0000
  C   C372      1.0  0.45096  0.81016  0.09733  1.0000
  C   C373      1.0  0.44089  0.81878  0.08419  1.0000
  C   C374      1.0  0.41554  0.81884  0.08363  1.0000
  C   C375      1.0  0.40038  0.81063  0.09619  1.0000
  H   H378      1.0  0.44369  0.79579  0.12001  1.0000
  H   H379      1.0  0.47058  0.80997  0.09782  1.0000
  H   H380      1.0  0.40763  0.82522  0.07354  1.0000
  H   H381      1.0  0.38074  0.81096  0.09571  1.0000
  C   C376      1.0  0.19907  0.54649  0.13272  1.0000
  C   C377      1.0  0.07573  0.51792  0.05088  1.0000
  C   C378      1.0  0.36850  0.67867  0.16569  1.0000
  C   C379      1.0  0.34732  0.69601  0.16828  1.0000
  C   C380      1.0  0.32345  0.68940  0.16868  1.0000
  C   C381      1.0  0.32033  0.66534  0.16661  1.0000
  C   C382      1.0  0.34145  0.64764  0.16459  1.0000
  C   C383      1.0  0.36540  0.65434  0.16408  1.0000
  H   H382      1.0  0.34926  0.71468  0.16972  1.0000
  H   H383      1.0  0.30730  0.70326  0.17027  1.0000
  H   H384      1.0  0.33939  0.62907  0.16293  1.0000
  H   H385      1.0  0.38164  0.64071  0.16215  1.0000
  S   S155      1.0  0.47637  0.77438  0.17559  1.0000
  H   H386      1.0  0.19778  0.65012  0.04727  1.0000
  C   C384      1.0  0.20140  0.64327  0.03671  1.0000
  C   C385      1.0  0.16372  0.66986  0.02933  1.0000
  H   H387      1.0  0.04099  0.59651  0.98731  1.0000
  C   C386      1.0  0.40960  0.85855  0.97956  1.0000
  C   C387      1.0  0.39560  0.98203  0.06266  1.0000
  H   H388      1.0  0.40001  0.86741  0.98880  1.0000
  C   C388      1.0  0.14351  0.61575  0.98457  1.0000
  H   H389      1.0  0.36462  0.97646  0.07893  1.0000
  C   C389      1.0  0.16664  0.58426  0.00021  1.0000
  C   C390      1.0  0.15007  0.60623  0.99848  1.0000
  H   H390      1.0  0.17172  0.57669  0.01089  1.0000
  H   H391      1.0  0.41531  0.94642  0.03501  1.0000
  C   C391      1.0  0.38390  0.94139  0.05114  1.0000
  C   C392      1.0  0.36962  0.94999  0.06346  1.0000
  C   C393      1.0  0.04502  0.52803  0.07098  1.0000
  H   H392      1.0  0.32709  0.79509  0.22430  1.0000
  H   H393      1.0  0.26634  0.67887  0.19790  1.0000
  C   C394      1.0  0.40434  0.95291  0.04464  1.0000
  H   H394      1.0  0.35380  0.94119  0.06848  1.0000
  H   H395      1.0  0.39457  0.84705  0.21616  1.0000
  H   H396      1.0  0.42373  0.87536  0.07664  1.0000
  C   C395      1.0  0.20393  0.68329  0.20283  1.0000
  C   C396      1.0  0.27768  0.53326  0.21363  1.0000
  S   S156      1.0  0.35697  0.78364  0.19789  1.0000
  H   H397      1.0  0.23630  0.52952  0.16324  1.0000
  H   H398      1.0  0.09269  0.52117  0.04395  1.0000
  C   C397      1.0  0.04170  0.61208  0.04482  1.0000
  C   C398      1.0  0.06123  0.60765  0.05357  1.0000
  C   C399      1.0  0.05721  0.59732  0.06809  1.0000
  C   C400      1.0  0.03358  0.59173  0.07384  1.0000
  H   H399      1.0  0.38529  0.98700  0.00406  1.0000
  H   H400      1.0  0.04472  0.62058  0.03371  1.0000
  H   H401      1.0  0.07929  0.61253  0.04914  1.0000
  H   H402      1.0  0.03028  0.58420  0.08514  1.0000
  C   C401      1.0  0.19027  0.64270  0.01306  1.0000
  C   C402      1.0  0.07630  0.58133  0.01527  1.0000
  C   C403      1.0  0.40989  0.97361  0.05024  1.0000
  H   H403      1.0  0.14737  0.66537  0.02486  1.0000
  C   C404      1.0  0.22240  0.54988  0.10936  1.0000
  H   H404      1.0  0.33368  0.86408  0.10700  1.0000
  C   C405      1.0  0.20176  0.56267  0.22321  1.0000
  H   H405      1.0  0.25098  0.65248  0.19730  1.0000
  H   H406      1.0  0.45280  0.78565  0.21007  1.0000
  H   H407      1.0  0.42510  0.98306  0.04498  1.0000
  C   C406      1.0  0.06640  0.53287  0.06183  1.0000
  C   C407      1.0  0.24441  0.51059  0.16610  1.0000
  C   C408      1.0  0.22718  0.62606  0.22615  1.0000
  S   S157      1.0  0.17300  0.51331  0.04904  1.0000
  C   C409      1.0  0.37795  0.81993  0.20763  1.0000
  C   C410      1.0  0.09920  0.57471  0.00727  1.0000
  C   C411      1.0  0.05520  0.58908  0.00806  1.0000
  H   H408      1.0  0.20077  0.67663  0.19292  1.0000
  C   C412      1.0  0.40400  0.88425  0.07786  1.0000
  N   N33       1.0  0.08012  0.58435  0.98508  1.0000
  C   C413      1.0  0.23158  0.68948  0.21907  1.0000
  N   N34       1.0  0.41918  0.77539  0.22242  1.0000
  C   C414      1.0  0.37980  0.83573  0.21794  1.0000
  C   C415      1.0  0.24867  0.67301  0.19604  1.0000
  N   N35       1.0  0.25137  0.54286  0.21718  1.0000
  H   H409      1.0  0.28662  0.54672  0.20543  1.0000
  C   C416      1.0  0.03345  0.50797  0.06919  1.0000
  H   H410      1.0  0.40222  0.85159  0.12613  1.0000
  H   H411      1.0  0.25283  0.53247  0.13424  1.0000
  H   H412      1.0  0.18977  0.55512  0.98946  1.0000
  H   H413      1.0  0.19785  0.54643  0.14442  1.0000
  H   H414      1.0  0.39544  0.87980  0.06856  1.0000
  H   H415      1.0  0.17779  0.64922  0.00481  1.0000
  H   H416      1.0  0.11578  0.56894  0.01276  1.0000
  H   H417      1.0  0.07494  0.58053  0.02702  1.0000
  C   C417      1.0  0.17774  0.54465  0.12647  1.0000
  H   H418      1.0  0.23991  0.52848  0.19946  1.0000
  C   C418      1.0  0.24305  0.55126  0.13093  1.0000
  H   H419      1.0  0.23428  0.61870  0.04245  1.0000
  N   N36       1.0  0.22761  0.68261  0.20612  1.0000
  C   C419      1.0  0.13388  0.50108  0.06868  1.0000
  C   C420      1.0  0.22223  0.62555  0.03400  1.0000
  N   N37       1.0  0.37489  0.71618  0.12859  1.0000
  C   C421      1.0  0.35588  0.73533  0.13023  1.0000
  C   C422      1.0  0.37000  0.69240  0.12962  1.0000
  C   C423      1.0  0.33120  0.73082  0.13306  1.0000
  C   C424      1.0  0.34552  0.68728  0.13221  1.0000
  C   C425      1.0  0.32603  0.70662  0.13400  1.0000
  C   C426      1.0  0.40072  0.72092  0.12552  1.0000
  H   H420      1.0  0.35975  0.75419  0.12955  1.0000
  H   H421      1.0  0.38513  0.67717  0.12884  1.0000
  H   H422      1.0  0.31623  0.74594  0.13473  1.0000
  H   H423      1.0  0.34171  0.66833  0.13344  1.0000
  H   H424      1.0  0.30706  0.70267  0.13662  1.0000
  H   H425      1.0  0.40862  0.71616  0.11451  1.0000
  H   H426      1.0  0.40233  0.74065  0.12592  1.0000
  H   H427      1.0  0.41204  0.70958  0.13374  1.0000
  H   H428      1.0  0.49342  0.88629  0.04545  1.0000
  C   C427      1.0  0.40389  0.86764  0.10360  1.0000
  H   H429      1.0  0.13774  0.51490  0.07490  1.0000
  H   H430      1.0  0.35694  0.97026  0.02462  1.0000
  H   H431      1.0  0.45201  0.93766  0.05773  1.0000
  H   H432      1.0  0.44516  0.75656  0.20709  1.0000
  H   H433      1.0  0.25599  0.56202  0.12341  1.0000
  H   H434      1.0  0.21372  0.61719  0.99970  1.0000
  H   H435      1.0  0.18256  0.57120  0.22524  1.0000
  H   H436      1.0  0.42380  0.86778  0.10259  1.0000
  C   C428      1.0  0.37573  0.96994  0.06935  1.0000
  C   C429      1.0  0.18346  0.69175  0.21243  1.0000
  C   C430      1.0  0.35337  0.86526  0.10617  1.0000
  H   H437      1.0  0.35715  0.84917  0.12834  1.0000
  C   C431      1.0  0.47866  0.95887  0.04488  1.0000
  H   H438      1.0  0.23962  0.55243  0.10254  1.0000
  C   C432      1.0  0.21070  0.62469  0.01006  1.0000
  H   H439      1.0  0.24243  0.60179  0.01856  1.0000
  C   C433      1.0  0.35908  0.80505  0.20995  1.0000
  C   C434      1.0  0.20145  0.54804  0.10275  1.0000
  N   N38       1.0  0.39103  0.87500  0.09179  1.0000
  H   H440      1.0  0.20245  0.54939  0.09098  1.0000
  H   H441      1.0  0.16243  0.54472  0.10637  1.0000
  C   C435      1.0  0.17897  0.54550  0.11139  1.0000
  H   H442      1.0  0.39109  0.81924  0.19791  1.0000
  H   H443      1.0  0.16472  0.69178  0.20993  1.0000
  C   C436      1.0  0.42884  0.83891  0.98163  1.0000
  H   H444      1.0  0.16027  0.54316  0.13327  1.0000
  N   N39       1.0  0.22093  0.54940  0.12415  1.0000
  C   C437      1.0  0.18734  0.69917  0.22555  1.0000
  C   C438      1.0  0.36602  0.87436  0.09299  1.0000
  H   H445      1.0  0.40322  0.90465  0.07703  1.0000
  H   H446      1.0  0.39944  0.74958  0.21546  1.0000
  H   H447      1.0  0.47489  0.93006  0.07951  1.0000
  H   H448      1.0  0.03758  0.53961  0.07950  1.0000
  C   C439      1.0  0.39179  0.85860  0.11696  1.0000
  C   C440      1.0  0.36644  0.85717  0.11818  1.0000
  H   H449      1.0  0.24562  0.67993  0.18456  1.0000
  C   C441      1.0  0.20293  0.62793  0.22261  1.0000
  C   C442      1.0  0.40088  0.76072  0.22395  1.0000
  S   S158      1.0  0.49409  0.91170  0.01619  1.0000
  C   C443      1.0  0.01839  0.60530  0.05036  1.0000
  H   H450      1.0  0.01681  0.50433  0.07634  1.0000
  H   H451      1.0  0.28775  0.52976  0.22343  1.0000
  C   C444      1.0  0.23424  0.53898  0.20867  1.0000
  C   C445      1.0  0.22675  0.61606  0.02063  1.0000
  H   H452      1.0  0.42766  0.78500  0.19969  1.0000
  H   H453      1.0  0.07589  0.54798  0.06337  1.0000
  H   H454      1.0  0.03724  0.59418  0.01422  1.0000
  C   C446      1.0  0.01434  0.59532  0.06494  1.0000
  H   H455      1.0  0.15834  0.67032  0.04122  1.0000
  C   C447      1.0  0.05746  0.59043  0.99285  1.0000
  C   C448      1.0  0.50088  0.96832  0.04472  1.0000
  H   H456      1.0  0.46915  0.96174  0.03518  1.0000
  H   H457      1.0  0.11863  0.57079  0.98601  1.0000
  N   N40       1.0  0.18552  0.65130  0.02638  1.0000
  C   C449      1.0  0.36331  0.98788  0.02484  1.0000
  H   H458      1.0  0.27982  0.51545  0.20890  1.0000
  C   C450      1.0  0.48196  0.94097  0.06973  1.0000
  C   C451      1.0  0.34181  0.80648  0.22248  1.0000
  C   C452      1.0  0.20921  0.54884  0.21154  1.0000
  C   C453      1.0  0.43705  0.77571  0.20923  1.0000
  H   H459      1.0  0.19579  0.54631  0.20453  1.0000
  H   H460      1.0  0.25028  0.68800  0.22198  1.0000
  H   H461      1.0  0.34384  0.99348  0.04603  1.0000
  C   C454      1.0  0.37957  0.99732  0.01333  1.0000
  H   H462      1.0  0.04709  0.65941  0.30151  1.0000
  Fe  Fe81      1.0  0.17573  0.72937  0.28481  1.0000
  S   S159      1.0  0.19422  0.69429  0.29645  1.0000
  S   S160      1.0  0.18766  0.76773  0.28219  1.0000
  Fe  Fe82      1.0  0.13314  0.70357  0.27761  1.0000
  S   S161      1.0  0.14909  0.66648  0.28831  1.0000
  S   S162      1.0  0.09795  0.71138  0.26629  1.0000
  Fe  Fe83      1.0  0.15568  0.68755  0.30616  1.0000
  S   S163      1.0  0.13943  0.67920  0.32970  1.0000
  Fe  Fe84      1.0  0.18605  0.67644  0.27752  1.0000
  S   S164      1.0  0.21681  0.65156  0.26561  1.0000
  S   S165      1.0  0.13759  0.72418  0.29593  1.0000
  S   S166      1.0  0.16974  0.71198  0.26538  1.0000
  Fe  Fe85      1.0  0.34415  0.85379  0.26602  1.0000
  S   S167      1.0  0.30250  0.86032  0.27083  1.0000
  S   S168      1.0  0.36729  0.85501  0.24392  1.0000
  Fe  Fe86      1.0  0.35188  0.85162  0.29826  1.0000
  S   S169      1.0  0.31096  0.85725  0.30562  1.0000
  S   S170      1.0  0.38302  0.85331  0.31155  1.0000
  Fe  Fe87      1.0  0.30825  0.83047  0.28971  1.0000
  S   S171      1.0  0.29023  0.79524  0.29578  1.0000
  Fe  Fe88      1.0  0.30881  0.88648  0.28626  1.0000
  S   S172      1.0  0.28746  0.92528  0.28747  1.0000
  S   S173      1.0  0.34992  0.82264  0.28390  1.0000
  S   S174      1.0  0.34972  0.88223  0.27983  1.0000
  Fe  Fe89      1.0  0.41387  0.85381  0.42265  1.0000
  S   S175      1.0  0.43858  0.88251  0.41372  1.0000
  S   S176      1.0  0.41283  0.83598  0.44599  1.0000
  Fe  Fe90      1.0  0.39910  0.84937  0.39258  1.0000
  S   S177      1.0  0.42298  0.87721  0.38144  1.0000
  S   S178      1.0  0.37507  0.83160  0.38031  1.0000
  Fe  Fe91      1.0  0.45131  0.85830  0.39594  1.0000
  Fe  Fe92      1.0  0.40779  0.89852  0.40008  1.0000
  S   S179      1.0  0.39341  0.93841  0.39420  1.0000
  S   S180      1.0  0.42889  0.82831  0.40564  1.0000
  S   S181      1.0  0.38172  0.87202  0.41054  1.0000
  Fe  Fe93      1.0  0.11060  0.60860  0.41788  1.0000
  S   S182      1.0  0.14661  0.61925  0.42215  1.0000
  S   S183      1.0  0.07287  0.63119  0.41831  1.0000
  Fe  Fe94      1.0  0.13389  0.55849  0.40941  1.0000
  S   S184      1.0  0.17211  0.56398  0.41303  1.0000
  Fe  Fe95      1.0  0.15306  0.58020  0.43328  1.0000
  S   S185      1.0  0.16988  0.56926  0.45451  1.0000
  Fe  Fe96      1.0  0.16270  0.60238  0.40165  1.0000
  S   S186      1.0  0.18969  0.61675  0.38312  1.0000
  S   S187      1.0  0.11573  0.57104  0.43061  1.0000
  S   S188      1.0  0.12618  0.59556  0.39653  1.0000
  C   C455      1.0  0.37936  0.84805  0.33066  1.0000
  C   C456      1.0  0.39576  0.85700  0.33822  1.0000
  C   C457      1.0  0.39420  0.85249  0.35344  1.0000
  C   C458      1.0  0.37646  0.83866  0.36124  1.0000
  C   C459      1.0  0.35985  0.82988  0.35368  1.0000
  C   C460      1.0  0.36112  0.83476  0.33841  1.0000
  H   H463      1.0  0.40988  0.86732  0.33227  1.0000
  H   H464      1.0  0.40723  0.85911  0.35904  1.0000
  H   H465      1.0  0.34606  0.81914  0.35963  1.0000
  H   H466      1.0  0.34844  0.82771  0.33262  1.0000
  C   C461      1.0  0.15452  0.66249  0.34430  1.0000
  C   C462      1.0  0.14084  0.66015  0.35812  1.0000
  C   C463      1.0  0.15147  0.64604  0.37001  1.0000
  C   C464      1.0  0.17612  0.63458  0.36826  1.0000
  C   C465      1.0  0.19006  0.63732  0.35451  1.0000
  C   C466      1.0  0.17923  0.65109  0.34250  1.0000
  H   H467      1.0  0.12176  0.66905  0.35962  1.0000
  H   H468      1.0  0.14064  0.64435  0.38058  1.0000
  H   H469      1.0  0.20918  0.62853  0.35310  1.0000
  H   H470      1.0  0.18992  0.65276  0.33188  1.0000
  C   C467      1.0  0.21721  0.77469  0.28474  1.0000
  C   C468      1.0  0.22148  0.79951  0.28242  1.0000
  C   C469      1.0  0.24401  0.80609  0.28529  1.0000
  C   C470      1.0  0.26242  0.78790  0.29072  1.0000
  C   C471      1.0  0.25819  0.76305  0.29294  1.0000
  C   C472      1.0  0.23583  0.75643  0.28985  1.0000
  H   H471      1.0  0.20719  0.81378  0.27848  1.0000
  H   H472      1.0  0.24694  0.82527  0.28359  1.0000
  H   H473      1.0  0.27232  0.74884  0.29713  1.0000
  H   H474      1.0  0.23283  0.73726  0.29169  1.0000
  C   C473      1.0  0.21693  0.59587  0.43857  1.0000
  H   H475      1.0  0.04799  0.72326  0.25869  1.0000
  H   H476      1.0  0.17136  0.65097  0.25311  1.0000
  H   H477      1.0  0.45332  0.87778  0.45590  1.0000
  C   C474      1.0  0.13290  0.59839  0.47016  1.0000
  N   N41       1.0  0.30770  0.92822  0.24938  1.0000
  C   C475      1.0  0.42051  0.79039  0.36123  1.0000
  N   N42       1.0  0.46760  0.84404  0.46809  1.0000
  H   H478      1.0  0.49344  0.82863  0.35750  1.0000
  C   C476      1.0  0.40609  0.84306  0.47478  1.0000
  H   H479      1.0  0.21909  0.58199  0.44792  1.0000
  S   S189      1.0  0.49055  0.85003  0.38555  1.0000
  N   N43       1.0  0.01925  0.60658  0.44081  1.0000
  H   H480      1.0  0.40262  0.80365  0.25301  1.0000
  C   C477      1.0  0.15435  0.58091  0.47052  1.0000
  C   C478      1.0  0.30844  0.95000  0.25468  1.0000
  C   C479      1.0  0.38305  0.76066  0.23616  1.0000
  H   H481      1.0  0.42636  0.78964  0.38365  1.0000
  C   C480      1.0  0.35325  0.94228  0.25196  1.0000
  H   H482      1.0  0.12510  0.60448  0.46001  1.0000
  H   H483      1.0  0.24999  0.63149  0.24226  1.0000
  H   H484      1.0  0.08635  0.67566  0.29143  1.0000
  H   H485      1.0  0.14594  0.55425  0.37395  1.0000
  H   H486      1.0  0.36935  0.90803  0.24347  1.0000
  H   H487      1.0  0.48306  0.84031  0.34008  1.0000
  C   C481      1.0  0.41084  0.98242  0.39190  1.0000
  C   C482      1.0  0.41717  0.95682  0.39214  1.0000
  C   C483      1.0  0.44224  0.94631  0.39082  1.0000
  C   C484      1.0  0.22648  0.58941  0.42472  1.0000
  H   H488      1.0  0.29134  0.96128  0.25849  1.0000
  H   H489      1.0  0.45954  0.81475  0.45779  1.0000
  H   H490      1.0  0.44724  0.92654  0.39075  1.0000
  H   H491      1.0  0.19887  0.64228  0.45708  1.0000
  H   H492      1.0  0.46923  0.85473  0.35607  1.0000
  C   C485      1.0  0.33926  0.96641  0.29468  1.0000
  C   C486      1.0  0.32742  0.94623  0.29310  1.0000
  C   C487      1.0  0.30254  0.95008  0.29043  1.0000
  C   C488      1.0  0.28962  0.97434  0.28946  1.0000
  C   C489      1.0  0.36302  0.83652  0.23070  1.0000
  H   H493      1.0  0.35856  0.96321  0.29665  1.0000
  H   H494      1.0  0.33762  0.92773  0.29389  1.0000
  H   H495      1.0  0.27034  0.97753  0.28743  1.0000
  S   S190      1.0  0.12019  0.52884  0.39969  1.0000
  C   C490      1.0  0.02490  0.59074  0.39608  1.0000
  H   H496      1.0  0.33078  0.82254  0.24265  1.0000
  C   C491      1.0  0.03199  0.62808  0.40506  1.0000
  C   C492      1.0  0.05479  0.61600  0.40925  1.0000
  C   C493      1.0  0.06279  0.59146  0.40654  1.0000
  C   C494      1.0  0.04799  0.57892  0.39987  1.0000
  C   C495      1.0  0.19278  0.62517  0.45465  1.0000
  C   C496      1.0  0.21114  0.64219  0.24922  1.0000
  H   H497      1.0  0.08004  0.58172  0.40997  1.0000
  H   H498      1.0  0.05414  0.55978  0.39811  1.0000
  C   C497      1.0  0.02504  0.68224  0.28592  1.0000
  C   C498      1.0  0.04714  0.67348  0.29221  1.0000
  C   C499      1.0  0.06945  0.68264  0.28651  1.0000
  C   C500      1.0  0.06994  0.70047  0.27432  1.0000
  C   C501      1.0  0.04779  0.70934  0.26806  1.0000
  C   C502      1.0  0.02536  0.70044  0.27390  1.0000
  C   C503      1.0  0.40427  0.85425  0.46044  1.0000
  H   H499      1.0  0.19025  0.65427  0.42962  1.0000
  C   C504      1.0  0.47682  0.83675  0.35190  1.0000
  H   H500      1.0  0.43394  0.80286  0.23134  1.0000
  H   H501      1.0  0.27040  0.93592  0.24425  1.0000
  H   H502      1.0  0.02789  0.64314  0.26831  1.0000
  H   H503      1.0  0.38429  0.93003  0.36289  1.0000
  C   C505      1.0  0.33118  0.95737  0.25605  1.0000
  H   H504      1.0  0.41786  0.79609  0.33815  1.0000
  H   H505      1.0  0.25794  0.56072  0.23492  1.0000
  H   H506      1.0  0.41186  0.82332  0.47683  1.0000
  C   C506      1.0  0.46089  0.96144  0.38972  1.0000
  H   H507      1.0  0.36096  0.90477  0.32075  1.0000
  H   H508      1.0  0.36963  0.77673  0.25606  1.0000
  C   C507      1.0  0.34385  0.82203  0.23288  1.0000
  H   H509      1.0  0.21378  0.57804  0.24062  1.0000
  H   H510      1.0  0.20708  0.64376  0.40487  1.0000
  C   C508      1.0  0.18694  0.64396  0.24566  1.0000
  H   H511      1.0  0.32876  0.89585  0.24134  1.0000
  H   H512      1.0  0.17161  0.70514  0.23326  1.0000
  H   H513      1.0  0.21470  0.70272  0.23939  1.0000
  H   H514      1.0  0.27565  0.91377  0.26007  1.0000
  H   H515      1.0  0.32332  0.87967  0.35242  1.0000
  H   H516      1.0  0.36243  0.90484  0.38308  1.0000
  H   H517      1.0  0.37541  0.92975  0.33747  1.0000
  H   H518      1.0  0.36807  0.74965  0.23705  1.0000
  C   C509      1.0  0.47156  0.82961  0.45568  1.0000
  H   H519      1.0  0.46012  0.81563  0.37779  1.0000
  H   H520      1.0  0.33041  0.92183  0.32529  1.0000
  C   C510      1.0  0.04060  0.60004  0.44733  1.0000
  H   H521      1.0  0.33161  0.97425  0.26075  1.0000
  C   C511      1.0  0.30151  0.99459  0.29100  1.0000
  S   S191      1.0  0.00564  0.57412  0.38892  1.0000
  H   H522      1.0  0.45112  0.82247  0.33273  1.0000
  H   H523      1.0  0.49133  0.82121  0.45381  1.0000
  C   C512      1.0  0.32644  0.99069  0.29360  1.0000
  C   C513      1.0  0.45119  0.81099  0.36904  1.0000
  C   C514      1.0  0.39081  0.89394  0.46962  1.0000
  C   C515      1.0  0.45442  0.98700  0.39014  1.0000
  N   N44       1.0  0.12666  0.58522  0.36141  1.0000
  C   C516      1.0  0.10396  0.57978  0.36793  1.0000
  C   C517      1.0  0.12825  0.60572  0.35144  1.0000
  C   C518      1.0  0.08215  0.59543  0.36476  1.0000
  C   C519      1.0  0.10681  0.62170  0.34797  1.0000
  C   C520      1.0  0.08366  0.61658  0.35478  1.0000
  C   C521      1.0  0.14960  0.56926  0.36502  1.0000
  H   H524      1.0  0.10258  0.56360  0.37591  1.0000
  H   H525      1.0  0.14623  0.61010  0.34631  1.0000
  H   H526      1.0  0.06424  0.59129  0.37016  1.0000
  H   H527      1.0  0.10827  0.63822  0.34024  1.0000
  H   H528      1.0  0.06694  0.62909  0.35239  1.0000
  C   C522      1.0  0.04464  0.55873  0.44059  1.0000
  C   C523      1.0  0.34360  0.90504  0.32844  1.0000
  C   C524      1.0  0.38389  0.77589  0.24680  1.0000
  C   C525      1.0  0.35234  0.92020  0.24646  1.0000
  H   H529      1.0  0.02584  0.64714  0.40696  1.0000
  H   H530      1.0  0.04808  0.61363  0.45218  1.0000
  H   H531      1.0  0.33208  0.87921  0.37780  1.0000
  C   C526      1.0  0.20085  0.63616  0.42835  1.0000
  C   C527      1.0  0.40249  0.79094  0.24511  1.0000
  H   H532      1.0  0.01558  0.55232  0.42873  1.0000
  N   N45       1.0  0.34893  0.90468  0.34347  1.0000
  C   C528      1.0  0.33651  0.89102  0.35463  1.0000
  C   C529      1.0  0.36573  0.91877  0.34630  1.0000
  C   C530      1.0  0.34122  0.89080  0.36902  1.0000
  C   C531      1.0  0.37082  0.91906  0.36058  1.0000
  C   C532      1.0  0.35848  0.90493  0.37198  1.0000
  C   C533      1.0  0.42007  0.79050  0.23276  1.0000
  H   H533      1.0  0.07069  0.57106  0.45236  1.0000
  H   H534      1.0  0.19776  0.61009  0.46343  1.0000
  C   C534      1.0  0.43237  0.79605  0.37241  1.0000
  H   H535      1.0  0.28526  0.90493  0.24207  1.0000
  H   H536      1.0  0.03040  0.67741  0.24817  1.0000
  H   H537      1.0  0.33543  0.88840  0.32705  1.0000
  C   C535      1.0  0.28359  0.92031  0.24886  1.0000
  H   H538      1.0  0.39147  0.99049  0.39301  1.0000
  H   H539      1.0  0.01947  0.64548  0.43830  1.0000
  C   C536      1.0  0.18286  0.63659  0.23247  1.0000
  H   H540      1.0  0.37099  0.94747  0.25331  1.0000
  N   N46       1.0  0.45794  0.82011  0.35493  1.0000
  H   H541      1.0  0.50083  0.93690  0.42213  1.0000
  C   C537      1.0  0.01668  0.64459  0.25941  1.0000
  N   N47       1.0  0.16352  0.76218  0.31968  1.0000
  C   C538      1.0  0.16259  0.73842  0.32609  1.0000
  C   C539      1.0  0.18532  0.77189  0.31788  1.0000
  C   C540      1.0  0.18386  0.72374  0.33088  1.0000
  C   C541      1.0  0.20690  0.75780  0.32265  1.0000
  C   C542      1.0  0.20616  0.73351  0.32909  1.0000
  C   C543      1.0  0.14145  0.77706  0.31405  1.0000
  H   H542      1.0  0.14543  0.73051  0.32735  1.0000
  H   H543      1.0  0.18633  0.79035  0.31224  1.0000
  H   H544      1.0  0.18305  0.70478  0.33571  1.0000
  H   H545      1.0  0.22427  0.76546  0.32086  1.0000
  H   H546      1.0  0.22292  0.72217  0.33248  1.0000
  H   H547      1.0  0.13908  0.79618  0.31703  1.0000
  H   H548      1.0  0.14353  0.77797  0.30197  1.0000
  H   H549      1.0  0.12423  0.76902  0.31840  1.0000
  H   H550      1.0  0.15913  0.56061  0.35533  1.0000
  H   H551      1.0  0.39516  0.88850  0.44686  1.0000
  C   C544      1.0  0.01797  0.66393  0.24814  1.0000
  C   C545      1.0  0.39668  0.87975  0.45787  1.0000
  C   C546      1.0  0.44640  0.81466  0.34389  1.0000
  C   C547      1.0  0.32926  0.91335  0.24530  1.0000
  H   H552      1.0  0.40516  0.77971  0.36379  1.0000
  H   H553      1.0  0.17219  0.62794  0.45505  1.0000
  H   H554      1.0  0.16227  0.58036  0.36878  1.0000
  H   H555      1.0  0.48019  0.95326  0.38889  1.0000
  C   C548      1.0  0.05357  0.57603  0.44736  1.0000
  C   C549      1.0  0.42762  0.79961  0.34686  1.0000
  C   C550      1.0  0.21033  0.63038  0.41435  1.0000
  C   C551      1.0  0.01704  0.61545  0.39848  1.0000
  H   H556      1.0  0.38870  0.99085  0.46781  1.0000
  H   H557      1.0  0.48642  0.84737  0.41701  1.0000
  H   H558      1.0  0.38470  0.91362  0.46757  1.0000
  H   H559      1.0  0.05494  0.54028  0.44014  1.0000
  C   C552      1.0  0.45841  0.86873  0.46637  1.0000
  H   H560      1.0  0.22988  0.60190  0.40170  1.0000
  C   C553      1.0  0.02259  0.56544  0.43421  1.0000
  H   H561      1.0  0.00844  0.70747  0.26903  1.0000
  C   C554      1.0  0.00609  0.63189  0.44090  1.0000
  H   H562      1.0  0.23585  0.57083  0.42342  1.0000
  C   C555      1.0  0.23123  0.63294  0.23951  1.0000
  C   C556      1.0  0.22311  0.60681  0.41256  1.0000
  N   N48       1.0  0.20410  0.61894  0.44022  1.0000
  H   H563      1.0  0.46650  0.84115  0.44547  1.0000
  H   H564      1.0  0.16405  0.63797  0.22982  1.0000
  C   C557      1.0  0.00996  0.58954  0.43453  1.0000
  C   C558      1.0  0.21934  0.56664  0.23179  1.0000
  C   C559      1.0  0.21153  0.69792  0.22895  1.0000
  H   H565      1.0  0.16623  0.50742  0.41152  1.0000
  H   H566      1.0  0.00347  0.68130  0.22831  1.0000
  C   C560      1.0  0.42942  0.99749  0.39080  1.0000
  C   C561      1.0  0.24429  0.55683  0.22848  1.0000
  C   C562      1.0  0.00296  0.66604  0.23698  1.0000
  H   H567      1.0  0.44628  0.90178  0.47700  1.0000
  H   H568      1.0  0.05094  0.65357  0.67160  1.0000
  Fe  Fe97      1.0  0.44693  0.87273  0.53408  1.0000
  S   S192      1.0  0.41980  0.85019  0.52830  1.0000
  Fe  Fe98      1.0  0.40590  0.90991  0.54710  1.0000
  S   S193      1.0  0.37555  0.89129  0.54181  1.0000
  S   S194      1.0  0.39530  0.94300  0.55920  1.0000
  Fe  Fe99      1.0  0.39910  0.85657  0.55046  1.0000
  S   S195      1.0  0.38500  0.82879  0.56866  1.0000
  Fe  Fe100     1.0  0.39905  0.88709  0.52034  1.0000
  S   S196      1.0  0.38614  0.90141  0.49832  1.0000
  S   S197      1.0  0.42836  0.87573  0.55676  1.0000
  S   S198      1.0  0.42735  0.90919  0.52502  1.0000
  Fe  Fe101     1.0  0.13192  0.70961  0.67007  1.0000
  S   S199      1.0  0.14367  0.66874  0.67508  1.0000
  S   S200      1.0  0.09123  0.72696  0.67328  1.0000
  Fe  Fe102     1.0  0.18462  0.71920  0.65726  1.0000
  S   S201      1.0  0.19856  0.67842  0.66021  1.0000
  S   S202      1.0  0.21582  0.74194  0.64810  1.0000
  Fe  Fe103     1.0  0.16354  0.67223  0.65236  1.0000
  S   S203      1.0  0.15790  0.64151  0.63969  1.0000
  Fe  Fe104     1.0  0.17767  0.67892  0.68258  1.0000
  S   S204      1.0  0.20465  0.66035  0.69865  1.0000
  S   S205      1.0  0.15124  0.71297  0.64715  1.0000
  S   S206      1.0  0.16426  0.71985  0.67975  1.0000
  Fe  Fe105     1.0  0.28538  0.84507  0.67060  1.0000
  S   S207      1.0  0.31931  0.82539  0.65852  1.0000
  S   S208      1.0  0.24768  0.83120  0.67474  1.0000
  Fe  Fe106     1.0  0.31345  0.88707  0.67647  1.0000
  S   S209      1.0  0.34903  0.86964  0.66484  1.0000
  S   S210      1.0  0.31621  0.91934  0.68891  1.0000
  Fe  Fe107     1.0  0.32563  0.86353  0.64804  1.0000
  S   S211      1.0  0.33255  0.87906  0.62430  1.0000
  Fe  Fe108     1.0  0.33922  0.83346  0.67668  1.0000
  S   S212      1.0  0.36858  0.80604  0.68772  1.0000
  S   S213      1.0  0.29029  0.88303  0.65910  1.0000
  S   S214      1.0  0.30491  0.85103  0.68931  1.0000
  Fe  Fe109     1.0  0.11469  0.57502  0.56321  1.0000
  S   S215      1.0  0.11070  0.61476  0.55354  1.0000
  S   S216      1.0  0.08211  0.56075  0.57706  1.0000
  Fe  Fe110     1.0  0.16826  0.56523  0.55120  1.0000
  S   S217      1.0  0.16905  0.60415  0.54036  1.0000
  Fe  Fe111     1.0  0.14748  0.61509  0.56137  1.0000
  S   S218      1.0  0.15571  0.64768  0.57143  1.0000
  Fe  Fe112     1.0  0.13229  0.60023  0.53352  1.0000
  S   S219      1.0  0.11732  0.61395  0.51198  1.0000
  S   S220      1.0  0.14978  0.57635  0.57268  1.0000
  S   S221      1.0  0.13344  0.56036  0.54263  1.0000
  C   C563      1.0  0.15591  0.64453  0.62079  1.0000
  C   C564      1.0  0.14857  0.62505  0.61494  1.0000
  C   C565      1.0  0.14749  0.62623  0.59989  1.0000
  C   C566      1.0  0.15412  0.64679  0.59053  1.0000
  C   C567      1.0  0.16111  0.66646  0.59641  1.0000
  C   C568      1.0  0.16192  0.66540  0.61150  1.0000
  H   H569      1.0  0.14379  0.60888  0.62208  1.0000
  H   H570      1.0  0.14186  0.61111  0.59551  1.0000
  H   H571      1.0  0.16627  0.68243  0.58922  1.0000
  H   H572      1.0  0.16764  0.68049  0.61590  1.0000
  C   C569      1.0  0.22461  0.76604  0.65620  1.0000
  C   C570      1.0  0.20789  0.77996  0.66566  1.0000
  C   C571      1.0  0.21522  0.79995  0.67114  1.0000
  C   C572      1.0  0.23946  0.80591  0.66749  1.0000
  C   C573      1.0  0.25639  0.79155  0.65834  1.0000
  C   C574      1.0  0.24889  0.77190  0.65261  1.0000
  H   H573      1.0  0.18911  0.77576  0.66846  1.0000
  H   H574      1.0  0.20199  0.81089  0.67825  1.0000
  H   H575      1.0  0.27516  0.79577  0.65553  1.0000
  H   H576      1.0  0.26201  0.76113  0.64536  1.0000
  H   H577      1.0  0.16093  0.57720  0.50673  1.0000
  H   H578      1.0  0.37705  0.90682  0.60686  1.0000
  C   C575      1.0  0.24073  0.70909  0.68086  1.0000
  H   H579      1.0  0.42346  0.97091  0.52456  1.0000
  C   C576      1.0  0.17718  0.66269  0.72577  1.0000
  H   H580      1.0  0.02920  0.56378  0.58193  1.0000
  H   H581      1.0  0.46953  0.91400  0.57866  1.0000
  N   N49       1.0  0.23425  0.72867  0.69042  1.0000
  C   C577      1.0  0.36735  0.80101  0.70694  1.0000
  H   H582      1.0  0.35179  0.87767  0.69622  1.0000
  C   C578      1.0  0.41625  0.98295  0.56258  1.0000
  H   H583      1.0  0.06105  0.62445  0.52673  1.0000
  C   C579      1.0  0.21871  0.59037  0.56363  1.0000
  H   H584      1.0  0.40209  0.84855  0.49751  1.0000
  C   C580      1.0  0.36970  0.84205  0.58424  1.0000
  C   C581      1.0  0.35883  0.86683  0.58305  1.0000
  C   C582      1.0  0.34684  0.87741  0.59542  1.0000
  C   C583      1.0  0.34632  0.86367  0.60922  1.0000
  C   C584      1.0  0.35694  0.83874  0.61051  1.0000
  C   C585      1.0  0.36839  0.82789  0.59799  1.0000
  H   H585      1.0  0.35940  0.87784  0.57254  1.0000
  H   H586      1.0  0.33820  0.89655  0.59429  1.0000
  H   H587      1.0  0.35650  0.82792  0.62111  1.0000
  H   H588      1.0  0.37671  0.80865  0.59898  1.0000
  C   C586      1.0  0.40061  0.85732  0.48650  1.0000
  C   C587      1.0  0.46350  0.96370  0.55021  1.0000
  C   C588      1.0  0.44389  0.94971  0.55183  1.0000
  C   C589      1.0  0.42020  0.95958  0.55778  1.0000
  C   C590      1.0  0.05496  0.60750  0.53314  1.0000
  C   C591      1.0  0.45922  0.87778  0.58612  1.0000
  H   H589      1.0  0.48174  0.95632  0.54535  1.0000
  H   H590      1.0  0.44711  0.93144  0.54836  1.0000
  H   H591      1.0  0.09692  0.70914  0.64182  1.0000
  H   H592      1.0  0.38883  0.94860  0.51001  1.0000
  H   H593      1.0  0.26471  0.74770  0.68120  1.0000
  H   H594      1.0  0.05992  0.60909  0.56114  1.0000
  C   C592      1.0  0.30461  0.96090  0.66903  1.0000
  C   C593      1.0  0.31417  0.95134  0.68213  1.0000
  C   C594      1.0  0.32156  0.96775  0.69047  1.0000
  N   N50       1.0  0.03527  0.61416  0.54480  1.0000
  H   H595      1.0  0.15815  0.51304  0.55640  1.0000
  H   H596      1.0  0.29872  0.94857  0.66253  1.0000
  H   H597      1.0  0.32886  0.96060  0.70065  1.0000
  C   C595      1.0  0.39288  0.88280  0.48395  1.0000
  H   H598      1.0  0.39798  0.99044  0.56734  1.0000
  H   H599      1.0  0.16115  0.67024  0.72013  1.0000
  C   C596      1.0  0.03537  0.55839  0.57116  1.0000
  C   C597      1.0  0.06074  0.55423  0.56633  1.0000
  C   C598      1.0  0.06860  0.54720  0.55243  1.0000
  C   C599      1.0  0.05113  0.54560  0.54310  1.0000
  H   H600      1.0  0.07150  0.59608  0.53755  1.0000
  C   C600      1.0  0.40473  0.98166  0.52351  1.0000
  H   H601      1.0  0.08813  0.54318  0.54882  1.0000
  H   H602      1.0  0.05733  0.54068  0.53224  1.0000
  C   C601      1.0  0.02448  0.68702  0.67045  1.0000
  C   C602      1.0  0.02135  0.71271  0.67041  1.0000
  C   C603      1.0  0.04190  0.72464  0.67143  1.0000
  C   C604      1.0  0.06577  0.71109  0.67238  1.0000
  C   C605      1.0  0.06881  0.68538  0.67250  1.0000
  C   C606      1.0  0.04828  0.67344  0.67160  1.0000
  H   H603      1.0  0.21950  0.59814  0.70674  1.0000
  H   H604      1.0  0.03933  0.74454  0.67136  1.0000
  H   H605      1.0  0.08697  0.67465  0.67335  1.0000
  H   H606      1.0  0.40369  0.77923  0.70664  1.0000
  H   H607      1.0  0.38768  0.93550  0.59930  1.0000
  C   C607      1.0  0.25250  0.82559  0.62673  1.0000
  H   H608      1.0  0.26560  0.88096  0.63263  1.0000
  H   H609      1.0  0.47977  0.81277  0.48287  1.0000
  C   C608      1.0  0.45927  0.98755  0.55445  1.0000
  S   S222      1.0  0.20276  0.53739  0.55015  1.0000
  C   C609      1.0  0.22041  0.61537  0.56353  1.0000
  H   H610      1.0  0.44271  0.84462  0.59372  1.0000
  C   C610      1.0  0.06365  0.64202  0.63500  1.0000
  C   C611      1.0  0.30182  0.98663  0.66456  1.0000
  S   S223      1.0  0.00437  0.55128  0.53529  1.0000
  C   C612      1.0  0.04000  0.65586  0.63496  1.0000
  H   H611      1.0  0.40104  0.86745  0.60037  1.0000
  H   H612      1.0  0.22241  0.58193  0.55357  1.0000
  C   C613      1.0  0.20706  0.74671  0.70978  1.0000
  H   H613      1.0  0.11372  0.67917  0.64631  1.0000
  C   C614      1.0  0.28310  0.80807  0.60845  1.0000
  C   C615      1.0  0.24861  0.74715  0.68930  1.0000
  H   H614      1.0  0.29090  0.79299  0.60211  1.0000
  S   S224      1.0  0.48760  0.86278  0.52652  1.0000
  H   H615      1.0  0.17718  0.61584  0.71324  1.0000
  C   C616      1.0  0.02576  0.55134  0.54759  1.0000
  H   H616      1.0  0.29221  0.86574  0.61310  1.0000
  H   H617      1.0  0.23931  0.64398  0.71926  1.0000
  H   H618      1.0  0.21579  0.78094  0.71518  1.0000
  H   H619      1.0  0.39332  0.85382  0.69081  1.0000
  H   H620      1.0  0.25368  0.71443  0.67113  1.0000
  C   C617      1.0  0.12166  0.60830  0.48296  1.0000
  C   C618      1.0  0.22119  0.76601  0.70843  1.0000
  C   C619      1.0  0.31920  0.99343  0.68587  1.0000
  C   C620      1.0  0.04104  0.61465  0.55856  1.0000
  H   H621      1.0  0.18099  0.55979  0.48410  1.0000
  H   H622      1.0  0.04840  0.59633  0.52577  1.0000
  C   C621      1.0  0.16435  0.57325  0.48377  1.0000
  C   C622      1.0  0.21126  0.57647  0.57672  1.0000
  H   H623      1.0  0.47746  0.86793  0.58284  1.0000
  C   C623      1.0  0.43106  0.91596  0.58764  1.0000
  H   H624      1.0  0.29373  0.99386  0.65462  1.0000
  H   H625      1.0  0.11424  0.69222  0.62745  1.0000
  H   H626      1.0  0.15051  0.52476  0.51234  1.0000
  H   H627      1.0  0.26080  0.58127  0.71469  1.0000
  H   H628      1.0  0.06614  0.62221  0.63455  1.0000
  H   H629      1.0  0.23625  0.82384  0.63465  1.0000
  C   C624      1.0  0.25307  0.86666  0.63368  1.0000
  C   C625      1.0  0.24437  0.58228  0.72259  1.0000
  H   H630      1.0  0.21554  0.64567  0.57647  1.0000
  H   H631      1.0  0.19070  0.74631  0.71771  1.0000
  C   C626      1.0  0.20052  0.65759  0.71785  1.0000
  C   C627      1.0  0.28378  0.84892  0.61480  1.0000
  C   C628      1.0  0.15302  0.58305  0.49659  1.0000
  H   H632      1.0  0.38155  0.95230  0.48422  1.0000
  N   N51       1.0  0.39959  0.98458  0.50831  1.0000
  H   H633      1.0  0.24907  0.69168  0.68695  1.0000
  H   H634      1.0  0.22517  0.62661  0.55336  1.0000
  C   C629      1.0  0.22095  0.59168  0.71816  1.0000
  C   C630      1.0  0.39996  0.84611  0.71335  1.0000
  C   C631      1.0  0.01790  0.55741  0.56169  1.0000
  H   H635      1.0  0.33091  0.82155  0.71108  1.0000
  C   C632      1.0  0.45483  0.90358  0.58376  1.0000
  H   H636      1.0  0.22381  0.70553  0.67667  1.0000
  H   H637      1.0  0.25340  0.78933  0.62018  1.0000
  C   C633      1.0  0.41619  0.87773  0.59594  1.0000
  C   C634      1.0  0.13169  0.60073  0.49621  1.0000
  C   C635      1.0  0.43978  0.86471  0.59225  1.0000
  H   H638      1.0  0.25031  0.85932  0.64541  1.0000
  N   N52       1.0  0.20589  0.58715  0.58939  1.0000
  C   C636      1.0  0.20792  0.61157  0.58942  1.0000
  C   C637      1.0  0.21520  0.62603  0.57651  1.0000
  C   C638      1.0  0.19620  0.57274  0.60272  1.0000
  H   H639      1.0  0.20298  0.62031  0.59935  1.0000
  H   H640      1.0  0.25316  0.78129  0.69692  1.0000
  H   H641      1.0  0.19822  0.58111  0.61261  1.0000
  H   H642      1.0  0.17613  0.57204  0.60247  1.0000
  H   H643      1.0  0.20628  0.55353  0.60372  1.0000
  C   C639      1.0  0.29397  0.82970  0.60649  1.0000
  C   C640      1.0  0.03709  0.68133  0.63551  1.0000
  H   H644      1.0  0.02712  0.62080  0.58071  1.0000
  N   N53       1.0  0.41218  0.90304  0.59375  1.0000
  C   C641      1.0  0.38779  0.78738  0.71345  1.0000
  H   H645      1.0  0.45670  0.88103  0.50124  1.0000
  C   C642      1.0  0.38713  0.91632  0.59709  1.0000
  C   C643      1.0  0.26212  0.80601  0.61857  1.0000
  H   H646      1.0  0.47977  0.88893  0.55208  1.0000
  H   H647      1.0  0.42769  0.93597  0.58549  1.0000
  C   C644      1.0  0.34686  0.81135  0.71585  1.0000
  C   C645      1.0  0.47288  0.83241  0.48146  1.0000
  H   H648      1.0  0.31026  0.83159  0.59861  1.0000
  H   H649      1.0  0.23489  0.87567  0.63020  1.0000
  H   H650      1.0  0.01868  0.69211  0.63589  1.0000
  N   N54       1.0  0.08086  0.67876  0.63681  1.0000
  C   C646      1.0  0.05786  0.69258  0.63641  1.0000
  C   C647      1.0  0.08403  0.65388  0.63588  1.0000
  H   H651      1.0  0.10518  0.62198  0.48261  1.0000
  C   C648      1.0  0.10245  0.69051  0.63808  1.0000
  H   H652      1.0  0.05529  0.71225  0.63736  1.0000
  H   H653      1.0  0.10239  0.64305  0.63606  1.0000
  H   H654      1.0  0.20918  0.55724  0.57660  1.0000
  C   C649      1.0  0.39186  0.96552  0.50298  1.0000
  C   C650      1.0  0.38618  0.85664  0.70197  1.0000
  C   C651      1.0  0.43580  0.99693  0.56092  1.0000
  N   N55       1.0  0.26356  0.84652  0.62493  1.0000
  C   C652      1.0  0.36250  0.86980  0.70511  1.0000
  H   H655      1.0  0.37654  0.91737  0.58762  1.0000
  C   C653      1.0  0.02249  0.62125  0.56973  1.0000
  N   N56       1.0  0.35269  0.87211  0.71920  1.0000
  C   C654      1.0  0.38773  0.96750  0.48837  1.0000
  C   C655      1.0  0.15876  0.50563  0.51489  1.0000
  C   C656      1.0  0.19812  0.50650  0.55559  1.0000
  C   C657      1.0  0.21401  0.72799  0.70069  1.0000
  C   C658      1.0  0.49951  0.88432  0.54911  1.0000
  C   C659      1.0  0.22115  0.64784  0.72531  1.0000
  C   C660      1.0  0.32770  0.88578  0.72214  1.0000
  C   C661      1.0  0.46917  0.84558  0.49355  1.0000
  C   C662      1.0  0.24225  0.76614  0.69823  1.0000
  H   H656      1.0  0.20296  0.71301  0.70178  1.0000
  C   C663      1.0  0.45991  0.87074  0.49189  1.0000
  H   H657      1.0  0.00663  0.62048  0.53080  1.0000
  H   H658      1.0  0.47322  0.83637  0.50420  1.0000
  C   C664      1.0  0.01128  0.62087  0.54169  1.0000
  H   H659      1.0  0.39073  0.97173  0.53072  1.0000
  H   H660      1.0  0.31486  0.88073  0.71512  1.0000
  H   H661      1.0  0.16726  0.58656  0.72091  1.0000
  C   C665      1.0  0.17575  0.60234  0.72325  1.0000
  H   H662      1.0  0.32829  0.90600  0.71965  1.0000
  H   H663      1.0  0.41794  0.83506  0.71110  1.0000
  H   H664      1.0  0.03123  0.50341  0.52998  1.0000
  C   C666      1.0  0.39168  0.98907  0.47919  1.0000
  H   H665      1.0  0.18937  0.51502  0.52426  1.0000
  H   H666      1.0  0.02385  0.64686  0.63477  1.0000
  H   H667      1.0  0.00320  0.72345  0.66946  1.0000
  C   C667      1.0  0.18062  0.50019  0.52152  1.0000
  C   C668      1.0  0.17436  0.49931  0.55761  1.0000
  C   C669      1.0  0.45440  0.88244  0.47824  1.0000
  Fe  Fe113     1.0  0.44827  0.75596  0.78011  1.0000
  S   S225      1.0  0.42138  0.79088  0.78221  1.0000
  C   C670      1.0  0.08798  0.63496  0.90099  1.0000
  Fe  Fe114     1.0  0.40652  0.72364  0.78839  1.0000
  S   S226      1.0  0.37736  0.75641  0.79180  1.0000
  S   S227      1.0  0.39801  0.68434  0.78827  1.0000
  Fe  Fe115     1.0  0.39572  0.77424  0.77091  1.0000
  S   S228      1.0  0.36849  0.79707  0.75624  1.0000
  Fe  Fe116     1.0  0.40545  0.77047  0.80290  1.0000
  S   S229      1.0  0.39401  0.79545  0.82080  1.0000
  S   S230      1.0  0.42377  0.74089  0.76684  1.0000
  S   S231      1.0  0.43358  0.73599  0.80141  1.0000
  Fe  Fe117     1.0  0.26071  0.57021  0.78208  1.0000
  S   S232      1.0  0.22023  0.57705  0.78991  1.0000
  S   S233      1.0  0.27024  0.53637  0.76975  1.0000
  Fe  Fe118     1.0  0.27037  0.61881  0.79201  1.0000
  S   S234      1.0  0.22981  0.62797  0.80054  1.0000
  S   S235      1.0  0.29023  0.65044  0.79616  1.0000
  Fe  Fe119     1.0  0.23228  0.58810  0.80975  1.0000
  S   S236      1.0  0.21701  0.56919  0.83141  1.0000
  Fe  Fe120     1.0  0.22180  0.61615  0.77976  1.0000
  S   S237      1.0  0.19008  0.63565  0.76722  1.0000
  S   S238      1.0  0.27315  0.57909  0.80263  1.0000
  S   S239      1.0  0.26182  0.60912  0.77060  1.0000
  Fe  Fe121     1.0  0.11637  0.58248  0.92583  1.0000
  S   S240      1.0  0.14351  0.60766  0.92835  1.0000
  S   S241      1.0  0.07562  0.59360  0.93239  1.0000
  Fe  Fe122     1.0  0.15671  0.54293  0.91514  1.0000
  S   S242      1.0  0.18733  0.56421  0.91699  1.0000
  C   C671      1.0  0.44096  0.82736  0.96958  1.0000
  Fe  Fe123     1.0  0.16553  0.57299  0.93832  1.0000
  S   S243      1.0  0.18324  0.56531  0.95927  1.0000
  Fe  Fe124     1.0  0.16256  0.59646  0.90678  1.0000
  S   S244      1.0  0.17635  0.62255  0.88760  1.0000
  S   S245      1.0  0.13698  0.54868  0.93729  1.0000
  S   S246      1.0  0.13330  0.57438  0.90348  1.0000
  Fe  Fe125     1.0  0.48452  0.84037  0.90704  1.0000
  S   S247      1.0  0.45360  0.81774  0.91341  1.0000
  H   H668      1.0  0.28321  0.64231  0.83286  1.0000
  Fe  Fe126     1.0  0.45353  0.88051  0.88915  1.0000
  S   S248      1.0  0.41973  0.86111  0.89370  1.0000
  S   S249      1.0  0.45655  0.91788  0.87654  1.0000
  Fe  Fe127     1.0  0.42979  0.85397  0.91674  1.0000
  S   S250      1.0  0.40272  0.86244  0.93650  1.0000
  Fe  Fe128     1.0  0.44688  0.82664  0.88982  1.0000
  S   S251      1.0  0.44545  0.79350  0.87807  1.0000
  S   S252      1.0  0.46141  0.87581  0.91228  1.0000
  S   S253      1.0  0.47987  0.84681  0.88335  1.0000
  C   C672      1.0  0.05303  0.59940  0.88123  1.0000
  C   C673      1.0  0.21836  0.64201  0.74051  1.0000
  H   H669      1.0  0.38238  0.69781  0.74090  1.0000
  C   C674      1.0  0.44412  0.98390  0.89274  1.0000
  C   C675      1.0  0.11331  0.62403  0.87900  1.0000
  H   H670      1.0  0.14825  0.61069  0.96174  1.0000
  C   C676      1.0  0.20351  0.58507  0.84634  1.0000
  C   C677      1.0  0.19559  0.57116  0.85938  1.0000
  C   C678      1.0  0.18670  0.58267  0.87195  1.0000
  C   C679      1.0  0.18560  0.60825  0.87157  1.0000
  C   C680      1.0  0.19280  0.62236  0.85842  1.0000
  C   C681      1.0  0.20181  0.61078  0.84581  1.0000
  H   H671      1.0  0.19683  0.55128  0.85990  1.0000
  H   H672      1.0  0.18124  0.57159  0.88201  1.0000
  H   H673      1.0  0.19185  0.64219  0.85805  1.0000
  H   H674      1.0  0.20777  0.62167  0.83577  1.0000
  C   C682      1.0  0.33158  0.74617  0.76583  1.0000
  C   C683      1.0  0.40562  0.78195  0.92450  1.0000
  H   H675      1.0  0.23427  0.63384  0.74606  1.0000
  C   C684      1.0  0.06925  0.62321  0.89736  1.0000
  C   C685      1.0  0.40872  0.79451  0.83660  1.0000
  C   C686      1.0  0.40306  0.81479  0.84471  1.0000
  C   C687      1.0  0.41435  0.81490  0.85736  1.0000
  C   C688      1.0  0.43109  0.79446  0.86213  1.0000
  C   C689      1.0  0.43665  0.77411  0.85409  1.0000
  C   C690      1.0  0.42570  0.77421  0.84128  1.0000
  H   H676      1.0  0.38988  0.83053  0.84114  1.0000
  H   H677      1.0  0.40994  0.83067  0.86346  1.0000
  H   H678      1.0  0.44953  0.75820  0.85776  1.0000
  H   H679      1.0  0.43002  0.75843  0.83518  1.0000
  C   C691      1.0  0.36797  0.79624  0.73744  1.0000
  C   C692      1.0  0.38815  0.78501  0.72866  1.0000
  C   C693      1.0  0.39133  0.80198  0.90188  1.0000
  H   H680      1.0  0.33144  0.81757  0.73772  1.0000
  C   C694      1.0  0.19485  0.64590  0.74840  1.0000
  C   C695      1.0  0.46229  0.82133  0.82751  1.0000
  C   C696      1.0  0.42629  0.98002  0.90470  1.0000
  H   H681      1.0  0.44348  0.93659  0.93046  1.0000
  C   C697      1.0  0.49176  0.88402  0.94569  1.0000
  H   H682      1.0  0.36600  0.83380  0.93018  1.0000
  C   C698      1.0  0.36807  0.67475  0.79105  1.0000
  C   C699      1.0  0.36538  0.65149  0.78729  1.0000
  C   C700      1.0  0.34182  0.64354  0.78885  1.0000
  C   C701      1.0  0.32068  0.65866  0.79442  1.0000
  C   C702      1.0  0.32348  0.68167  0.79847  1.0000
  C   C703      1.0  0.34693  0.68980  0.79666  1.0000
  H   H683      1.0  0.38163  0.63960  0.78306  1.0000
  H   H684      1.0  0.34005  0.62575  0.78577  1.0000
  H   H685      1.0  0.30730  0.69351  0.80283  1.0000
  H   H686      1.0  0.34866  0.70765  0.79967  1.0000
  H   H687      1.0  0.11649  0.51915  0.92052  1.0000
  H   H688      1.0  0.29716  0.69907  0.76955  1.0000
  C   C704      1.0  0.44457  0.94187  0.88725  1.0000
  C   C705      1.0  0.42687  0.93800  0.89927  1.0000
  C   C706      1.0  0.41745  0.95719  0.90781  1.0000
  H   H689      1.0  0.04648  0.60835  0.87076  1.0000
  H   H690      1.0  0.42014  0.92031  0.90185  1.0000
  H   H691      1.0  0.40347  0.95419  0.91697  1.0000
  H   H692      1.0  0.41722  0.76701  0.93027  1.0000
  C   C707      1.0  0.05047  0.55006  0.90762  1.0000
  C   C708      1.0  0.06622  0.56061  0.91490  1.0000
  C   C709      1.0  0.05623  0.57834  0.92428  1.0000
  C   C710      1.0  0.03044  0.58517  0.92655  1.0000
  C   C711      1.0  0.34717  0.80894  0.73100  1.0000
  H   H693      1.0  0.05830  0.53647  0.90030  1.0000
  H   H694      1.0  0.08607  0.55514  0.91314  1.0000
  C   C712      1.0  0.09432  0.61213  0.87581  1.0000
  H   H695      1.0  0.20692  0.53106  0.81568  1.0000
  H   H696      1.0  0.49384  0.81286  0.85716  1.0000
  S   S254      1.0  0.00526  0.54565  0.89962  1.0000
  C   C713      1.0  0.49861  0.90115  0.93392  1.0000
  H   H697      1.0  0.05223  0.62279  0.90474  1.0000
  C   C714      1.0  0.20804  0.51139  0.81934  1.0000
  C   C715      1.0  0.49937  0.78875  0.84029  1.0000
  C   C716      1.0  0.17014  0.58140  0.97416  1.0000
  C   C717      1.0  0.39006  0.84905  0.72768  1.0000
  H   H698      1.0  0.33781  0.67740  0.76005  1.0000
  H   H699      1.0  0.26443  0.56700  0.74095  1.0000
  C   C718      1.0  0.20352  0.50425  0.79458  1.0000
  C   C719      1.0  0.22521  0.57607  0.74734  1.0000
  H   H700      1.0  0.44736  0.83389  0.82278  1.0000
  N   N57       1.0  0.39152  0.80022  0.93178  1.0000
  H   H701      1.0  0.33018  0.76547  0.76754  1.0000
  C   C720      1.0  0.31084  0.73384  0.76907  1.0000
  N   N58       1.0  0.07262  0.61189  0.88494  1.0000
  H   H702      1.0  0.12491  0.64422  0.89447  1.0000
  H   H703      1.0  0.13070  0.62388  0.87189  1.0000
  C   C721      1.0  0.39142  0.79884  0.94759  1.0000
  N   N59       1.0  0.26522  0.61351  0.84559  1.0000
  C   C722      1.0  0.26538  0.58846  0.84685  1.0000
  C   C723      1.0  0.25622  0.62637  0.85719  1.0000
  C   C724      1.0  0.25701  0.57553  0.86010  1.0000
  C   C725      1.0  0.24757  0.61404  0.87058  1.0000
  C   C726      1.0  0.24803  0.58845  0.87202  1.0000
  C   C727      1.0  0.27312  0.62697  0.83150  1.0000
  H   H704      1.0  0.27130  0.57839  0.83748  1.0000
  H   H705      1.0  0.25519  0.64635  0.85603  1.0000
  H   H706      1.0  0.25646  0.55580  0.86091  1.0000
  H   H707      1.0  0.23962  0.62433  0.87964  1.0000
  H   H708      1.0  0.24051  0.57882  0.88219  1.0000
  H   H709      1.0  0.46359  0.77529  0.80815  1.0000
  H   H710      1.0  0.28600  0.61476  0.82440  1.0000
  H   H711      1.0  0.25669  0.63486  0.82573  1.0000
  H   H712      1.0  0.41748  0.76845  0.90360  1.0000
  H   H713      1.0  0.44345  0.82633  0.94638  1.0000
  N   N60       1.0  0.20024  0.59340  0.72814  1.0000
  C   C728      1.0  0.21081  0.50306  0.83395  1.0000
  H   H714      1.0  0.07837  0.56801  0.96596  1.0000
  H   H715      1.0  0.27050  0.51300  0.79978  1.0000
  H   H716      1.0  0.43041  0.90682  0.95131  1.0000
  C   C729      1.0  0.33613  0.69684  0.76144  1.0000
  H   H717      1.0  0.46157  0.87309  0.96124  1.0000
  H   H718      1.0  0.35846  0.86374  0.74164  1.0000
  C   C730      1.0  0.40576  0.78257  0.90946  1.0000
  C   C731      1.0  0.15335  0.60325  0.97244  1.0000
  H   H719      1.0  0.06868  0.60100  0.96451  1.0000
  C   C732      1.0  0.35436  0.73339  0.76048  1.0000
  H   H720      1.0  0.38033  0.78444  0.95323  1.0000
  C   C733      1.0  0.49139  0.78448  0.82736  1.0000
  C   C734      1.0  0.44972  0.90532  0.94662  1.0000
  H   H721      1.0  0.49994  0.76814  0.82231  1.0000
  H   H722      1.0  0.21428  0.51983  0.79063  1.0000
  H   H723      1.0  0.03667  0.59997  0.88970  1.0000
  H   H724      1.0  0.17312  0.51200  0.95832  1.0000
  H   H725      1.0  0.36590  0.83584  0.90357  1.0000
  N   N61       1.0  0.48142  0.91984  0.92861  1.0000
  H   H726      1.0  0.08552  0.64309  0.91113  1.0000
  C   C735      1.0  0.17437  0.65678  0.74102  1.0000
  N   N62       1.0  0.47274  0.80043  0.82130  1.0000
  C   C736      1.0  0.11788  0.50141  0.91663  1.0000
  H   H727      1.0  0.38637  0.88045  0.96420  1.0000
  H   H728      1.0  0.41071  0.79439  0.95059  1.0000
  H   H729      1.0  0.38346  0.81681  0.95168  1.0000
  H   H730      1.0  0.37037  0.74314  0.75797  1.0000
  H   H731      1.0  0.00724  0.50300  0.92215  1.0000
  C   C737      1.0  0.45302  0.96492  0.88391  1.0000
  C   C738      1.0  0.40188  0.86587  0.96563  1.0000
  H   H732      1.0  0.31969  0.88163  0.73362  1.0000
  C   C739      1.0  0.31302  0.70907  0.76676  1.0000
  H   H733      1.0  0.39612  0.70330  0.75654  1.0000
  C   C740      1.0  0.20212  0.58569  0.74258  1.0000
  C   C741      1.0  0.37684  0.82042  0.90940  1.0000
  S   S255      1.0  0.48836  0.76164  0.77191  1.0000
  H   H734      1.0  0.21178  0.51620  0.84145  1.0000
  H   H735      1.0  0.40026  0.84026  0.73667  1.0000
  N   N63       1.0  0.35651  0.70892  0.75862  1.0000
  H   H736      1.0  0.29316  0.74341  0.77348  1.0000
  H   H737      1.0  0.02258  0.59892  0.93377  1.0000
  H   H738      1.0  0.15613  0.66000  0.74708  1.0000
  H   H739      1.0  0.18354  0.51071  0.79359  1.0000
  C   C742      1.0  0.24643  0.57437  0.73729  1.0000
  H   H740      1.0  0.09716  0.60287  0.86606  1.0000
  C   C743      1.0  0.45721  0.92204  0.93479  1.0000
  H   H741      1.0  0.45586  0.81215  0.97111  1.0000
  H   H742      1.0  0.38259  0.67593  0.75735  1.0000
  C   C744      1.0  0.43391  0.83534  0.95557  1.0000
  H   H743      1.0  0.06016  0.57957  0.88030  1.0000
  C   C745      1.0  0.41395  0.85423  0.95362  1.0000
  H   H744      1.0  0.18582  0.58749  0.75057  1.0000
  C   C746      1.0  0.46999  0.82629  0.84037  1.0000
  H   H745      1.0  0.46681  0.96792  0.87466  1.0000
  C   C747      1.0  0.38053  0.69587  0.75297  1.0000
  C   C748      1.0  0.01470  0.57470  0.91925  1.0000
  C   C749      1.0  0.26630  0.50607  0.77819  1.0000
  S   S256      1.0  0.16605  0.50657  0.90625  1.0000
  C   C750      1.0  0.37704  0.81917  0.92446  1.0000
  C   C751      1.0  0.11008  0.63546  0.89170  1.0000
  C   C752      1.0  0.48843  0.80971  0.84688  1.0000
  H   H746      1.0  0.10094  0.58911  0.96401  1.0000
  C   C753      1.0  0.46447  0.79535  0.80787  1.0000
  C   C754      1.0  0.02470  0.55733  0.90966  1.0000
  H   H747      1.0  0.47747  0.80118  0.79828  1.0000
  H   H748      1.0  0.46108  0.84240  0.84557  1.0000
  H   H749      1.0  0.39177  0.80291  0.89015  1.0000
  H   H750      1.0  0.49981  0.73599  0.80044  1.0000
  H   H751      1.0  0.22673  0.57013  0.75878  1.0000
  H   H752      1.0  0.40432  0.77524  0.73351  1.0000
  H   H753      1.0  0.44542  0.80513  0.80645  1.0000
  C   C755      1.0  0.08213  0.58562  0.96917  1.0000
  C   C756      1.0  0.46716  0.88625  0.95211  1.0000
  C   C757      1.0  0.36626  0.86224  0.73043  1.0000
  H   H754      1.0  0.16321  0.61217  0.73166  1.0000
  C   C758      1.0  0.48858  0.93637  0.91555  1.0000
  H   H755      1.0  0.47686  0.95482  0.91540  1.0000
  H   H756      1.0  0.48633  0.92809  0.90567  1.0000
  C   C759      1.0  0.26727  0.49948  0.79313  1.0000
  Fe  Fe129     1.0  0.78348  0.33919  0.16949  1.0000
  S   S257      1.0  0.82155  0.32033  0.16167  1.0000
  S   S258      1.0  0.74620  0.32433  0.17317  1.0000
  Fe  Fe130     1.0  0.80423  0.38467  0.17655  1.0000
  S   S259      1.0  0.84355  0.36864  0.16978  1.0000
  S   S260      1.0  0.79259  0.42119  0.18613  1.0000
  Fe  Fe131     1.0  0.82841  0.35810  0.15059  1.0000
  S   S261      1.0  0.84934  0.37184  0.12904  1.0000
  Fe  Fe132     1.0  0.83345  0.33259  0.18145  1.0000
  S   S262      1.0  0.85903  0.30504  0.19502  1.0000
  S   S263      1.0  0.78929  0.37622  0.15684  1.0000
  S   S264      1.0  0.79522  0.34928  0.18987  1.0000
  Fe  Fe133     1.0  0.67702  0.21016  0.16371  1.0000
  S   S265      1.0  0.68594  0.16883  0.16980  1.0000
  S   S266      1.0  0.71149  0.22859  0.15505  1.0000
  Fe  Fe134     1.0  0.62082  0.20804  0.16822  1.0000
  S   S267      1.0  0.62645  0.16726  0.17474  1.0000
  S   S268      1.0  0.58155  0.22854  0.16675  1.0000
  Fe  Fe135     1.0  0.65533  0.17412  0.18805  1.0000
  S   S269      1.0  0.65319  0.15197  0.21045  1.0000
  Fe  Fe136     1.0  0.65637  0.16588  0.15594  1.0000
  S   S270      1.0  0.65803  0.13496  0.14200  1.0000
  S   S271      1.0  0.64768  0.21561  0.18293  1.0000
  S   S272      1.0  0.64939  0.20647  0.14850  1.0000
  Fe  Fe137     1.0  0.66455  0.08965  0.03544  1.0000
  S   S273      1.0  0.63130  0.07029  0.04030  1.0000
  S   S274      1.0  0.68812  0.08122  0.01448  1.0000
  Fe  Fe138     1.0  0.64986  0.11833  0.06183  1.0000
  S   S275      1.0  0.61466  0.10181  0.06847  1.0000
  S   S276      1.0  0.65854  0.14886  0.07351  1.0000
  Fe  Fe139     1.0  0.63830  0.06622  0.06353  1.0000
  S   S277      1.0  0.62922  0.03078  0.07640  1.0000
  Fe  Fe140     1.0  0.61043  0.10711  0.04472  1.0000
  S   S278      1.0  0.57423  0.11883  0.03552  1.0000
  S   S279      1.0  0.67429  0.08200  0.05854  1.0000
  S   S280      1.0  0.64322  0.12725  0.03822  1.0000
  Fe  Fe141     1.0  0.89698  0.40816  0.04643  1.0000
  S   S281      1.0  0.86760  0.38679  0.04280  1.0000
  S   S282      1.0  0.88334  0.44096  0.05845  1.0000
  Fe  Fe142     1.0  0.93837  0.37312  0.03190  1.0000
  S   S283      1.0  0.91219  0.34806  0.02781  1.0000
  C   C760      1.0  0.54705  0.09581  0.07314  1.0000
  Fe  Fe143     1.0  0.88839  0.38358  0.02054  1.0000
  S   S284      1.0  0.87081  0.39594  0.99969  1.0000
  Fe  Fe144     1.0  0.89419  0.35398  0.05063  1.0000
  S   S285      1.0  0.87933  0.32687  0.06896  1.0000
  S   S286      1.0  0.91541  0.40827  0.02364  1.0000
  S   S287      1.0  0.92292  0.37572  0.05523  1.0000
  C   C761      1.0  0.90807  0.45407  0.06269  1.0000
  H   H757      1.0  0.56052  0.03266  0.04940  1.0000
  H   H758      1.0  0.93666  0.42912  0.05178  1.0000
  C   C762      1.0  0.51292  0.11942  0.06033  1.0000
  H   H759      1.0  0.71918  0.18157  0.14357  1.0000
  H   H760      1.0  0.60384  0.16433  0.99416  1.0000
  C   C763      1.0  0.92172  0.33233  0.10553  1.0000
  H   H761      1.0  0.71270  0.20931  0.09877  1.0000
  C   C764      1.0  0.55952  0.09300  0.03498  1.0000
  C   C765      1.0  0.56737  0.07021  0.04283  1.0000
  C   C766      1.0  0.53910  0.09542  0.02715  1.0000
  H   H762      1.0  0.58235  0.06838  0.04944  1.0000
  H   H763      1.0  0.53298  0.11296  0.02101  1.0000
  C   C767      1.0  0.89856  0.47413  0.98164  1.0000
  C   C768      1.0  0.94417  0.36714  0.09837  1.0000
  C   C769      1.0  0.58483  0.20551  0.13285  1.0000
  H   H764      1.0  0.67242  0.02477  0.05529  1.0000
  H   H765      1.0  0.56431  0.00719  0.01969  1.0000
  H   H766      1.0  0.92592  0.29785  0.07866  1.0000
  C   C770      1.0  0.53804  0.17457  0.16815  1.0000
  C   C771      1.0  0.55857  0.18676  0.16841  1.0000
  C   C772      1.0  0.55585  0.21261  0.16677  1.0000
  C   C773      1.0  0.53217  0.22611  0.16511  1.0000
  H   H767      1.0  0.55192  0.23154  0.12919  1.0000
  H   H768      1.0  0.54048  0.15456  0.16925  1.0000
  H   H769      1.0  0.57649  0.17607  0.16978  1.0000
  H   H770      1.0  0.52980  0.24613  0.16388  1.0000
  C   C774      1.0  0.65506  0.13995  0.12321  1.0000
  C   C775      1.0  0.65354  0.11961  0.11599  1.0000
  C   C776      1.0  0.65351  0.12234  0.10079  1.0000
  C   C777      1.0  0.65525  0.14542  0.09271  1.0000
  C   C778      1.0  0.65595  0.16593  0.09999  1.0000
  C   C779      1.0  0.65570  0.16326  0.11521  1.0000
  H   H771      1.0  0.65306  0.10149  0.12211  1.0000
  H   H772      1.0  0.65301  0.10641  0.09528  1.0000
  H   H773      1.0  0.65719  0.18386  0.09377  1.0000
  H   H774      1.0  0.65699  0.17904  0.12065  1.0000
  H   H775      1.0  0.70101  0.06868  0.98506  1.0000
  C   C780      1.0  0.94121  0.39238  0.98231  1.0000
  C   C781      1.0  0.90298  0.47466  0.07039  1.0000
  C   C782      1.0  0.71631  0.12506  0.11192  1.0000
  C   C783      1.0  0.92729  0.35508  0.10824  1.0000
  H   H776      1.0  0.54317  0.15480  0.13463  1.0000
  C   C784      1.0  0.83150  0.49028  0.17324  1.0000
  C   C785      1.0  0.80696  0.44797  0.18003  1.0000
  C   C786      1.0  0.82972  0.44678  0.17120  1.0000
  C   C787      1.0  0.84194  0.46782  0.16786  1.0000
  H   H777      1.0  0.83820  0.42948  0.16724  1.0000
  H   H778      1.0  0.85983  0.46654  0.16132  1.0000
  C   C788      1.0  0.85744  0.35813  0.11275  1.0000
  C   C789      1.0  0.86947  0.37176  0.10086  1.0000
  C   C790      1.0  0.87566  0.36246  0.08740  1.0000
  C   C791      1.0  0.87039  0.33912  0.08572  1.0000
  C   C792      1.0  0.85850  0.32527  0.09765  1.0000
  C   C793      1.0  0.85189  0.33480  0.11114  1.0000
  H   H779      1.0  0.87390  0.38976  0.10203  1.0000
  H   H780      1.0  0.88449  0.37348  0.07834  1.0000
  H   H781      1.0  0.85430  0.30719  0.09642  1.0000
  H   H782      1.0  0.84253  0.32418  0.12024  1.0000
  C   C794      1.0  0.73678  0.29820  0.16737  1.0000
  C   C795      1.0  0.75283  0.28227  0.15872  1.0000
  C   C796      1.0  0.74476  0.26108  0.15505  1.0000
  C   C797      1.0  0.72071  0.25543  0.16010  1.0000
  C   C798      1.0  0.70471  0.27133  0.16879  1.0000
  C   C799      1.0  0.71265  0.29270  0.17226  1.0000
  H   H783      1.0  0.77143  0.28625  0.15486  1.0000
  H   H784      1.0  0.75725  0.24896  0.14827  1.0000
  H   H785      1.0  0.68610  0.26739  0.17263  1.0000
  H   H786      1.0  0.69997  0.30504  0.17883  1.0000
  C   C800      1.0  0.94681  0.47860  0.06718  1.0000
  H   H787      1.0  0.75503  0.25333  0.18756  1.0000
  N   N64       1.0  0.66608  0.14635  0.99067  1.0000
  C   C801      1.0  0.88086  0.37956  0.98449  1.0000
  C   C802      1.0  0.95547  0.35625  0.08604  1.0000
  C   C803      1.0  0.76713  0.26277  0.19246  1.0000
  C   C804      1.0  0.71727  0.15445  0.12923  1.0000
  C   C805      1.0  0.80833  0.49173  0.18164  1.0000
  H   H788      1.0  0.90166  0.34851  0.99623  1.0000
  C   C806      1.0  0.93266  0.44501  0.05778  1.0000
  H   H789      1.0  0.63636  0.09913  0.01170  1.0000
  C   C807      1.0  0.67032  0.08340  0.99987  1.0000
  C   C808      1.0  0.64508  0.09297  0.00149  1.0000
  S   S288      1.0  0.51587  0.02865  0.03763  1.0000
  C   C809      1.0  0.62239  0.15849  0.98899  1.0000
  C   C810      1.0  0.59110  0.03260  0.01453  1.0000
  H   H790      1.0  0.82500  0.38780  0.20532  1.0000
  C   C811      1.0  0.94936  0.33354  0.08365  1.0000
  H   H791      1.0  0.69566  0.15991  0.99808  1.0000
  H   H792      1.0  0.57648  0.07322  0.08430  1.0000
  C   C812      1.0  0.68727  0.14262  0.99916  1.0000
  H   H793      1.0  0.57907  0.13007  0.21921  1.0000
  S   S289      1.0  0.97810  0.36957  0.02187  1.0000
  H   H794      1.0  0.70163  0.12736  0.99552  1.0000
  H   H795      1.0  0.96326  0.36213  0.99396  1.0000
  H   H796      1.0  0.85683  0.38363  0.19783  1.0000
  H   H797      1.0  0.87360  0.44915  0.99263  1.0000
  H   H798      1.0  0.69585  0.17750  0.21115  1.0000
  C   C813      1.0  0.51154  0.21388  0.16477  1.0000
  C   C814      1.0  0.53373  0.05276  0.03562  1.0000
  C   C815      1.0  0.92647  0.29825  0.09050  1.0000
  N   N65       1.0  0.82752  0.41817  0.08971  1.0000
  C   C816      1.0  0.81535  0.40778  0.10227  1.0000
  C   C817      1.0  0.82969  0.40751  0.07712  1.0000
  C   C818      1.0  0.80473  0.38630  0.10237  1.0000
  C   C819      1.0  0.81947  0.38590  0.07685  1.0000
  C   C820      1.0  0.80697  0.37524  0.08959  1.0000
  C   C821      1.0  0.83992  0.43978  0.08989  1.0000
  H   H799      1.0  0.81463  0.41543  0.11245  1.0000
  H   H800      1.0  0.83997  0.41536  0.06728  1.0000
  H   H801      1.0  0.79589  0.37768  0.11248  1.0000
  H   H802      1.0  0.82197  0.37704  0.06696  1.0000
  H   H803      1.0  0.79966  0.35805  0.08965  1.0000
  H   H804      1.0  0.86021  0.43377  0.09015  1.0000
  H   H805      1.0  0.83733  0.45303  0.07991  1.0000
  H   H806      1.0  0.83252  0.44978  0.09946  1.0000
  H   H807      1.0  0.94847  0.38493  0.10022  1.0000
  H   H808      1.0  0.94058  0.28300  0.09454  1.0000
  H   H809      1.0  0.80033  0.24615  0.18017  1.0000
  H   H810      1.0  0.72044  0.27125  0.20195  1.0000
  C   C822      1.0  0.89622  0.35673  0.98574  1.0000
  N   N66       1.0  0.57959  0.16257  0.13624  1.0000
  H   H811      1.0  0.59643  0.21970  0.13290  1.0000
  C   C823      1.0  0.66342  0.00841  0.05637  1.0000
  C   C824      1.0  0.86053  0.30619  0.21374  1.0000
  H   H812      1.0  0.70658  0.12483  0.10223  1.0000
  H   H813      1.0  0.90716  0.47087  0.03213  1.0000
  H   H814      1.0  0.77853  0.47172  0.19185  1.0000
  N   N67       1.0  0.93237  0.32212  0.09321  1.0000
  C   C825      1.0  0.71435  0.16973  0.10437  1.0000
  C   C826      1.0  0.77264  0.29149  0.20811  1.0000
  C   C827      1.0  0.82471  0.43177  0.21399  1.0000
  C   C828      1.0  0.55983  0.21216  0.13076  1.0000
  H   H815      1.0  0.51713  0.03626  0.07645  1.0000
  H   H816      1.0  0.97098  0.45094  0.05574  1.0000
  C   C829      1.0  0.95209  0.45728  0.06007  1.0000
  C   C830      1.0  0.54486  0.19377  0.13125  1.0000
  H   H817      1.0  0.66298  0.02948  0.02334  1.0000
  C   C831      1.0  0.55471  0.05001  0.04300  1.0000
  C   C832      1.0  0.59448  0.18046  0.13554  1.0000
  C   C833      1.0  0.55514  0.16890  0.13393  1.0000
  H   H818      1.0  0.70664  0.11382  0.12112  1.0000
  C   C834      1.0  0.68144  0.07603  0.98641  1.0000
  C   C835      1.0  0.80846  0.27094  0.19428  1.0000
  C   C836      1.0  0.79618  0.47062  0.18505  1.0000
  H   H819      1.0  0.84915  0.38113  0.21735  1.0000
  C   C837      1.0  0.71760  0.17838  0.13255  1.0000
  H   H820      1.0  0.57568  0.12463  0.14341  1.0000
  H   H821      1.0  0.71291  0.16653  0.09331  1.0000
  H   H822      1.0  0.71806  0.13919  0.13792  1.0000
  H   H823      1.0  0.83359  0.33886  0.21556  1.0000
  C   C838      1.0  0.55438  0.17069  0.20757  1.0000
  H   H824      1.0  0.52520  0.19873  0.13008  1.0000
  C   C839      1.0  0.52568  0.05287  0.07572  1.0000
  C   C840      1.0  0.88611  0.46195  0.99388  1.0000
  C   C841      1.0  0.59023  0.13646  0.13904  1.0000
  H   H825      1.0  0.60958  0.18677  0.21121  1.0000
  N   N68       1.0  0.63378  0.01499  0.01611  1.0000
  H   H826      1.0  0.73587  0.11622  0.10979  1.0000
  N   N69       1.0  0.75741  0.27909  0.20227  1.0000
  C   C842      1.0  0.55887  0.07377  0.08010  1.0000
  C   C843      1.0  0.87644  0.28781  0.22130  1.0000
  C   C844      1.0  0.86425  0.42847  0.19992  1.0000
  H   H827      1.0  0.54429  0.23275  0.19737  1.0000
  N   N70       1.0  0.57836  0.16836  0.21073  1.0000
  C   C845      1.0  0.73049  0.28409  0.20633  1.0000
  H   H828      1.0  0.60364  0.13396  0.14726  1.0000
  H   H829      1.0  0.52275  0.19568  0.20021  1.0000
  H   H830      1.0  0.71575  0.21691  0.12416  1.0000
  H   H831      1.0  0.55570  0.11245  0.07196  1.0000
  C   C846      1.0  0.69410  0.16444  0.22087  1.0000
  C   C847      1.0  0.57822  0.21214  0.20441  1.0000
  H   H832      1.0  0.84498  0.48787  0.20694  1.0000
  H   H833      1.0  0.95809  0.32522  0.07402  1.0000
  C   C848      1.0  0.58386  0.00927  0.01862  1.0000
  C   C849      1.0  0.92237  0.48684  0.07268  1.0000
  H   H834      1.0  0.72607  0.28206  0.21835  1.0000
  H   H835      1.0  0.88034  0.46238  0.19409  1.0000
  C   C850      1.0  0.55362  0.21475  0.20147  1.0000
  C   C851      1.0  0.71584  0.19825  0.12158  1.0000
  C   C852      1.0  0.65999  0.01841  0.01479  1.0000
  N   N71       1.0  0.90566  0.48241  0.00943  1.0000
  H   H836      1.0  0.55746  0.03493  0.08643  1.0000
  H   H837      1.0  0.90773  0.29503  0.09589  1.0000
  H   H838      1.0  0.63982  0.15817  0.00827  1.0000
  C   C853      1.0  0.52624  0.07530  0.02745  1.0000
  H   H839      1.0  0.91814  0.36345  0.11780  1.0000
  C   C854      1.0  0.71417  0.19396  0.10738  1.0000
  C   C855      1.0  0.63100  0.09510  0.98979  1.0000
  N   N72       1.0  0.71558  0.15041  0.11529  1.0000
  C   C856      1.0  0.64281  0.15480  0.99695  1.0000
  H   H840      1.0  0.87970  0.45725  0.01724  1.0000
  H   H841      1.0  0.60027  0.12991  0.12881  1.0000
  C   C857      1.0  0.86492  0.45374  0.19999  1.0000
  H   H842      1.0  0.87962  0.41752  0.19410  1.0000
  H   H843      1.0  0.90829  0.32328  0.11316  1.0000
  H   H844      1.0  0.61381  0.17542  0.13741  1.0000
  H   H845      1.0  0.96869  0.36544  0.07830  1.0000
  H   H846      1.0  0.68150  0.13694  0.01087  1.0000
  H   H847      1.0  0.62162  0.05338  0.01056  1.0000
  H   H848      1.0  0.61152  0.10279  0.99115  1.0000
  H   H849      1.0  0.72341  0.30329  0.20181  1.0000
  C   C858      1.0  0.95748  0.37020  0.98345  1.0000
  H   H850      1.0  0.88400  0.48168  0.07419  1.0000
  C   C859      1.0  0.54815  0.05218  0.08132  1.0000
  C   C860      1.0  0.51450  0.18800  0.16614  1.0000
  H   H851      1.0  0.82838  0.26810  0.19105  1.0000
  C   C861      1.0  0.84506  0.46808  0.20725  1.0000
  C   C862      1.0  0.54157  0.19393  0.20303  1.0000
  H   H852      1.0  0.80899  0.46819  0.21967  1.0000
  C   C863      1.0  0.88971  0.46653  0.00778  1.0000
  H   H853      1.0  0.54506  0.15454  0.20838  1.0000
  C   C864      1.0  0.64194  0.00649  0.06615  1.0000
  C   C865      1.0  0.99429  0.34884  0.04807  1.0000
  H   H854      1.0  0.97583  0.34407  0.05114  1.0000
  H   H855      1.0  0.58803  0.22809  0.20267  1.0000
  C   C866      1.0  0.84384  0.39130  0.20684  1.0000
  C   C867      1.0  0.84616  0.32484  0.22122  1.0000
  H   H856      1.0  0.93406  0.40141  0.99194  1.0000
  H   H857      1.0  0.57730  0.04873  0.01242  1.0000
  C   C868      1.0  0.79838  0.28734  0.20437  1.0000
  C   C869      1.0  0.67517  0.14962  0.22304  1.0000
  H   H858      1.0  0.80857  0.42348  0.21911  1.0000
  N   N73       1.0  0.84419  0.41788  0.20675  1.0000
  C   C870      1.0  0.79276  0.25860  0.18823  1.0000
  C   C871      1.0  0.61624  0.03515  0.01346  1.0000
  H   H859      1.0  0.88761  0.27330  0.21560  1.0000
  H   H860      1.0  0.76490  0.30495  0.21555  1.0000
  C   C872      1.0  0.82485  0.45705  0.21436  1.0000
  C   C873      1.0  0.59037  0.18867  0.20908  1.0000
  H   H861      1.0  0.66558  0.02840  0.00397  1.0000
  H   H862      1.0  0.81041  0.29719  0.20903  1.0000
  H   H863      1.0  0.60475  0.13726  0.20581  1.0000
  C   C874      1.0  0.00020  0.36141  0.03429  1.0000
  C   C875      1.0  0.91785  0.49451  0.99749  1.0000
  H   H864      1.0  0.60309  0.14480  0.22410  1.0000
  C   C876      1.0  0.91452  0.49054  0.98342  1.0000
  H   H865      1.0  0.51051  0.07727  0.02134  1.0000
  N   N74       1.0  0.52529  0.09618  0.06742  1.0000
  H   H866      1.0  0.67253  0.00047  0.01600  1.0000
  C   C877      1.0  0.59183  0.14388  0.21517  1.0000
  C   C878      1.0  0.51451  0.07515  0.06874  1.0000
  C   C879      1.0  0.90856  0.48755  0.02407  1.0000
  H   H867      1.0  0.52668  0.13146  0.05482  1.0000
  H   H868      1.0  0.92696  0.49331  0.02445  1.0000
  S   S290      1.0  0.96993  0.49694  0.06749  1.0000
  Fe  Fe145     1.0  0.73107  0.11473  0.27684  1.0000
  S   S291      1.0  0.76292  0.08367  0.27564  1.0000
  S   S292      1.0  0.72935  0.14441  0.25729  1.0000
  Fe  Fe146     1.0  0.71650  0.09877  0.30963  1.0000
  S   S293      1.0  0.74827  0.06750  0.31059  1.0000
  S   S294      1.0  0.68513  0.10642  0.32784  1.0000
  Fe  Fe147     1.0  0.77097  0.09507  0.29665  1.0000
  S   S295      1.0  0.81098  0.10105  0.29788  1.0000
  Fe  Fe148     1.0  0.73729  0.05940  0.28948  1.0000
  C   C880      1.0  0.95314  0.46616  0.42941  1.0000
  S   S296      1.0  0.73989  0.12678  0.29740  1.0000
  S   S297      1.0  0.70463  0.08995  0.28902  1.0000
  Fe  Fe149     1.0  0.93328  0.24010  0.28241  1.0000
  S   S298      1.0  0.92191  0.27985  0.28587  1.0000
  S   S299      1.0  0.97443  0.23100  0.27413  1.0000
  Fe  Fe150     1.0  0.88059  0.22700  0.29334  1.0000
  S   S300      1.0  0.86740  0.26603  0.29869  1.0000
  S   S301      1.0  0.84666  0.20623  0.29749  1.0000
  Fe  Fe151     1.0  0.88688  0.27740  0.27656  1.0000
  S   S302      1.0  0.86660  0.30877  0.26219  1.0000
  Fe  Fe152     1.0  0.90380  0.26469  0.30745  1.0000
  S   S303      1.0  0.91858  0.27471  0.32718  1.0000
  S   S304      1.0  0.89947  0.23872  0.27101  1.0000
  S   S305      1.0  0.91557  0.22462  0.30417  1.0000
  Fe  Fe153     1.0  0.89603  0.37962  0.41672  1.0000
  S   S306      1.0  0.93451  0.38828  0.41039  1.0000
  S   S307      1.0  0.87781  0.38990  0.43867  1.0000
  Fe  Fe154     1.0  0.89416  0.36118  0.38740  1.0000
  S   S308      1.0  0.93278  0.36872  0.37876  1.0000
  S   S309      1.0  0.86917  0.34712  0.37387  1.0000
  Fe  Fe155     1.0  0.94183  0.35226  0.40103  1.0000
  C   C881      1.0  0.59812  0.01057  0.40731  1.0000
  Fe  Fe156     1.0  0.92184  0.40410  0.38890  1.0000
  S   S310      1.0  0.93468  0.43992  0.37877  1.0000
  S   S311      1.0  0.90415  0.34182  0.40918  1.0000
  S   S312      1.0  0.88226  0.39829  0.39576  1.0000
  Fe  Fe157     1.0  0.65128  0.07139  0.41109  1.0000
  S   S313      1.0  0.61106  0.07707  0.40758  1.0000
  S   S314      1.0  0.68460  0.06285  0.39443  1.0000
  Fe  Fe158     1.0  0.64006  0.07644  0.44388  1.0000
  S   S315      1.0  0.59891  0.08318  0.44309  1.0000
  H   H869      1.0  0.70841  0.07565  0.47223  1.0000
  Fe  Fe159     1.0  0.60536  0.05294  0.42880  1.0000
  S   S316      1.0  0.57936  0.02467  0.43405  1.0000
  Fe  Fe160     1.0  0.60723  0.10685  0.42208  1.0000
  S   S317      1.0  0.58171  0.14145  0.41568  1.0000
  S   S318      1.0  0.64588  0.04408  0.43101  1.0000
  S   S319      1.0  0.64823  0.10348  0.42406  1.0000
  H   H870      1.0  0.88941  0.47502  0.42177  1.0000
  C   C882      1.0  0.85090  0.33762  0.44683  1.0000
  C   C883      1.0  0.84681  0.32773  0.42261  1.0000
  C   C884      1.0  0.79490  0.13570  0.26390  1.0000
  C   C885      1.0  0.50524  0.13016  0.40526  1.0000
  C   C886      1.0  0.91670  0.36149  0.45156  1.0000
  H   H871      1.0  0.60498  0.02812  0.40492  1.0000
  C   C887      1.0  0.55253  0.13645  0.41161  1.0000
  C   C888      1.0  0.54602  0.11261  0.41252  1.0000
  C   C889      1.0  0.53542  0.15697  0.40742  1.0000
  H   H872      1.0  0.55902  0.09659  0.41583  1.0000
  H   H873      1.0  0.54025  0.17542  0.40668  1.0000
  C   C890      1.0  0.93075  0.35314  0.46325  1.0000
  C   C891      1.0  0.92619  0.46290  0.39046  1.0000
  H   H874      1.0  0.97701  0.23180  0.30516  1.0000
  C   C892      1.0  0.93331  0.43665  0.44679  1.0000
  H   H875      1.0  0.90121  0.44237  0.40534  1.0000
  H   H876      1.0  0.98221  0.37725  0.39140  1.0000
  H   H877      1.0  0.82833  0.38201  0.43612  1.0000
  H   H878      1.0  0.92185  0.35366  0.44138  1.0000
  C   C893      1.0  0.87823  0.28816  0.23618  1.0000
  H   H879      1.0  0.87157  0.33498  0.44577  1.0000
  C   C894      1.0  0.96538  0.42317  0.42805  1.0000
  H   H880      1.0  0.52675  0.03481  0.45622  1.0000
  H   H881      1.0  0.97666  0.40818  0.42278  1.0000
  C   C895      1.0  0.67310  0.13278  0.23574  1.0000
  C   C896      1.0  0.88324  0.32796  0.36043  1.0000
  C   C897      1.0  0.86938  0.32353  0.34968  1.0000
  C   C898      1.0  0.88008  0.30781  0.33910  1.0000
  C   C899      1.0  0.90459  0.29608  0.33941  1.0000
  C   C900      1.0  0.91834  0.30038  0.35022  1.0000
  C   C901      1.0  0.90782  0.31641  0.36060  1.0000
  H   H882      1.0  0.85035  0.33245  0.34948  1.0000
  H   H883      1.0  0.86932  0.30466  0.33081  1.0000
  H   H884      1.0  0.93721  0.29116  0.35067  1.0000
  H   H885      1.0  0.91859  0.31952  0.36890  1.0000
  S   S320      1.0  0.65871  0.06623  0.46454  1.0000
  H   H886      1.0  0.78646  0.13505  0.25381  1.0000
  H   H887      1.0  0.84445  0.32111  0.40054  1.0000
  H   H888      1.0  0.62968  0.13214  0.39710  1.0000
  H   H889      1.0  0.94661  0.33883  0.46201  1.0000
  H   H890      1.0  0.81663  0.39452  0.41125  1.0000
  H   H891      1.0  0.67572  0.12589  0.39291  1.0000
  C   C902      1.0  0.68422  0.07252  0.37558  1.0000
  C   C903      1.0  0.66198  0.08096  0.36953  1.0000
  C   C904      1.0  0.66251  0.08999  0.35465  1.0000
  C   C905      1.0  0.68521  0.09081  0.34571  1.0000
  C   C906      1.0  0.70738  0.08143  0.35164  1.0000
  C   C907      1.0  0.70685  0.07227  0.36651  1.0000
  H   H892      1.0  0.64442  0.08090  0.37635  1.0000
  H   H893      1.0  0.64528  0.09701  0.35010  1.0000
  H   H894      1.0  0.72497  0.08203  0.34488  1.0000
  H   H895      1.0  0.72414  0.06562  0.37108  1.0000
  C   C908      1.0  0.82080  0.13026  0.29813  1.0000
  C   C909      1.0  0.84633  0.13230  0.29571  1.0000
  C   C910      1.0  0.85477  0.15528  0.29557  1.0000
  C   C911      1.0  0.83769  0.17644  0.29803  1.0000
  C   C912      1.0  0.81222  0.17430  0.30065  1.0000
  C   C913      1.0  0.80379  0.15146  0.30060  1.0000
  H   H896      1.0  0.85967  0.11601  0.29383  1.0000
  H   H897      1.0  0.87442  0.15658  0.29352  1.0000
  H   H898      1.0  0.79881  0.19052  0.30256  1.0000
  H   H899      1.0  0.78414  0.15022  0.30259  1.0000
  C   C914      1.0  0.70854  0.14572  0.24415  1.0000
  C   C915      1.0  0.68978  0.13071  0.24622  1.0000
  H   H900      1.0  0.68796  0.11771  0.25596  1.0000
  H   H901      1.0  0.62596  0.15455  0.35186  1.0000
  H   H902      1.0  0.58910  0.14919  0.36730  1.0000
  C   C916      1.0  0.84815  0.32536  0.23607  1.0000
  C   C917      1.0  0.86422  0.30705  0.24362  1.0000
  H   H903      1.0  0.95463  0.48530  0.42524  1.0000
  H   H904      1.0  0.68518  0.00577  0.42145  1.0000
  C   C918      1.0  0.51197  0.15384  0.40421  1.0000
  H   H905      1.0  0.83718  0.33995  0.24177  1.0000
  H   H906      1.0  0.89075  0.27405  0.24183  1.0000
  C   C919      1.0  0.78620  0.20333  0.26737  1.0000
  C   C920      1.0  0.63670  0.14887  0.36099  1.0000
  C   C921      1.0  0.83132  0.36833  0.42850  1.0000
  C   C922      1.0  0.94841  0.41751  0.44016  1.0000
  H   H907      1.0  0.82476  0.36391  0.39329  1.0000
  H   H908      1.0  0.59217  0.12900  0.38394  1.0000
  H   H909      1.0  0.84414  0.32024  0.45211  1.0000
  H   H910      1.0  0.81159  0.12137  0.26450  1.0000
  C   C923      1.0  0.89597  0.37967  0.45314  1.0000
  H   H911      1.0  0.91963  0.43242  0.45596  1.0000
  C   C924      1.0  0.82916  0.35841  0.40438  1.0000
  C   C925      1.0  0.58450  0.00446  0.42073  1.0000
  C   C926      1.0  0.84020  0.33430  0.40848  1.0000
  H   H912      1.0  0.67179  0.14932  0.34732  1.0000
  C   C927      1.0  0.82463  0.37556  0.41444  1.0000
  C   C928      1.0  0.97515  0.29585  0.30365  1.0000
  C   C929      1.0  0.90258  0.47786  0.41218  1.0000
  H   H913      1.0  0.85618  0.30920  0.42555  1.0000
  H   H914      1.0  0.97825  0.44527  0.40022  1.0000
  C   C930      1.0  0.81076  0.20781  0.26628  1.0000
  N   N75       1.0  0.62518  0.14360  0.37477  1.0000
  H   H915      1.0  0.59078  0.16186  0.38394  1.0000
  C   C931      1.0  0.90926  0.45935  0.40289  1.0000
  H   H916      1.0  0.72507  0.17424  0.22975  1.0000
  S   S321      1.0  0.97744  0.32833  0.40551  1.0000
  C   C932      1.0  0.53237  0.08160  0.44840  1.0000
  C   C933      1.0  0.66489  0.13296  0.38393  1.0000
  C   C934      1.0  0.51337  0.04433  0.44859  1.0000
  C   C935      1.0  0.93666  0.48487  0.38743  1.0000
  H   H917      1.0  0.84426  0.35221  0.45415  1.0000
  N   N76       1.0  0.88979  0.21875  0.34216  1.0000
  C   C936      1.0  0.88502  0.19828  0.33682  1.0000
  C   C937      1.0  0.87253  0.23964  0.34220  1.0000
  C   C938      1.0  0.86236  0.19829  0.33153  1.0000
  C   C939      1.0  0.84979  0.24038  0.33684  1.0000
  C   C940      1.0  0.84471  0.21953  0.33150  1.0000
  C   C941      1.0  0.91410  0.21855  0.34708  1.0000
  H   H918      1.0  0.89897  0.18199  0.33635  1.0000
  H   H919      1.0  0.87643  0.25603  0.34617  1.0000
  H   H920      1.0  0.85878  0.18226  0.32698  1.0000
  H   H921      1.0  0.83646  0.25720  0.33651  1.0000
  H   H922      1.0  0.82743  0.21999  0.32693  1.0000
  H   H923      1.0  0.91410  0.23435  0.35333  1.0000
  H   H924      1.0  0.91946  0.20117  0.35418  1.0000
  H   H925      1.0  0.92836  0.22030  0.33747  1.0000
  N   N77       1.0  0.96736  0.44724  0.42272  1.0000
  C   C942      1.0  0.66266  0.14624  0.35836  1.0000
  C   C943      1.0  0.52232  0.10946  0.40942  1.0000
  N   N78       1.0  0.84242  0.34470  0.43239  1.0000
  H   H926      1.0  0.83990  0.14980  0.26198  1.0000
  N   N79       1.0  0.51148  0.07128  0.44794  1.0000
  C   C944      1.0  0.88947  0.38960  0.46643  1.0000
  S   S322      1.0  0.72500  0.02348  0.28524  1.0000
  H   H927      1.0  0.70054  0.01024  0.39530  1.0000
  H   H928      1.0  0.87339  0.40364  0.46772  1.0000
  C   C945      1.0  0.63889  0.13611  0.38620  1.0000
  H   H929      1.0  0.78146  0.13069  0.27340  1.0000
  C   C946      1.0  0.67679  0.13798  0.36990  1.0000
  H   H930      1.0  0.54804  0.11555  0.44720  1.0000
  H   H931      1.0  0.77097  0.21811  0.26925  1.0000
  H   H932      1.0  0.76229  0.17593  0.26731  1.0000
  C   C947      1.0  0.93576  0.46117  0.44145  1.0000
  H   H933      1.0  0.69692  0.13466  0.36787  1.0000
  H   H934      1.0  0.94995  0.48754  0.37788  1.0000
  H   H935      1.0  0.54998  0.06983  0.44954  1.0000
  H   H936      1.0  0.81486  0.22600  0.26753  1.0000
  H   H937      1.0  0.51735  0.09108  0.41019  1.0000
  H   H938      1.0  0.69884  0.00304  0.31319  1.0000
  H   H939      1.0  0.98474  0.47264  0.40653  1.0000
  C   C948      1.0  0.59800  0.14611  0.37753  1.0000
  C   C949      1.0  0.83016  0.18855  0.26401  1.0000
  C   C950      1.0  0.99882  0.23425  0.28421  1.0000
  H   H940      1.0  0.84928  0.19174  0.26359  1.0000
  C   C951      1.0  0.98651  0.29779  0.27727  1.0000
  N   N80       1.0  0.80058  0.16059  0.26446  1.0000
  C   C952      1.0  0.82472  0.16487  0.26317  1.0000
  C   C953      1.0  0.78142  0.17947  0.26634  1.0000
  H   H941      1.0  0.50803  0.14248  0.44359  1.0000
  H   H942      1.0  0.95606  0.29528  0.30206  1.0000
  C   C954      1.0  0.99531  0.37245  0.39937  1.0000
  C   C955      1.0  0.53135  0.10735  0.44713  1.0000
  H   H943      1.0  0.52005  0.03859  0.43762  1.0000
  H   H944      1.0  0.63951  0.11779  0.46855  1.0000
  H   H945      1.0  0.96667  0.29353  0.32697  1.0000
  C   C956      1.0  0.50887  0.12250  0.44508  1.0000
  H   H946      1.0  0.97416  0.28380  0.27694  1.0000
  C   C957      1.0  0.99700  0.34927  0.40773  1.0000
  H   H947      1.0  0.65853  0.12124  0.23751  1.0000
  C   C958      1.0  0.98434  0.45248  0.40953  1.0000
  H   H948      1.0  0.94664  0.39839  0.44419  1.0000
  H   H949      1.0  0.92390  0.47632  0.44633  1.0000
  C   C959      1.0  0.71062  0.16257  0.23144  1.0000
  N   N81       1.0  0.99321  0.29696  0.29203  1.0000
  H   H950      1.0  0.97672  0.31641  0.27367  1.0000
  C   C960      1.0  0.99512  0.23396  0.29935  1.0000
  H   H951      1.0  0.77683  0.99995  0.28651  1.0000
  C   C961      1.0  0.98106  0.29492  0.31783  1.0000
  C   C962      1.0  0.92432  0.36300  0.47656  1.0000
  H   H952      1.0  0.73057  0.99894  0.31627  1.0000
  H   H953      1.0  0.69457  0.11758  0.47711  1.0000
  Fe  Fe161     1.0  0.94678  0.35035  0.54475  1.0000
  S   S323      1.0  0.94931  0.38877  0.54916  1.0000
  S   S324      1.0  0.95172  0.31606  0.56116  1.0000
  Fe  Fe162     1.0  0.93855  0.36702  0.51244  1.0000
  S   S325      1.0  0.93922  0.40695  0.51455  1.0000
  S   S326      1.0  0.94241  0.35135  0.49092  1.0000
  Fe  Fe163     1.0  0.97153  0.39269  0.52715  1.0000
  H   H954      1.0  0.72367  0.05362  0.52373  1.0000
  Fe  Fe164     1.0  0.91678  0.39947  0.53624  1.0000
  S   S327      1.0  0.88356  0.42404  0.54566  1.0000
  S   S328      1.0  0.97236  0.35320  0.52393  1.0000
  S   S329      1.0  0.91277  0.36056  0.53306  1.0000
  Fe  Fe165     1.0  0.77445  0.07308  0.67527  1.0000
  S   S330      1.0  0.73697  0.09426  0.68152  1.0000
  S   S331      1.0  0.77808  0.03246  0.68476  1.0000
  Fe  Fe166     1.0  0.79388  0.12004  0.65909  1.0000
  S   S332      1.0  0.75700  0.14372  0.66343  1.0000
  S   S333      1.0  0.82540  0.13932  0.64654  1.0000
  Fe  Fe167     1.0  0.75715  0.12409  0.68612  1.0000
  S   S334      1.0  0.75325  0.14646  0.70513  1.0000
  Fe  Fe168     1.0  0.74046  0.11164  0.65823  1.0000
  S   S335      1.0  0.70630  0.11158  0.64714  1.0000
  S   S336      1.0  0.79470  0.10152  0.68199  1.0000
  S   S337      1.0  0.77724  0.08925  0.65177  1.0000
  Fe  Fe169     1.0  0.91360  0.28853  0.67991  1.0000
  S   S338      1.0  0.92744  0.24787  0.68301  1.0000
  S   S339      1.0  0.90920  0.31321  0.69802  1.0000
  Fe  Fe170     1.0  0.91685  0.28920  0.64676  1.0000
  S   S340      1.0  0.93079  0.24826  0.64754  1.0000
  S   S341      1.0  0.90949  0.31829  0.62738  1.0000
  Fe  Fe171     1.0  0.90154  0.24403  0.66688  1.0000
  S   S342      1.0  0.87595  0.21476  0.67513  1.0000
  Fe  Fe172     1.0  0.95538  0.25547  0.66367  1.0000
  C   C963      1.0  0.72449  0.02012  0.65030  1.0000
  S   S343      1.0  0.88586  0.28465  0.66506  1.0000
  S   S344      1.0  0.94332  0.29637  0.66155  1.0000
  Fe  Fe173     1.0  0.68656  0.09928  0.56799  1.0000
  S   S345      1.0  0.67673  0.06164  0.57668  1.0000
  S   S346      1.0  0.71336  0.11658  0.57843  1.0000
  Fe  Fe174     1.0  0.66062  0.10191  0.54052  1.0000
  S   S347      1.0  0.64893  0.06462  0.54723  1.0000
  S   S348      1.0  0.65058  0.12368  0.51918  1.0000
  Fe  Fe175     1.0  0.63935  0.07673  0.56937  1.0000
  S   S349      1.0  0.60406  0.06459  0.58109  1.0000
  Fe  Fe176     1.0  0.68727  0.05316  0.55372  1.0000
  H   H955      1.0  0.84429  0.48961  0.54681  1.0000
  S   S350      1.0  0.64808  0.11543  0.56243  1.0000
  S   S351      1.0  0.69998  0.08950  0.54535  1.0000
  H   H956      1.0  0.73057  0.05432  0.65715  1.0000
  C   C964      1.0  0.87120  0.38042  0.58222  1.0000
  H   H957      1.0  0.93884  0.26874  0.70880  1.0000
  C   C965      1.0  0.86828  0.34420  0.59977  1.0000
  H   H958      1.0  0.67825  0.03491  0.52661  1.0000
  C   C966      1.0  0.57853  0.07921  0.57214  1.0000
  C   C967      1.0  0.55531  0.07111  0.57588  1.0000
  C   C968      1.0  0.58129  0.09883  0.56113  1.0000
  H   H959      1.0  0.55313  0.05589  0.58437  1.0000
  H   H960      1.0  0.59912  0.10515  0.55812  1.0000
  C   C969      1.0  0.64792  0.10725  0.50465  1.0000
  H   H961      1.0  0.63701  0.14012  0.49026  1.0000
  H   H962      1.0  0.65880  0.07153  0.51606  1.0000
  C   C970      1.0  0.59322  0.06531  0.52343  1.0000
  H   H963      1.0  0.75046  0.07102  0.60692  1.0000
  H   H964      1.0  0.86060  0.38170  0.60525  1.0000
  C   C971      1.0  0.87876  0.47681  0.57217  1.0000
  C   C972      1.0  0.78139  0.00961  0.65976  1.0000
  C   C973      1.0  0.53976  0.03448  0.54255  1.0000
  C   C974      1.0  0.53493  0.08263  0.56861  1.0000
  H   H965      1.0  0.71469  0.09765  0.51341  1.0000
  C   C975      1.0  0.89753  0.49067  0.56587  1.0000
  H   H966      1.0  0.95609  0.30626  0.71187  1.0000
  H   H967      1.0  0.59933  0.01292  0.57706  1.0000
  H   H968      1.0  0.78825  0.02597  0.65391  1.0000
  C   C976      1.0  0.70791  0.11441  0.62799  1.0000
  C   C977      1.0  0.68870  0.10748  0.62162  1.0000
  C   C978      1.0  0.69007  0.10818  0.60642  1.0000
  C   C979      1.0  0.71057  0.11611  0.59750  1.0000
  C   C980      1.0  0.72970  0.12321  0.60387  1.0000
  C   C981      1.0  0.72849  0.12217  0.61908  1.0000
  H   H969      1.0  0.67276  0.10139  0.62847  1.0000
  H   H970      1.0  0.67521  0.10275  0.60159  1.0000
  H   H971      1.0  0.74559  0.12939  0.59701  1.0000
  H   H972      1.0  0.74341  0.12752  0.62390  1.0000
  C   C982      1.0  0.84082  0.15911  0.65460  1.0000
  C   C983      1.0  0.83808  0.15959  0.66967  1.0000
  C   C984      1.0  0.84983  0.17608  0.67571  1.0000
  C   C985      1.0  0.86410  0.19263  0.66680  1.0000
  C   C986      1.0  0.86699  0.19207  0.65172  1.0000
  C   C987      1.0  0.85555  0.17525  0.64568  1.0000
  H   H973      1.0  0.82694  0.14724  0.67669  1.0000
  H   H974      1.0  0.84752  0.17629  0.68739  1.0000
  H   H975      1.0  0.87793  0.20464  0.64473  1.0000
  H   H976      1.0  0.85788  0.17495  0.63401  1.0000
  H   H977      1.0  0.80674  0.22063  0.70558  1.0000
  H   H978      1.0  0.84650  0.00774  0.65976  1.0000
  C   C988      1.0  0.65913  0.00492  0.52411  1.0000
  C   C989      1.0  0.87850  0.30229  0.59250  1.0000
  C   C990      1.0  0.72450  0.00733  0.63840  1.0000
  H   H979      1.0  0.70610  0.12750  0.70707  1.0000
  N   N82       1.0  0.57789  0.04607  0.52964  1.0000
  N   N83       1.0  0.73589  0.04255  0.62215  1.0000
  C   C991      1.0  0.89069  0.44843  0.55392  1.0000
  N   N84       1.0  0.87609  0.32926  0.58898  1.0000
  H   H980      1.0  0.92238  0.45576  0.53849  1.0000
  H   H981      1.0  0.88278  0.29654  0.60391  1.0000
  C   C992      1.0  0.65392  0.08154  0.50588  1.0000
  H   H982      1.0  0.87010  0.28219  0.70705  1.0000
  H   H983      1.0  0.73057  0.05194  0.71389  1.0000
  S   S352      1.0  0.70930  0.01660  0.54914  1.0000
  H   H984      1.0  0.86657  0.48254  0.58159  1.0000
  S   S353      1.0  0.51285  0.11697  0.54815  1.0000
  H   H985      1.0  0.89413  0.29302  0.58539  1.0000
  C   C993      1.0  0.53767  0.10252  0.55776  1.0000
  H   H986      1.0  0.89861  0.38905  0.48835  1.0000
  C   C994      1.0  0.94381  0.31729  0.58005  1.0000
  C   C995      1.0  0.93526  0.33974  0.58566  1.0000
  C   C996      1.0  0.92659  0.33987  0.60053  1.0000
  C   C997      1.0  0.92637  0.31762  0.60990  1.0000
  C   C998      1.0  0.93645  0.29530  0.60447  1.0000
  C   C999      1.0  0.94513  0.29516  0.58957  1.0000
  H   H987      1.0  0.93441  0.35693  0.57848  1.0000
  H   H988      1.0  0.91903  0.35722  0.60470  1.0000
  H   H989      1.0  0.93640  0.27805  0.61158  1.0000
  H   H990      1.0  0.95203  0.27773  0.58533  1.0000
  C   C1000     1.0  0.72100  0.03972  0.50362  1.0000
  C   C1001     1.0  0.86595  0.36998  0.59658  1.0000
  H   H991      1.0  0.58958  0.08115  0.53002  1.0000
  C   C1002     1.0  0.74062  0.05476  0.60726  1.0000
  C   C1003     1.0  0.86928  0.29484  0.71506  1.0000
  H   H992      1.0  0.74134  0.07348  0.63216  1.0000
  H   H993      1.0  0.77068  0.06804  0.70703  1.0000
  C   C1004     1.0  0.95880  0.26814  0.70832  1.0000
  H   H994      1.0  0.51715  0.07622  0.57151  1.0000
  C   C1005     1.0  0.78763  0.20012  0.69367  1.0000
  H   H995      1.0  0.00200  0.30462  0.71087  1.0000
  H   H996      1.0  0.89791  0.34132  0.72233  1.0000
  C   C1006     1.0  0.69117  0.00181  0.54004  1.0000
  C   C1007     1.0  0.76534  0.09012  0.72485  1.0000
  C   C1008     1.0  0.91342  0.48301  0.55375  1.0000
  H   H997      1.0  0.86643  0.47143  0.52509  1.0000
  H   H998      1.0  0.54714  0.07191  0.53705  1.0000
  C   C1009     1.0  0.91030  0.46155  0.54794  1.0000
  C   C1010     1.0  0.56084  0.11065  0.55408  1.0000
  C   C1011     1.0  0.64177  0.12018  0.49127  1.0000
  C   C1012     1.0  0.57214  0.00321  0.53384  1.0000
  C   C1013     1.0  0.67640  0.01573  0.52991  1.0000
  C   C1014     1.0  0.72648  0.14838  0.71790  1.0000
  H   H999      1.0  0.88266  0.37312  0.56011  1.0000
  S   S354      1.0  0.99589  0.23811  0.66419  1.0000
  H   H1000     1.0  0.72955  0.00914  0.61507  1.0000
  H   H1001     1.0  0.69517  0.12648  0.49469  1.0000
  C   C1015     1.0  0.72057  0.05840  0.51237  1.0000
  H   H1002     1.0  0.99111  0.36347  0.47837  1.0000
  H   H1003     1.0  0.56312  0.12592  0.54562  1.0000
  C   C1016     1.0  0.80280  0.21757  0.69495  1.0000
  N   N85       1.0  0.71113  0.08916  0.49225  1.0000
  H   H1004     1.0  0.64783  0.01581  0.51624  1.0000
  C   C1017     1.0  0.72996  0.01902  0.62429  1.0000
  H   H1005     1.0  0.61929  0.02333  0.56133  1.0000
  N   N86       1.0  0.79455  0.20832  0.66760  1.0000
  C   C1018     1.0  0.80898  0.22588  0.66877  1.0000
  C   C1019     1.0  0.78355  0.19582  0.67982  1.0000
  C   C1020     1.0  0.81338  0.23071  0.68245  1.0000
  C   C1021     1.0  0.73041  0.04414  0.64800  1.0000
  H   H1006     1.0  0.99436  0.28828  0.67144  1.0000
  C   C1022     1.0  0.79021  0.20340  0.65318  1.0000
  H   H1007     1.0  0.81812  0.23551  0.65912  1.0000
  H   H1008     1.0  0.77197  0.18199  0.67896  1.0000
  H   H1009     1.0  0.82587  0.24377  0.68328  1.0000
  C   C1023     1.0  0.97493  0.24653  0.70552  1.0000
  H   H1010     1.0  0.52139  0.03965  0.54815  1.0000
  H   H1011     1.0  0.77287  0.21485  0.64990  1.0000
  H   H1012     1.0  0.80608  0.20724  0.64487  1.0000
  H   H1013     1.0  0.78867  0.18353  0.65318  1.0000
  C   C1024     1.0  0.88093  0.33937  0.57484  1.0000
  H   H1014     1.0  0.66090  0.04912  0.49460  1.0000
  H   H1015     1.0  0.86101  0.29568  0.59109  1.0000
  C   C1025     1.0  0.87501  0.45612  0.56603  1.0000
  H   H1016     1.0  0.88737  0.32756  0.56629  1.0000
  H   H1017     1.0  0.75235  0.04187  0.60011  1.0000
  C   C1026     1.0  0.88616  0.31183  0.71320  1.0000
  H   H1018     1.0  0.58922  0.07226  0.51212  1.0000
  H   H1019     1.0  0.89353  0.49605  0.50714  1.0000
  H   H1020     1.0  0.86983  0.40036  0.57954  1.0000
  C   C1027     1.0  0.87854  0.36507  0.57127  1.0000
  H   H1021     1.0  0.85973  0.44621  0.57063  1.0000
  C   C1028     1.0  0.55453  0.05260  0.53643  1.0000
  H   H1022     1.0  0.66958  0.12948  0.72600  1.0000
  H   H1023     1.0  0.86481  0.33620  0.61102  1.0000
  C   C1029     1.0  0.71222  0.07097  0.48347  1.0000
  H   H1024     1.0  0.72272  0.06149  0.60269  1.0000
  H   H1025     1.0  0.92804  0.49354  0.54886  1.0000
  C   C1030     1.0  0.65512  0.06893  0.49368  1.0000
  C   C1031     1.0  0.70603  0.11526  0.48630  1.0000
  C   C1032     1.0  0.71555  0.08319  0.50647  1.0000
  C   C1033     1.0  0.61282  0.00663  0.56784  1.0000
  C   C1034     1.0  0.73599  0.06457  0.72045  1.0000
  H   H1026     1.0  0.60458  0.01664  0.52209  1.0000
  H   H1027     1.0  0.72373  0.12265  0.48246  1.0000
  C   C1035     1.0  0.96853  0.28921  0.71017  1.0000
  C   C1036     1.0  0.70602  0.13710  0.71644  1.0000
  C   C1037     1.0  0.58654  0.02179  0.52801  1.0000
  H   H1028     1.0  0.72043  0.01128  0.66130  1.0000
  C   C1038     1.0  0.77408  0.00855  0.67475  1.0000
  C   C1039     1.0  0.73636  0.05500  0.63379  1.0000
  H   H1029     1.0  0.61335  0.05809  0.52327  1.0000
  H   H1030     1.0  0.98821  0.42100  0.54883  1.0000
  H   H1031     1.0  0.77937  0.18963  0.70329  1.0000
  C   C1040     1.0  0.86826  0.49020  0.52666  1.0000
  H   H1032     1.0  0.99007  0.33708  0.57029  1.0000
  N   N87       1.0  0.00007  0.24582  0.70485  1.0000
  C   C1041     1.0  0.64302  0.10756  0.47899  1.0000
  C   C1042     1.0  0.71686  0.04599  0.48906  1.0000
  H   H1033     1.0  0.71659  0.03167  0.48222  1.0000
  H   H1034     1.0  0.96723  0.23043  0.70367  1.0000
  H   H1035     1.0  0.78247  0.09795  0.72160  1.0000
  C   C1043     1.0  0.88493  0.32811  0.72371  1.0000
  C   C1044     1.0  0.75857  0.07363  0.71655  1.0000
  C   C1045     1.0  0.65048  0.08195  0.48009  1.0000
  H   H1036     1.0  0.50535  0.14692  0.57224  1.0000
  C   C1046     1.0  0.99188  0.49476  0.55241  1.0000
  H   H1037     1.0  0.99476  0.38478  0.57759  1.0000
  C   C1047     1.0  0.54865  0.00963  0.54124  1.0000
  H   H1038     1.0  0.72419  0.02044  0.50822  1.0000
  C   C1048     1.0  0.99420  0.28826  0.70962  1.0000
  C   C1049     1.0  0.90374  0.38143  0.47811  1.0000
  H   H1039     1.0  0.98246  0.49487  0.54290  1.0000
  H   H1040     1.0  0.65869  0.01588  0.56972  1.0000
  C   C1050     1.0  0.68536  0.13828  0.72716  1.0000
  Fe  Fe177     1.0  0.78013  0.33571  0.79722  1.0000
  S   S355      1.0  0.81726  0.31200  0.79396  1.0000
  S   S356      1.0  0.74342  0.32138  0.80579  1.0000
  Fe  Fe178     1.0  0.80148  0.38322  0.78346  1.0000
  S   S357      1.0  0.83954  0.36239  0.77812  1.0000
  S   S358      1.0  0.79235  0.42472  0.77716  1.0000
  Fe  Fe179     1.0  0.82050  0.33309  0.77150  1.0000
  S   S359      1.0  0.82662  0.30931  0.75285  1.0000
  Fe  Fe180     1.0  0.83285  0.34339  0.80099  1.0000
  S   S360      1.0  0.86471  0.34323  0.81416  1.0000
  S   S361      1.0  0.78280  0.35588  0.77465  1.0000
  S   S362      1.0  0.79539  0.36535  0.80647  1.0000
  Fe  Fe181     1.0  0.62402  0.19742  0.79436  1.0000
  S   S363      1.0  0.63219  0.15698  0.79208  1.0000
  S   S364      1.0  0.58404  0.21684  0.79669  1.0000
  Fe  Fe182     1.0  0.67937  0.20360  0.79063  1.0000
  S   S365      1.0  0.69084  0.16317  0.78785  1.0000
  S   S366      1.0  0.71402  0.22278  0.78828  1.0000
  Fe  Fe183     1.0  0.66039  0.16779  0.77358  1.0000
  S   S367      1.0  0.65978  0.15005  0.75314  1.0000
  Fe  Fe184     1.0  0.66172  0.15605  0.80662  1.0000
  S   S368      1.0  0.67129  0.12302  0.82317  1.0000
  S   S369      1.0  0.65066  0.20862  0.77484  1.0000
  S   S370      1.0  0.65193  0.19602  0.81042  1.0000
  Fe  Fe185     1.0  0.64195  0.09473  0.90694  1.0000
  S   S371      1.0  0.65099  0.05549  0.90193  1.0000
  S   S372      1.0  0.63566  0.12845  0.89033  1.0000
  Fe  Fe186     1.0  0.63871  0.07966  0.93996  1.0000
  S   S373      1.0  0.64806  0.03917  0.93771  1.0000
  S   S374      1.0  0.62411  0.09382  0.96159  1.0000
  Fe  Fe187     1.0  0.67613  0.05077  0.91939  1.0000
  S   S375      1.0  0.71282  0.02724  0.91495  1.0000
  Fe  Fe188     1.0  0.62230  0.04705  0.92052  1.0000
  S   S376      1.0  0.59639  0.01975  0.92031  1.0000
  S   S377      1.0  0.66960  0.09093  0.92317  1.0000
  S   S378      1.0  0.61044  0.08668  0.92402  1.0000
  Fe  Fe189     1.0  0.87961  0.35389  0.89384  1.0000
  S   S379      1.0  0.89506  0.38732  0.88216  1.0000
  S   S380      1.0  0.85611  0.33342  0.88288  1.0000
  Fe  Fe190     1.0  0.90123  0.35760  0.92196  1.0000
  S   S381      1.0  0.91844  0.39130  0.91229  1.0000
  S   S382      1.0  0.90953  0.33945  0.94432  1.0000
  Fe  Fe191     1.0  0.88222  0.40361  0.90296  1.0000
  S   S383      1.0  0.86297  0.44265  0.90136  1.0000
  Fe  Fe192     1.0  0.92948  0.37157  0.89257  1.0000
  S   S384      1.0  0.96690  0.37370  0.87987  1.0000
  S   S385      1.0  0.86394  0.37147  0.91414  1.0000
  S   S386      1.0  0.91525  0.33656  0.90276  1.0000
  C   C1051     1.0  0.87461  0.45666  0.91420  1.0000
  C   C1052     1.0  0.88456  0.44215  0.92614  1.0000
  H   H1041     1.0  0.88235  0.42283  0.92841  1.0000
  H   H1042     1.0  0.60417  0.14316  0.76570  1.0000
  C   C1053     1.0  0.57352  0.03195  0.90896  1.0000
  C   C1054     1.0  0.90063  0.47752  0.93206  1.0000
  C   C1055     1.0  0.57515  0.05429  0.90000  1.0000
  H   H1043     1.0  0.90908  0.49855  0.87994  1.0000
  H   H1044     1.0  0.59075  0.06409  0.89993  1.0000
  H   H1045     1.0  0.91630  0.32671  0.97442  1.0000
  C   C1056     1.0  0.55858  0.22324  0.75877  1.0000
  H   H1046     1.0  0.84297  0.44900  0.81110  1.0000
  H   H1047     1.0  0.84578  0.42822  0.86432  1.0000
  N   N88       1.0  0.82353  0.39909  0.86921  1.0000
  C   C1057     1.0  0.54471  0.20518  0.75664  1.0000
  H   H1048     1.0  0.96461  0.33545  0.94737  1.0000
  H   H1049     1.0  0.87680  0.38589  0.94789  1.0000
  H   H1050     1.0  0.67608  0.07304  0.96418  1.0000
  H   H1051     1.0  0.83833  0.40699  0.88791  1.0000
  C   C1058     1.0  0.55858  0.20176  0.79467  1.0000
  C   C1059     1.0  0.53463  0.21541  0.79443  1.0000
  C   C1060     1.0  0.54198  0.16585  0.78959  1.0000
  C   C1061     1.0  0.56197  0.17677  0.79253  1.0000
  N   N89       1.0  0.53576  0.07999  0.93497  1.0000
  H   H1052     1.0  0.54507  0.14668  0.78755  1.0000
  H   H1053     1.0  0.58007  0.16591  0.79288  1.0000
  C   C1062     1.0  0.65936  0.12402  0.84164  1.0000
  C   C1063     1.0  0.66609  0.10369  0.85186  1.0000
  C   C1064     1.0  0.65859  0.10465  0.86681  1.0000
  C   C1065     1.0  0.64425  0.12597  0.87162  1.0000
  C   C1066     1.0  0.63729  0.14619  0.86138  1.0000
  C   C1067     1.0  0.64476  0.14522  0.84643  1.0000
  H   H1054     1.0  0.67754  0.08731  0.84823  1.0000
  H   H1055     1.0  0.66430  0.08912  0.87462  1.0000
  H   H1056     1.0  0.62616  0.16272  0.86504  1.0000
  H   H1057     1.0  0.63947  0.16098  0.83865  1.0000
  C   C1068     1.0  0.68515  0.15056  0.73941  1.0000
  C   C1069     1.0  0.70561  0.16185  0.74085  1.0000
  H   H1058     1.0  0.70564  0.17127  0.75028  1.0000
  C   C1070     1.0  0.80309  0.44592  0.78663  1.0000
  C   C1071     1.0  0.79575  0.47145  0.78314  1.0000
  H   H1059     1.0  0.53625  0.04133  0.93453  1.0000
  H   H1060     1.0  0.98737  0.35651  0.94183  1.0000
  C   C1072     1.0  0.81996  0.43791  0.79687  1.0000
  H   H1061     1.0  0.78269  0.47778  0.77524  1.0000
  C   C1073     1.0  0.59371  0.14932  0.75611  1.0000
  H   H1062     1.0  0.82594  0.41831  0.79949  1.0000
  C   C1074     1.0  0.85954  0.34285  0.83318  1.0000
  C   C1075     1.0  0.84300  0.32842  0.84172  1.0000
  C   C1076     1.0  0.84183  0.32592  0.85700  1.0000
  C   C1077     1.0  0.85696  0.33805  0.86377  1.0000
  C   C1078     1.0  0.87284  0.35314  0.85519  1.0000
  C   C1079     1.0  0.87421  0.35543  0.83996  1.0000
  H   H1063     1.0  0.83180  0.31846  0.83655  1.0000
  H   H1064     1.0  0.82948  0.31420  0.86356  1.0000
  H   H1065     1.0  0.88475  0.36235  0.86021  1.0000
  H   H1066     1.0  0.88711  0.36652  0.83338  1.0000
  C   C1080     1.0  0.84990  0.31066  0.73777  1.0000
  C   C1081     1.0  0.86686  0.32756  0.73595  1.0000
  C   C1082     1.0  0.72618  0.16081  0.73010  1.0000
  C   C1083     1.0  0.55335  0.01933  0.90899  1.0000
  H   H1067     1.0  0.69534  0.31991  0.77130  1.0000
  H   H1068     1.0  0.64747  0.04399  0.87124  1.0000
  H   H1069     1.0  0.86601  0.34024  0.74394  1.0000
  C   C1084     1.0  0.82960  0.45533  0.80340  1.0000
  C   C1085     1.0  0.51454  0.20447  0.79148  1.0000
  C   C1086     1.0  0.73557  0.29333  0.80159  1.0000
  C   C1087     1.0  0.71059  0.28922  0.80397  1.0000
  C   C1088     1.0  0.70355  0.26760  0.80020  1.0000
  C   C1089     1.0  0.72158  0.24962  0.79426  1.0000
  C   C1090     1.0  0.74661  0.25343  0.79227  1.0000
  C   C1091     1.0  0.75356  0.27522  0.79579  1.0000
  H   H1070     1.0  0.69654  0.30314  0.80848  1.0000
  H   H1071     1.0  0.68418  0.26511  0.80165  1.0000
  H   H1072     1.0  0.76073  0.23963  0.78772  1.0000
  H   H1073     1.0  0.77286  0.27804  0.79400  1.0000
  H   H1074     1.0  0.86810  0.43582  0.77289  1.0000
  N   N90       1.0  0.75861  0.28294  0.75848  1.0000
  C   C1092     1.0  0.73730  0.27268  0.75911  1.0000
  C   C1093     1.0  0.75753  0.30646  0.76186  1.0000
  C   C1094     1.0  0.71417  0.28595  0.76350  1.0000
  C   C1095     1.0  0.73477  0.32017  0.76643  1.0000
  C   C1096     1.0  0.71299  0.30977  0.76729  1.0000
  C   C1097     1.0  0.78295  0.26878  0.75442  1.0000
  H   H1075     1.0  0.73808  0.25378  0.75683  1.0000
  H   H1076     1.0  0.61028  0.15585  0.96826  1.0000
  H   H1077     1.0  0.69746  0.27734  0.76460  1.0000
  N   N91       1.0  0.95808  0.36813  0.95784  1.0000
  C   C1098     1.0  0.96671  0.45380  0.91358  1.0000
  H   H1078     1.0  0.78162  0.24945  0.75288  1.0000
  C   C1099     1.0  0.72051  0.07205  0.73272  1.0000
  C   C1100     1.0  0.54328  0.05546  0.93915  1.0000
  S   S387      1.0  0.51124  0.06541  0.88175  1.0000
  H   H1079     1.0  0.97821  0.34086  0.97201  1.0000
  C   C1101     1.0  0.64987  0.14586  0.96806  1.0000
  H   H1080     1.0  0.61500  0.18771  0.75937  1.0000
  H   H1081     1.0  0.50256  0.13423  0.81164  1.0000
  H   H1082     1.0  0.77447  0.31444  0.76140  1.0000
  C   C1102     1.0  0.86219  0.47581  0.76895  1.0000
  H   H1083     1.0  0.51856  0.01987  0.90060  1.0000
  C   C1103     1.0  0.83576  0.41729  0.84490  1.0000
  C   C1104     1.0  0.82250  0.48087  0.79977  1.0000
  H   H1084     1.0  0.84562  0.43049  0.83760  1.0000
  H   H1085     1.0  0.81701  0.46807  0.74218  1.0000
  H   H1086     1.0  0.51584  0.10131  0.85492  1.0000
  C   C1105     1.0  0.74947  0.09716  0.73708  1.0000
  C   C1106     1.0  0.81024  0.38467  0.84876  1.0000
  C   C1107     1.0  0.82294  0.40151  0.83928  1.0000
  H   H1087     1.0  0.80055  0.37206  0.84446  1.0000
  H   H1088     1.0  0.82302  0.40210  0.82759  1.0000
  N   N92       1.0  0.58145  0.17488  0.75670  1.0000
  C   C1108     1.0  0.55652  0.18093  0.75560  1.0000
  H   H1089     1.0  0.91367  0.29794  0.88178  1.0000
  C   C1109     1.0  0.90448  0.34440  0.97337  1.0000
  H   H1090     1.0  0.56929  0.10529  0.95542  1.0000
  H   H1091     1.0  0.54531  0.16686  0.75458  1.0000
  H   H1092     1.0  0.55218  0.00195  0.91585  1.0000
  H   H1093     1.0  0.53001  0.09366  0.91314  1.0000
  H   H1094     1.0  0.83823  0.28112  0.72864  1.0000
  C   C1110     1.0  0.51923  0.08742  0.92356  1.0000
  C   C1111     1.0  0.98013  0.47098  0.91750  1.0000
  C   C1112     1.0  0.94225  0.38999  0.95660  1.0000
  C   C1113     1.0  0.99068  0.36308  0.89102  1.0000
  H   H1095     1.0  0.00193  0.32617  0.92246  1.0000
  H   H1096     1.0  0.61562  0.02393  0.88794  1.0000
  C   C1114     1.0  0.51831  0.17973  0.78873  1.0000
  H   H1097     1.0  0.53173  0.23472  0.79618  1.0000
  H   H1098     1.0  0.89353  0.28387  0.86276  1.0000
  H   H1099     1.0  0.79517  0.26810  0.76312  1.0000
  C   C1115     1.0  0.64803  0.02404  0.87229  1.0000
  C   C1116     1.0  0.80543  0.48888  0.78965  1.0000
  H   H1100     1.0  0.94803  0.36670  0.85089  1.0000
  H   H1101     1.0  0.93375  0.32956  0.83009  1.0000
  H   H1102     1.0  0.75474  0.11031  0.74332  1.0000
  C   C1117     1.0  0.85894  0.45200  0.76669  1.0000
  C   C1118     1.0  0.58405  0.21699  0.75960  1.0000
  H   H1103     1.0  0.70295  0.06496  0.73569  1.0000
  C   C1119     1.0  0.51208  0.11658  0.83271  1.0000
  H   H1104     1.0  0.73417  0.33840  0.76976  1.0000
  H   H1105     1.0  0.96784  0.34245  0.90731  1.0000
  C   C1120     1.0  0.83580  0.41588  0.86000  1.0000
  C   C1121     1.0  0.87381  0.38996  0.97080  1.0000
  H   H1106     1.0  0.83920  0.43087  0.75555  1.0000
  H   H1107     1.0  0.80509  0.40829  0.88964  1.0000
  H   H1108     1.0  0.79204  0.27799  0.74420  1.0000
  C   C1122     1.0  0.71131  0.09487  0.75402  1.0000
  H   H1109     1.0  0.82519  0.37884  0.89029  1.0000
  C   C1123     1.0  0.88226  0.37772  0.95839  1.0000
  C   C1124     1.0  0.89761  0.35488  0.95967  1.0000
  N   N93       1.0  0.70160  0.19632  0.83465  1.0000
  C   C1125     1.0  0.69362  0.18730  0.84861  1.0000
  C   C1126     1.0  0.71335  0.18056  0.82495  1.0000
  C   C1127     1.0  0.69774  0.16189  0.85323  1.0000
  C   C1128     1.0  0.71758  0.15504  0.82916  1.0000
  C   C1129     1.0  0.70989  0.14573  0.84343  1.0000
  C   C1130     1.0  0.69753  0.22296  0.82984  1.0000
  H   H1110     1.0  0.68376  0.19965  0.85625  1.0000
  H   H1111     1.0  0.71924  0.18766  0.81380  1.0000
  H   H1112     1.0  0.69085  0.15464  0.86419  1.0000
  H   H1113     1.0  0.72604  0.14247  0.82132  1.0000
  H   H1114     1.0  0.71245  0.12591  0.84671  1.0000
  H   H1115     1.0  0.71563  0.22976  0.82614  1.0000
  H   H1116     1.0  0.68614  0.22670  0.82059  1.0000
  H   H1117     1.0  0.68769  0.23383  0.83862  1.0000
  N   N94       1.0  0.94123  0.32969  0.85198  1.0000
  C   C1131     1.0  0.93569  0.32102  0.86630  1.0000
  C   C1132     1.0  0.93015  0.32206  0.84141  1.0000
  C   C1133     1.0  0.91868  0.30420  0.87037  1.0000
  C   C1134     1.0  0.91328  0.30502  0.84509  1.0000
  C   C1135     1.0  0.90743  0.29619  0.85968  1.0000
  C   C1136     1.0  0.84275  0.44921  0.75692  1.0000
  H   H1118     1.0  0.93560  0.39753  0.94624  1.0000
  H   H1119     1.0  0.87413  0.47791  0.77693  1.0000
  C   C1137     1.0  0.59527  0.19259  0.75846  1.0000
  C   C1138     1.0  0.96582  0.35826  0.97102  1.0000
  C   C1139     1.0  0.66710  0.00952  0.86457  1.0000
  H   H1120     1.0  0.60713  0.14818  0.74610  1.0000
  C   C1140     1.0  0.55654  0.06400  0.89103  1.0000
  H   H1121     1.0  0.55769  0.08138  0.88417  1.0000
  H   H1122     1.0  0.90594  0.44113  0.94400  1.0000
  H   H1123     1.0  0.94423  0.32743  0.87465  1.0000
  C   C1141     1.0  0.82299  0.39831  0.88501  1.0000
  C   C1142     1.0  0.89762  0.45256  0.93507  1.0000
  C   C1143     1.0  0.56060  0.04820  0.94918  1.0000
  C   C1144     1.0  0.98607  0.34781  0.90404  1.0000
  H   H1124     1.0  0.71500  0.11252  0.75724  1.0000
  C   C1145     1.0  0.83016  0.47014  0.74947  1.0000
  C   C1146     1.0  0.53595  0.05178  0.89145  1.0000
  H   H1125     1.0  0.80123  0.37020  0.87108  1.0000
  C   C1147     1.0  0.97940  0.43376  0.90667  1.0000
  C   C1148     1.0  0.81070  0.38372  0.86379  1.0000
  C   C1149     1.0  0.95798  0.34840  0.84817  1.0000
  C   C1150     1.0  0.53436  0.02946  0.90040  1.0000
  C   C1151     1.0  0.87610  0.48197  0.91184  1.0000
  C   C1152     1.0  0.62995  0.01263  0.88166  1.0000
  H   H1126     1.0  0.58019  0.13627  0.75623  1.0000
  H   H1127     1.0  0.65268  0.14148  0.95691  1.0000
  C   C1153     1.0  0.54470  0.09779  0.94079  1.0000
  H   H1128     1.0  0.86186  0.40758  0.96975  1.0000
  H   H1129     1.0  0.74201  0.16951  0.73129  1.0000
  H   H1130     1.0  0.71436  0.08003  0.76319  1.0000
  N   N95       1.0  0.72732  0.08820  0.74084  1.0000
  C   C1154     1.0  0.56993  0.06622  0.95512  1.0000
  C   C1155     1.0  0.96732  0.35524  0.94502  1.0000
  H   H1131     1.0  0.97011  0.48638  0.92297  1.0000
  H   H1132     1.0  0.86771  0.49332  0.90292  1.0000
  H   H1133     1.0  0.59484  0.23068  0.76177  1.0000
  H   H1134     1.0  0.52473  0.20959  0.75652  1.0000
  H   H1135     1.0  0.90389  0.29967  0.83673  1.0000
  C   C1156     1.0  0.56178  0.09119  0.95102  1.0000
  H   H1136     1.0  0.53889  0.11723  0.93737  1.0000
  H   H1137     1.0  0.96929  0.42026  0.90353  1.0000
  C   C1157     1.0  0.88928  0.49239  0.92071  1.0000
  S   S388      1.0  0.92038  0.48954  0.94159  1.0000
  H   H1138     1.0  0.69137  0.09781  0.75220  1.0000
  H   H1139     1.0  0.50978  0.07188  0.92178  1.0000
  H   H1140     1.0  0.54947  0.24183  0.76028  1.0000
  H   H1141     1.0  0.95699  0.36302  0.93557  1.0000
  H   H1142     1.0  0.58383  0.06093  0.96265  1.0000
  H   H1143     1.0  0.56719  0.02872  0.95199  1.0000
  H   H1144     1.0  0.96520  0.35001  0.83643  1.0000
  N   N96       1.0  0.84970  0.49624  0.76164  1.0000
  H   H1145     1.0  0.97427  0.34359  0.85449  1.0000
  H   H1146     1.0  0.94660  0.45608  0.91593  1.0000
  H   H1147     1.0  0.92033  0.41926  0.96792  1.0000
  H   H1148     1.0  0.50437  0.10259  0.92672  1.0000
  H   H1149     1.0  0.68162  0.01805  0.85757  1.0000
  C   C1158     1.0  0.83397  0.49368  0.75191  1.0000
  H   H1150     1.0  0.53015  0.10757  0.82850  1.0000
  H   H1151     1.0  0.89568  0.47108  0.97076  1.0000
  C   C1159     1.0  0.93357  0.40242  0.96881  1.0000
  C   C1160     1.0  0.66734  0.07834  0.97461  1.0000
  C   C1161     1.0  0.62600  0.15389  0.97446  1.0000
  H   H1152     1.0  0.68820  0.13521  0.97143  1.0000
  C   C1162     1.0  0.66983  0.14215  0.97637  1.0000
  C   C1163     1.0  0.50395  0.11326  0.84763  1.0000
  C   C1164     1.0  0.64209  0.08809  0.97628  1.0000
  H   H1153     1.0  0.67096  0.00063  0.91567  1.0000
  C   C1165     1.0  0.70899  0.00185  0.90637  1.0000
  C   C1166     1.0  0.85123  0.29429  0.72730  1.0000
  Fe  Fe193     1.0  0.80099  0.60375  0.17631  1.0000
  S   S389      1.0  0.83087  0.62603  0.17849  1.0000
  S   S390      1.0  0.76040  0.61963  0.17498  1.0000
  Fe  Fe194     1.0  0.83699  0.55456  0.17604  1.0000
  S   S391      1.0  0.86914  0.57354  0.17895  1.0000
  S   S392      1.0  0.84904  0.51526  0.17002  1.0000
  Fe  Fe195     1.0  0.84325  0.59458  0.19524  1.0000
  S   S393      1.0  0.84947  0.59903  0.21842  1.0000
  Fe  Fe196     1.0  0.85401  0.60295  0.16199  1.0000
  S   S394      1.0  0.88061  0.61678  0.14303  1.0000
  S   S395      1.0  0.81202  0.57303  0.19381  1.0000
  S   S396      1.0  0.82311  0.58334  0.15841  1.0000
  Fe  Fe197     1.0  0.64909  0.78420  0.19170  1.0000
  S   S397      1.0  0.65315  0.74379  0.18852  1.0000
  C   C1167     1.0  0.75448  0.64894  0.13889  1.0000
  Fe  Fe198     1.0  0.64686  0.80044  0.15899  1.0000
  S   S398      1.0  0.65186  0.76149  0.15361  1.0000
  S   S399      1.0  0.63765  0.83314  0.14202  1.0000
  Fe  Fe199     1.0  0.62363  0.75551  0.17322  1.0000
  S   S400      1.0  0.59277  0.73388  0.17027  1.0000
  Fe  Fe200     1.0  0.68066  0.75345  0.16933  1.0000
  S   S401      1.0  0.72062  0.73465  0.16507  1.0000
  S   S402      1.0  0.61733  0.79493  0.17791  1.0000
  S   S403      1.0  0.67795  0.79336  0.17320  1.0000
  Fe  Fe201     1.0  0.95381  0.53521  0.05871  1.0000
  S   S404      1.0  0.91392  0.54358  0.05483  1.0000
  C   C1168     1.0  0.50431  0.95045  0.06913  1.0000
  Fe  Fe202     1.0  0.96371  0.58642  0.04640  1.0000
  S   S405      1.0  0.92415  0.59931  0.04150  1.0000
  H   H1154     1.0  0.99628  0.59077  0.06944  1.0000
  Fe  Fe203     1.0  0.91401  0.57927  0.06375  1.0000
  S   S406      1.0  0.87937  0.58908  0.07924  1.0000
  Fe  Fe204     1.0  0.92736  0.56247  0.03312  1.0000
  S   S407      1.0  0.91009  0.55273  0.01434  1.0000
  S   S408      1.0  0.95322  0.56934  0.06933  1.0000
  S   S409      1.0  0.96746  0.55113  0.03629  1.0000
  Fe  Fe205     1.0  0.65306  0.91187  0.04305  1.0000
  S   S410      1.0  0.66851  0.87426  0.03638  1.0000
  S   S411      1.0  0.67504  0.94366  0.03911  1.0000
  Fe  Fe206     1.0  0.60311  0.89713  0.05490  1.0000
  S   S412      1.0  0.61430  0.85836  0.04952  1.0000
  S   S413      1.0  0.56412  0.90798  0.06485  1.0000
  Fe  Fe207     1.0  0.64974  0.86046  0.05840  1.0000
  S   S414      1.0  0.66819  0.83025  0.07410  1.0000
  Fe  Fe208     1.0  0.63147  0.87587  0.02808  1.0000
  S   S415      1.0  0.61847  0.86653  0.00766  1.0000
  S   S416      1.0  0.63711  0.89803  0.06550  1.0000
  S   S417      1.0  0.61777  0.91467  0.03311  1.0000
  H   H1155     1.0  0.78807  0.62376  0.14150  1.0000
  H   H1156     1.0  0.73762  0.70055  0.19804  1.0000
  C   C1169     1.0  0.54473  0.90892  0.05134  1.0000
  H   H1157     1.0  0.75154  0.73854  0.18976  1.0000
  C   C1170     1.0  0.86921  0.53403  0.12835  1.0000
  C   C1171     1.0  0.68303  0.70743  0.21986  1.0000
  C   C1172     1.0  0.53449  0.92257  0.02677  1.0000
  C   C1173     1.0  0.55007  0.92182  0.03758  1.0000
  H   H1158     1.0  0.92551  0.55232  0.12004  1.0000
  C   C1174     1.0  0.88804  0.62745  0.21494  1.0000
  H   H1159     1.0  0.53844  0.93285  0.01618  1.0000
  H   H1160     1.0  0.56586  0.93173  0.03536  1.0000
  C   C1175     1.0  0.56035  0.74486  0.17235  1.0000
  C   C1176     1.0  0.54384  0.73146  0.16752  1.0000
  C   C1177     1.0  0.54891  0.82002  0.14986  1.0000
  C   C1178     1.0  0.90049  0.63445  0.00463  1.0000
  C   C1179     1.0  0.52495  0.77517  0.17949  1.0000
  C   C1180     1.0  0.55073  0.76679  0.17834  1.0000
  H   H1161     1.0  0.55105  0.71437  0.16296  1.0000
  C   C1181     1.0  0.82200  0.65462  0.13682  1.0000
  C   C1182     1.0  0.89373  0.54889  0.14443  1.0000
  H   H1162     1.0  0.56313  0.77726  0.18216  1.0000
  C   C1183     1.0  0.64473  0.83041  0.12322  1.0000
  C   C1184     1.0  0.66316  0.81207  0.11802  1.0000
  C   C1185     1.0  0.66973  0.81176  0.10292  1.0000
  C   C1186     1.0  0.65770  0.82953  0.09292  1.0000
  C   C1187     1.0  0.63866  0.84731  0.09815  1.0000
  C   C1188     1.0  0.63236  0.84786  0.11323  1.0000
  H   H1163     1.0  0.67290  0.79860  0.12562  1.0000
  H   H1164     1.0  0.68447  0.79793  0.09897  1.0000
  H   H1165     1.0  0.62904  0.86092  0.09061  1.0000
  H   H1166     1.0  0.61801  0.86204  0.11716  1.0000
  C   C1189     1.0  0.88030  0.60855  0.12541  1.0000
  C   C1190     1.0  0.85938  0.60080  0.12141  1.0000
  C   C1191     1.0  0.85931  0.59523  0.10717  1.0000
  C   C1192     1.0  0.88035  0.59674  0.09689  1.0000
  C   C1193     1.0  0.90146  0.60405  0.10093  1.0000
  C   C1194     1.0  0.90130  0.61022  0.11511  1.0000
  H   H1167     1.0  0.84304  0.59956  0.12915  1.0000
  H   H1168     1.0  0.84293  0.58957  0.10411  1.0000
  H   H1169     1.0  0.91773  0.60541  0.09307  1.0000
  H   H1170     1.0  0.91753  0.61634  0.11808  1.0000
  C   C1195     1.0  0.74944  0.65173  0.17374  1.0000
  C   C1196     1.0  0.76581  0.66927  0.17135  1.0000
  C   C1197     1.0  0.75661  0.69462  0.16883  1.0000
  C   C1198     1.0  0.73097  0.70269  0.16890  1.0000
  C   C1199     1.0  0.71451  0.68526  0.17183  1.0000
  C   C1200     1.0  0.72376  0.65985  0.17412  1.0000
  H   H1171     1.0  0.78559  0.66326  0.17102  1.0000
  H   H1172     1.0  0.76945  0.70803  0.16665  1.0000
  H   H1173     1.0  0.69472  0.69128  0.17197  1.0000
  H   H1174     1.0  0.71098  0.64638  0.17595  1.0000
  H   H1175     1.0  0.74654  0.75797  0.20432  1.0000
  H   H1176     1.0  0.83110  0.65128  0.12575  1.0000
  C   C1201     1.0  0.75929  0.69211  0.13361  1.0000
  H   H1177     1.0  0.68595  0.82343  0.20146  1.0000
  H   H1178     1.0  0.91837  0.50309  0.07836  1.0000
  H   H1179     1.0  0.65931  0.92011  0.11028  1.0000
  C   C1202     1.0  0.78498  0.68548  0.13375  1.0000
  H   H1180     1.0  0.80006  0.50891  0.18582  1.0000
  C   C1203     1.0  0.86533  0.52857  0.11470  1.0000
  H   H1181     1.0  0.70437  0.86558  0.06203  1.0000
  H   H1182     1.0  0.88932  0.62619  0.20339  1.0000
  H   H1183     1.0  0.73007  0.88146  0.06381  1.0000
  C   C1204     1.0  0.91951  0.56463  0.99632  1.0000
  H   H1184     1.0  0.53264  0.81756  0.05604  1.0000
  H   H1185     1.0  0.94406  0.58783  0.00186  1.0000
  H   H1186     1.0  0.87630  0.55946  0.14920  1.0000
  C   C1205     1.0  0.66102  0.87100  0.98828  1.0000
  C   C1206     1.0  0.63563  0.86916  0.99016  1.0000
  H   H1187     1.0  0.59294  0.75796  0.12187  1.0000
  H   H1188     1.0  0.67052  0.87136  0.99766  1.0000
  C   C1207     1.0  0.58813  0.79595  0.14236  1.0000
  S   S418      1.0  0.64790  0.79286  0.21511  1.0000
  N   N97       1.0  0.57599  0.77766  0.13946  1.0000
  H   H1189     1.0  0.75117  0.71144  0.13194  1.0000
  H   H1190     1.0  0.84813  0.52240  0.11323  1.0000
  H   H1191     1.0  0.70555  0.89623  0.05303  1.0000
  C   C1208     1.0  0.52396  0.89655  0.05425  1.0000
  C   C1209     1.0  0.93587  0.58218  0.99316  1.0000
  H   H1192     1.0  0.51777  0.79214  0.18418  1.0000
  C   C1210     1.0  0.66204  0.96776  0.04951  1.0000
  C   C1211     1.0  0.64022  0.96610  0.05903  1.0000
  H   H1193     1.0  0.55017  0.96078  0.06272  1.0000
  H   H1194     1.0  0.63080  0.95015  0.05985  1.0000
  C   C1212     1.0  0.51379  0.91007  0.02964  1.0000
  H   H1195     1.0  0.71283  0.84681  0.21213  1.0000
  C   C1213     1.0  0.73722  0.74967  0.19674  1.0000
  C   C1214     1.0  0.53676  0.97390  0.05647  1.0000
  H   H1196     1.0  0.59648  0.97052  0.02464  1.0000
  N   N98       1.0  0.54931  0.85548  0.01898  1.0000
  C   C1215     1.0  0.56051  0.85813  0.03079  1.0000
  C   C1216     1.0  0.53318  0.83863  0.02004  1.0000
  C   C1217     1.0  0.55468  0.84456  0.04430  1.0000
  C   C1218     1.0  0.62360  0.86850  0.97786  1.0000
  N   N99       1.0  0.87869  0.62138  0.98210  1.0000
  H   H1197     1.0  0.89395  0.50276  0.02745  1.0000
  H   H1198     1.0  0.57362  0.87120  0.02987  1.0000
  H   H1199     1.0  0.91822  0.64893  0.21287  1.0000
  H   H1200     1.0  0.69375  0.93137  0.06629  1.0000
  C   C1219     1.0  0.53774  0.82782  0.04557  1.0000
  C   C1220     1.0  0.59026  0.75535  0.13394  1.0000
  C   C1221     1.0  0.70978  0.88383  0.06311  1.0000
  H   H1201     1.0  0.88023  0.60798  0.01850  1.0000
  C   C1222     1.0  0.66993  0.91282  0.10074  1.0000
  H   H1202     1.0  0.53839  0.83624  0.15428  1.0000
  H   H1203     1.0  0.93000  0.50760  0.99880  1.0000
  C   C1223     1.0  0.74398  0.67368  0.13629  1.0000
  C   C1224     1.0  0.72166  0.70979  0.20433  1.0000
  C   C1225     1.0  0.55496  0.87023  0.00497  1.0000
  H   H1204     1.0  0.61365  0.98385  0.07497  1.0000
  C   C1226     1.0  0.90899  0.55740  0.98499  1.0000
  H   H1205     1.0  0.79673  0.69993  0.13183  1.0000
  N   N100      1.0  0.79506  0.66121  0.13668  1.0000
  H   H1206     1.0  0.56285  0.84744  0.05377  1.0000
  C   C1227     1.0  0.68083  0.73276  0.22076  1.0000
  N   N101      1.0  0.51356  0.96377  0.05670  1.0000
  H   H1207     1.0  0.72395  0.67863  0.13676  1.0000
  C   C1228     1.0  0.90583  0.64536  0.99038  1.0000
  H   H1208     1.0  0.60871  0.75098  0.13811  1.0000
  H   H1209     1.0  0.74271  0.63450  0.14149  1.0000
  H   H1210     1.0  0.56761  0.85855  0.99750  1.0000
  C   C1229     1.0  0.90872  0.54524  0.11869  1.0000
  H   H1211     1.0  0.82658  0.63764  0.14443  1.0000
  H   H1212     1.0  0.89596  0.54420  0.98738  1.0000
  N   N102      1.0  0.71894  0.73477  0.20492  1.0000
  C   C1230     1.0  0.88357  0.53164  0.10290  1.0000
  C   C1231     1.0  0.90556  0.53969  0.10493  1.0000
  H   H1213     1.0  0.89831  0.53173  0.15190  1.0000
  H   H1214     1.0  0.52447  0.83637  0.01063  1.0000
  H   H1215     1.0  0.72775  0.76472  0.18932  1.0000
  H   H1216     1.0  0.69714  0.85847  0.08872  1.0000
  C   C1232     1.0  0.63041  0.98526  0.06753  1.0000
  H   H1217     1.0  0.88052  0.52835  0.09212  1.0000
  C   C1233     1.0  0.50878  0.89673  0.04331  1.0000
  C   C1234     1.0  0.68496  0.82283  0.21316  1.0000
  H   H1218     1.0  0.50814  0.97888  0.03485  1.0000
  C   C1235     1.0  0.53665  0.80163  0.14644  1.0000
  S   S419      1.0  0.99485  0.60910  0.03880  1.0000
  C   C1236     1.0  0.70019  0.83610  0.21925  1.0000
  H   H1219     1.0  0.90840  0.56092  0.14377  1.0000
  H   H1220     1.0  0.83027  0.66941  0.14060  1.0000
  H   H1221     1.0  0.70554  0.67612  0.21076  1.0000
  C   C1237     1.0  0.55057  0.78048  0.14116  1.0000
  H   H1222     1.0  0.67380  0.87489  0.11073  1.0000
  H   H1223     1.0  0.85496  0.53169  0.13751  1.0000
  C   C1238     1.0  0.70363  0.69579  0.21164  1.0000
  C   C1239     1.0  0.57481  0.81729  0.14771  1.0000
  H   H1224     1.0  0.50565  0.72964  0.16461  1.0000
  H   H1225     1.0  0.66951  0.94852  0.08780  1.0000
  N   N103      1.0  0.89049  0.54272  0.13011  1.0000
  H   H1226     1.0  0.60401  0.86704  0.97918  1.0000
  H   H1227     1.0  0.60825  0.79401  0.14070  1.0000
  H   H1228     1.0  0.58068  0.73894  0.13789  1.0000
  C   C1240     1.0  0.78022  0.64299  0.13902  1.0000
  H   H1229     1.0  0.53757  0.87802  0.00007  1.0000
  H   H1230     1.0  0.64071  0.97593  0.02217  1.0000
  C   C1241     1.0  0.52721  0.82449  0.03333  1.0000
  N   N104      1.0  0.69611  0.89389  0.07611  1.0000
  C   C1242     1.0  0.69120  0.87826  0.08851  1.0000
  C   C1243     1.0  0.68915  0.91889  0.07596  1.0000
  C   C1244     1.0  0.67802  0.88746  0.10099  1.0000
  C   C1245     1.0  0.67563  0.92872  0.08817  1.0000
  H   H1231     1.0  0.54092  0.76596  0.13891  1.0000
  C   C1246     1.0  0.66802  0.80945  0.22219  1.0000
  H   H1232     1.0  0.54594  0.97728  0.04517  1.0000
  H   H1233     1.0  0.56434  0.88615  0.00622  1.0000
  H   H1234     1.0  0.58464  0.83145  0.15029  1.0000
  H   H1235     1.0  0.91961  0.54259  0.09575  1.0000
  H   H1236     1.0  0.51998  0.88627  0.06482  1.0000
  C   C1247     1.0  0.88395  0.61715  0.00753  1.0000
  C   C1248     1.0  0.51807  0.74005  0.16846  1.0000
  H   H1237     1.0  0.86070  0.59697  0.99841  1.0000
  H   H1238     1.0  0.90951  0.63900  0.01337  1.0000
  C   C1249     1.0  0.90444  0.64027  0.22037  1.0000
  C   C1250     1.0  0.87304  0.61090  0.99608  1.0000
  H   H1239     1.0  0.69701  0.76598  0.21365  1.0000
  H   H1240     1.0  0.91903  0.65848  0.98795  1.0000
  H   H1241     1.0  0.51456  0.94655  0.07854  1.0000
  C   C1251     1.0  0.69905  0.74622  0.21314  1.0000
  C   C1252     1.0  0.67368  0.98888  0.04825  1.0000
  C   C1253     1.0  0.87019  0.61605  0.22450  1.0000
  H   H1242     1.0  0.69064  0.99021  0.04097  1.0000
  C   C1254     1.0  0.62688  0.99198  0.02006  1.0000
  H   H1243     1.0  0.51404  0.81147  0.03422  1.0000
  C   C1255     1.0  0.94069  0.59330  0.97876  1.0000
  C   C1256     1.0  0.50848  0.76201  0.17445  1.0000
  C   C1257     1.0  0.60183  0.98878  0.02143  1.0000
  H   H1244     1.0  0.51651  0.80327  0.14835  1.0000
  H   H1245     1.0  0.66869  0.69692  0.22541  1.0000
  C   C1258     1.0  0.89464  0.63862  0.97918  1.0000
  H   H1246     1.0  0.53279  0.99170  0.06121  1.0000
  H   H1247     1.0  0.66478  0.74215  0.22698  1.0000
  Fe  Fe209     1.0  0.90817  0.70962  0.28305  1.0000
  S   S420      1.0  0.88931  0.67745  0.28032  1.0000
  S   S421      1.0  0.89011  0.74966  0.27993  1.0000
  Fe  Fe210     1.0  0.95934  0.67785  0.28560  1.0000
  S   S422      1.0  0.94412  0.64386  0.28229  1.0000
  Fe  Fe211     1.0  0.92331  0.66701  0.26491  1.0000
  S   S423      1.0  0.92400  0.65854  0.24162  1.0000
  Fe  Fe212     1.0  0.91181  0.65715  0.29809  1.0000
  S   S424      1.0  0.90290  0.62678  0.31600  1.0000
  S   S425      1.0  0.94145  0.70013  0.26677  1.0000
  S   S426      1.0  0.92766  0.69026  0.30213  1.0000
  Fe  Fe213     1.0  0.75456  0.88037  0.28223  1.0000
  S   S427      1.0  0.71501  0.88619  0.27746  1.0000
  S   S428      1.0  0.77663  0.91206  0.28212  1.0000
  Fe  Fe214     1.0  0.75620  0.82393  0.28857  1.0000
  S   S429      1.0  0.71625  0.82610  0.28450  1.0000
  S   S430      1.0  0.77498  0.78554  0.29652  1.0000
  Fe  Fe215     1.0  0.72576  0.85300  0.26500  1.0000
  S   S431      1.0  0.71792  0.85383  0.24145  1.0000
  Fe  Fe216     1.0  0.70941  0.85870  0.29739  1.0000
  S   S432      1.0  0.67657  0.86676  0.31443  1.0000
  S   S433      1.0  0.76629  0.84910  0.26835  1.0000
  S   S434      1.0  0.74841  0.85463  0.30282  1.0000
  Fe  Fe217     1.0  0.96736  0.58002  0.40082  1.0000
  S   S435      1.0  0.95070  0.61759  0.40646  1.0000
  H   H1248     1.0  0.75633  0.91392  0.31629  1.0000
  Fe  Fe218     1.0  0.92206  0.55722  0.41476  1.0000
  S   S436      1.0  0.90145  0.59347  0.42131  1.0000
  S   S437      1.0  0.90508  0.52220  0.42131  1.0000
  Fe  Fe219     1.0  0.91642  0.60907  0.39875  1.0000
  S   S438      1.0  0.89640  0.63834  0.38320  1.0000
  Fe  Fe220     1.0  0.93796  0.59813  0.42830  1.0000
  S   S439      1.0  0.94869  0.61141  0.44818  1.0000
  S   S440      1.0  0.93397  0.57240  0.39178  1.0000
  S   S441      1.0  0.95749  0.56090  0.42309  1.0000
  Fe  Fe221     1.0  0.61735  0.91215  0.40077  1.0000
  S   S442      1.0  0.65753  0.90254  0.40391  1.0000
  S   S443      1.0  0.60472  0.94848  0.38811  1.0000
  Fe  Fe222     1.0  0.60427  0.86429  0.41771  1.0000
  S   S444      1.0  0.64375  0.85032  0.42210  1.0000
  S   S445      1.0  0.57098  0.84689  0.42854  1.0000
  Fe  Fe223     1.0  0.64429  0.88901  0.42703  1.0000
  S   S446      1.0  0.65757  0.90391  0.44562  1.0000
  Fe  Fe224     1.0  0.65338  0.86517  0.39847  1.0000
  S   S447      1.0  0.68380  0.84753  0.38252  1.0000
  S   S448      1.0  0.60433  0.90186  0.42419  1.0000
  S   S449      1.0  0.61373  0.87585  0.39380  1.0000
  C   C1259     1.0  0.51400  0.93723  0.41237  1.0000
  C   C1260     1.0  0.54882  0.84653  0.41666  1.0000
  C   C1261     1.0  0.55580  0.84697  0.40168  1.0000
  C   C1262     1.0  0.53783  0.84772  0.39222  1.0000
  C   C1263     1.0  0.68764  0.99726  0.39956  1.0000
  C   C1264     1.0  0.69271  0.95553  0.31963  1.0000
  C   C1265     1.0  0.52379  0.84638  0.42220  1.0000
  H   H1249     1.0  0.57512  0.84626  0.39738  1.0000
  H   H1250     1.0  0.54337  0.84804  0.38064  1.0000
  C   C1266     1.0  0.77654  0.96121  0.28465  1.0000
  H   H1251     1.0  0.51835  0.84592  0.43379  1.0000
  C   C1267     1.0  0.67964  0.86344  0.33326  1.0000
  C   C1268     1.0  0.65847  0.86931  0.34307  1.0000
  C   C1269     1.0  0.65977  0.86553  0.35817  1.0000
  C   C1270     1.0  0.68225  0.85567  0.36362  1.0000
  C   C1271     1.0  0.70357  0.85029  0.35380  1.0000
  C   C1272     1.0  0.70232  0.85425  0.33867  1.0000
  H   H1252     1.0  0.64084  0.87643  0.33899  1.0000
  H   H1253     1.0  0.64318  0.86962  0.36559  1.0000
  H   H1254     1.0  0.72105  0.84262  0.35791  1.0000
  H   H1255     1.0  0.71875  0.84946  0.33128  1.0000
  H   H1256     1.0  0.85207  0.60676  0.39906  1.0000
  C   C1273     1.0  0.67936  0.98341  0.39026  1.0000
  H   H1257     1.0  0.58076  0.83312  0.47215  1.0000
  H   H1258     1.0  0.68125  0.82166  0.25516  1.0000
  C   C1274     1.0  0.90308  0.64198  0.23536  1.0000
  C   C1275     1.0  0.90289  0.63101  0.33438  1.0000
  C   C1276     1.0  0.89436  0.65392  0.33947  1.0000
  C   C1277     1.0  0.89264  0.65604  0.35445  1.0000
  C   C1278     1.0  0.90025  0.63552  0.36434  1.0000
  C   C1279     1.0  0.90967  0.61288  0.35910  1.0000
  C   C1280     1.0  0.91052  0.61053  0.34425  1.0000
  H   H1259     1.0  0.88817  0.66977  0.33196  1.0000
  H   H1260     1.0  0.88521  0.67361  0.35840  1.0000
  H   H1261     1.0  0.91548  0.59693  0.36653  1.0000
  H   H1262     1.0  0.91706  0.59274  0.34038  1.0000
  H   H1263     1.0  0.54958  0.89901  0.38967  1.0000
  C   C1281     1.0  0.88508  0.63083  0.24491  1.0000
  H   H1264     1.0  0.88380  0.63196  0.25647  1.0000
  C   C1282     1.0  0.85834  0.75948  0.28539  1.0000
  C   C1283     1.0  0.84825  0.78415  0.28130  1.0000
  C   C1284     1.0  0.82274  0.79239  0.28465  1.0000
  C   C1285     1.0  0.80717  0.77605  0.29227  1.0000
  C   C1286     1.0  0.81730  0.75142  0.29648  1.0000
  C   C1287     1.0  0.84277  0.74310  0.29299  1.0000
  H   H1265     1.0  0.86019  0.79693  0.27543  1.0000
  H   H1266     1.0  0.81518  0.81140  0.28140  1.0000
  H   H1267     1.0  0.80536  0.73868  0.30239  1.0000
  H   H1268     1.0  0.85034  0.72405  0.29615  1.0000
  N   N105      1.0  0.74714  0.95270  0.24552  1.0000
  C   C1288     1.0  0.65520  0.88823  0.46345  1.0000
  N   N106      1.0  0.66202  0.97881  0.41976  1.0000
  H   H1269     1.0  0.87187  0.52400  0.36399  1.0000
  H   H1270     1.0  0.64845  0.85383  0.45737  1.0000
  C   C1289     1.0  0.75387  0.90279  0.24174  1.0000
  C   C1290     1.0  0.93401  0.60393  0.46595  1.0000
  C   C1291     1.0  0.65026  0.86380  0.46629  1.0000
  H   H1271     1.0  0.90071  0.59537  0.45917  1.0000
  H   H1272     1.0  0.93899  0.51976  0.39468  1.0000
  C   C1292     1.0  0.59533  0.97058  0.40022  1.0000
  H   H1273     1.0  0.57446  0.94701  0.41587  1.0000
  H   H1274     1.0  0.87585  0.68718  0.24165  1.0000
  H   H1275     1.0  0.66281  0.98527  0.44181  1.0000
  C   C1293     1.0  0.85959  0.56684  0.40232  1.0000
  H   H1276     1.0  0.99535  0.63404  0.45173  1.0000
  C   C1294     1.0  0.96950  0.61097  0.24828  1.0000
  H   H1277     1.0  0.80376  0.70892  0.26400  1.0000
  C   C1295     1.0  0.76213  0.94294  0.28322  1.0000
  C   C1296     1.0  0.73662  0.94968  0.28252  1.0000
  H   H1278     1.0  0.72529  0.93586  0.28143  1.0000
  C   C1297     1.0  0.50572  0.84738  0.41272  1.0000
  H   H1279     1.0  0.75644  0.88328  0.24036  1.0000
  C   C1298     1.0  0.54113  0.91601  0.39406  1.0000
  C   C1299     1.0  0.73833  0.92543  0.31753  1.0000
  C   C1300     1.0  0.82846  0.73643  0.25987  1.0000
  C   C1301     1.0  0.71663  0.91515  0.31779  1.0000
  C   C1302     1.0  0.82200  0.71313  0.25929  1.0000
  C   C1303     1.0  0.66699  0.80900  0.23738  1.0000
  H   H1280     1.0  0.56488  0.97700  0.43405  1.0000
  H   H1281     1.0  0.75373  0.95873  0.31787  1.0000
  H   H1282     1.0  0.85731  0.75942  0.25476  1.0000
  C   C1304     1.0  0.86149  0.59112  0.37878  1.0000
  H   H1283     1.0  0.67674  0.92216  0.31908  1.0000
  H   H1284     1.0  0.97902  0.60177  0.34756  1.0000
  H   H1285     1.0  0.85512  0.60904  0.24697  1.0000
  N   N107      1.0  0.53626  0.96038  0.39258  1.0000
  C   C1305     1.0  0.66254  0.96707  0.39586  1.0000
  C   C1306     1.0  0.91025  0.59695  0.46834  1.0000
  H   H1286     1.0  0.85952  0.60899  0.37218  1.0000
  C   C1307     1.0  0.54148  0.98425  0.38474  1.0000
  H   H1287     1.0  0.72485  0.98570  0.25197  1.0000
  H   H1288     1.0  0.65397  0.79872  0.24448  1.0000
  C   C1308     1.0  0.69365  0.93019  0.31889  1.0000
  C   C1309     1.0  0.60308  0.99384  0.39693  1.0000
  C   C1310     1.0  0.65777  0.90087  0.47512  1.0000
  H   H1289     1.0  0.52012  0.89761  0.41231  1.0000
  H   H1290     1.0  0.68582  0.98550  0.37872  1.0000
  C   C1311     1.0  0.89398  0.72935  0.24195  1.0000
  H   H1291     1.0  0.94917  0.67532  0.33195  1.0000
  H   H1292     1.0  0.63232  0.98757  0.43605  1.0000
  C   C1312     1.0  0.00045  0.62747  0.25930  1.0000
  H   H1293     1.0  0.66175  0.91972  0.47301  1.0000
  H   H1294     1.0  0.67479  0.96717  0.32041  1.0000
  C   C1313     1.0  0.59225  0.89264  0.46737  1.0000
  C   C1314     1.0  0.74388  0.97926  0.24687  1.0000
  C   C1315     1.0  0.97115  0.62050  0.34956  1.0000
  C   C1316     1.0  0.52469  0.91523  0.40682  1.0000
  C   C1317     1.0  0.58813  0.86992  0.46378  1.0000
  C   C1318     1.0  0.86881  0.61787  0.23949  1.0000
  H   H1295     1.0  0.90184  0.52389  0.37013  1.0000
  C   C1319     1.0  0.72569  0.97443  0.28322  1.0000
  C   C1320     1.0  0.58122  0.96464  0.41350  1.0000
  H   H1296     1.0  0.96194  0.61231  0.23767  1.0000
  C   C1321     1.0  0.68248  0.82198  0.24348  1.0000
  H   H1297     1.0  0.99276  0.63631  0.43261  1.0000
  H   H1298     1.0  0.81532  0.75044  0.26504  1.0000
  C   C1322     1.0  0.93034  0.50318  0.39688  1.0000
  C   C1323     1.0  0.96785  0.62654  0.36384  1.0000
  C   C1324     1.0  0.76556  0.98601  0.28543  1.0000
  H   H1299     1.0  0.56019  0.98252  0.37839  1.0000
  H   H1300     1.0  0.95337  0.61417  0.25671  1.0000
  H   H1301     1.0  0.55933  0.93935  0.37703  1.0000
  C   C1325     1.0  0.52007  0.95977  0.40508  1.0000
  C   C1326     1.0  0.73672  0.95082  0.31836  1.0000
  H   H1302     1.0  0.99960  0.62496  0.39514  1.0000
  H   H1303     1.0  0.70698  0.99601  0.33164  1.0000
  H   H1304     1.0  0.79632  0.95616  0.28519  1.0000
  C   C1327     1.0  0.95741  0.65048  0.36657  1.0000
  N   N108      1.0  0.69842  0.79312  0.35100  1.0000
  C   C1328     1.0  0.72315  0.78514  0.34741  1.0000
  C   C1329     1.0  0.68312  0.80102  0.34034  1.0000
  C   C1330     1.0  0.73319  0.78510  0.33282  1.0000
  C   C1331     1.0  0.69257  0.80131  0.32564  1.0000
  C   C1332     1.0  0.71773  0.79312  0.32191  1.0000
  C   C1333     1.0  0.68820  0.79225  0.36637  1.0000
  H   H1305     1.0  0.73529  0.77893  0.35586  1.0000
  H   H1306     1.0  0.66363  0.80785  0.34312  1.0000
  H   H1307     1.0  0.75286  0.77901  0.32988  1.0000
  H   H1308     1.0  0.68059  0.80837  0.31718  1.0000
  H   H1309     1.0  0.72534  0.79307  0.31059  1.0000
  H   H1310     1.0  0.68452  0.77325  0.37071  1.0000
  H   H1311     1.0  0.70129  0.79803  0.37294  1.0000
  H   H1312     1.0  0.67063  0.80532  0.36792  1.0000
  N   N109      1.0  0.96409  0.63780  0.33834  1.0000
  H   H1313     1.0  0.58880  0.86692  0.45246  1.0000
  C   C1334     1.0  0.95452  0.66152  0.34086  1.0000
  H   H1314     1.0  0.96277  0.61225  0.32337  1.0000
  H   H1315     1.0  0.79054  0.90170  0.24789  1.0000
  H   H1316     1.0  0.97302  0.61265  0.37275  1.0000
  H   H1317     1.0  0.70593  0.97947  0.28263  1.0000
  C   C1335     1.0  0.65392  0.96507  0.41072  1.0000
  H   H1318     1.0  0.59628  0.90714  0.45866  1.0000
  C   C1336     1.0  0.65155  0.97731  0.43510  1.0000
  C   C1337     1.0  0.76947  0.93836  0.24751  1.0000
  H   H1319     1.0  0.65578  0.95635  0.38870  1.0000
  C   C1338     1.0  0.86677  0.54539  0.39543  1.0000
  H   H1320     1.0  0.87907  0.50728  0.38116  1.0000
  C   C1339     1.0  0.86942  0.56936  0.37228  1.0000
  N   N110      1.0  0.87199  0.54686  0.38062  1.0000
  H   H1321     1.0  0.95543  0.64382  0.31635  1.0000
  C   C1340     1.0  0.54654  0.93890  0.38696  1.0000
  C   C1341     1.0  0.69901  0.83585  0.23443  1.0000
  C   C1342     1.0  0.85225  0.74140  0.25405  1.0000
  H   H1322     1.0  0.64038  0.95274  0.41495  1.0000
  C   C1343     1.0  0.88160  0.52443  0.37363  1.0000
  N   N111      1.0  0.98622  0.62931  0.24813  1.0000
  H   H1323     1.0  0.97938  0.59190  0.25058  1.0000
  C   C1344     1.0  0.73118  0.91750  0.23969  1.0000
  H   H1324     1.0  0.78444  0.94613  0.25090  1.0000
  H   H1325     1.0  0.97527  0.65041  0.22850  1.0000
  H   H1326     1.0  0.87380  0.57066  0.36053  1.0000
  H   H1327     1.0  0.85649  0.56554  0.41412  1.0000
  C   C1345     1.0  0.77311  0.91319  0.24577  1.0000
  H   H1328     1.0  0.65096  0.95768  0.43973  1.0000
  H   H1329     1.0  0.86853  0.52761  0.40208  1.0000
  C   C1346     1.0  0.57559  0.98169  0.42371  1.0000
  H   H1330     1.0  0.83440  0.67713  0.25203  1.0000
  C   C1347     1.0  0.85708  0.58986  0.39391  1.0000
  N   N112      1.0  0.86918  0.72363  0.24793  1.0000
  C   C1348     1.0  0.72813  0.94262  0.24159  1.0000
  H   H1331     1.0  0.95400  0.65521  0.37765  1.0000
  N   N113      1.0  0.71411  0.96555  0.31923  1.0000
  C   C1349     1.0  0.95085  0.66816  0.35502  1.0000
  H   H1332     1.0  0.98727  0.63169  0.31869  1.0000
  H   H1333     1.0  0.52724  0.99142  0.37721  1.0000
  C   C1350     1.0  0.67876  0.99471  0.41437  1.0000
  C   C1351     1.0  0.96769  0.63101  0.32348  1.0000
  H   H1334     1.0  0.94244  0.68674  0.35705  1.0000
  C   C1352     1.0  0.86272  0.70103  0.24687  1.0000
  H   H1335     1.0  0.51144  0.97685  0.40934  1.0000
  H   H1336     1.0  0.71756  0.89558  0.31703  1.0000
  C   C1353     1.0  0.83916  0.69532  0.25265  1.0000
  H   H1337     1.0  0.90126  0.73995  0.24936  1.0000
  C   C1354     1.0  0.51275  0.84819  0.39770  1.0000
  H   H1338     1.0  0.99301  0.59471  0.42940  1.0000
  H   H1339     1.0  0.90751  0.71223  0.24077  1.0000
  C   C1355     1.0  0.98709  0.64846  0.23714  1.0000
  S   S450      1.0  0.99802  0.66866  0.29295  1.0000
  C   C1356     1.0  0.58362  0.85091  0.47485  1.0000
  H   H1340     1.0  0.60758  0.92994  0.47629  1.0000
  H   H1341     1.0  0.89317  0.74045  0.23112  1.0000
  H   H1342     1.0  0.96442  0.61160  0.47621  1.0000
  H   H1343     1.0  0.75698  0.98357  0.25397  1.0000
  H   H1344     1.0  0.99916  0.61283  0.26829  1.0000
  H   H1345     1.0  0.74711  0.98993  0.23598  1.0000
  H   H1346     1.0  0.71605  0.90932  0.23677  1.0000
  H   H1347     1.0  0.71044  0.95395  0.23996  1.0000
  C   C1357     1.0  0.74007  0.99272  0.28464  1.0000
  C   C1358     1.0  0.71255  0.99210  0.32022  1.0000
  C   C1359     1.0  0.91320  0.49973  0.40923  1.0000
  H   H1348     1.0  0.61384  0.99855  0.38661  1.0000
  H   H1349     1.0  0.54114  0.99803  0.39244  1.0000
  Fe  Fe225     1.0  0.91153  0.71991  0.65993  1.0000
  S   S451      1.0  0.88633  0.69106  0.66647  1.0000
  S   S452      1.0  0.89663  0.75927  0.65101  1.0000
  Fe  Fe226     1.0  0.95827  0.68372  0.66711  1.0000
  S   S453      1.0  0.93578  0.65245  0.67445  1.0000
  Fe  Fe227     1.0  0.91646  0.66604  0.65441  1.0000
  S   S454      1.0  0.90695  0.63802  0.64094  1.0000
  Fe  Fe228     1.0  0.90788  0.67996  0.68579  1.0000
  S   S455      1.0  0.88917  0.67777  0.70916  1.0000
  S   S456      1.0  0.94035  0.69566  0.64640  1.0000
  S   S457      1.0  0.93166  0.71048  0.67989  1.0000
  Fe  Fe229     1.0  0.75830  0.90587  0.65925  1.0000
  S   S458      1.0  0.71700  0.90875  0.66449  1.0000
  S   S459      1.0  0.77550  0.94090  0.65058  1.0000
  Fe  Fe230     1.0  0.76597  0.84914  0.66570  1.0000
  S   S460      1.0  0.72474  0.84848  0.67089  1.0000
  S   S461      1.0  0.78750  0.81102  0.67208  1.0000
  Fe  Fe231     1.0  0.72004  0.87689  0.65134  1.0000
  S   S462      1.0  0.68745  0.87615  0.63860  1.0000
  Fe  Fe232     1.0  0.72489  0.87998  0.68347  1.0000
  S   S463      1.0  0.70425  0.88309  0.70604  1.0000
  S   S464      1.0  0.76132  0.87513  0.64493  1.0000
  S   S465      1.0  0.76620  0.87973  0.67940  1.0000
  Fe  Fe233     1.0  0.91740  0.54850  0.55970  1.0000
  S   S466      1.0  0.89541  0.58610  0.55472  1.0000
  H   H1350     1.0  0.89778  0.53880  0.51127  1.0000
  Fe  Fe234     1.0  0.96477  0.56404  0.54360  1.0000
  S   S467      1.0  0.94686  0.60260  0.53692  1.0000
  H   H1351     1.0  0.83453  0.90534  0.68006  1.0000
  Fe  Fe235     1.0  0.92866  0.60081  0.56021  1.0000
  S   S468      1.0  0.93054  0.63357  0.57237  1.0000
  Fe  Fe236     1.0  0.91564  0.58445  0.53209  1.0000
  S   S469      1.0  0.89435  0.59164  0.51238  1.0000
  S   S470      1.0  0.94882  0.56318  0.56704  1.0000
  S   S471      1.0  0.93515  0.54582  0.53692  1.0000
  Fe  Fe237     1.0  0.63248  0.92905  0.53383  1.0000
  S   S472      1.0  0.66592  0.90020  0.53174  1.0000
  S   S473      1.0  0.63241  0.96774  0.52294  1.0000
  Fe  Fe238     1.0  0.60127  0.89392  0.55254  1.0000
  S   S474      1.0  0.63227  0.86185  0.55220  1.0000
  S   S475      1.0  0.56284  0.89342  0.56424  1.0000
  Fe  Fe239     1.0  0.65628  0.88959  0.55586  1.0000
  S   S476      1.0  0.68876  0.88423  0.56949  1.0000
  Fe  Fe240     1.0  0.63893  0.87568  0.52831  1.0000
  S   S477      1.0  0.64443  0.85079  0.51044  1.0000
  S   S478      1.0  0.62463  0.92056  0.55796  1.0000
  S   S479      1.0  0.60616  0.90555  0.52853  1.0000
  H   H1352     1.0  0.57755  0.93218  0.48720  1.0000
  C   C1360     1.0  0.54206  0.88525  0.55356  1.0000
  C   C1361     1.0  0.55082  0.87307  0.54127  1.0000
  C   C1362     1.0  0.53394  0.86634  0.53300  1.0000
  H   H1353     1.0  0.87970  0.58834  0.48439  1.0000
  C   C1363     1.0  0.78100  0.98897  0.65244  1.0000
  H   H1354     1.0  0.95849  0.71156  0.71136  1.0000
  H   H1355     1.0  0.57058  0.86836  0.53833  1.0000
  H   H1356     1.0  0.54077  0.85661  0.52363  1.0000
  C   C1364     1.0  0.64069  0.82619  0.69899  1.0000
  H   H1357     1.0  0.99849  0.56198  0.56525  1.0000
  C   C1365     1.0  0.64944  0.86516  0.49240  1.0000
  C   C1366     1.0  0.65467  0.88947  0.48955  1.0000
  H   H1358     1.0  0.63910  0.90909  0.67741  1.0000
  H   H1359     1.0  0.65625  0.89958  0.49845  1.0000
  H   H1360     1.0  0.88573  0.58854  0.72348  1.0000
  C   C1367     1.0  0.91037  0.59544  0.49464  1.0000
  H   H1361     1.0  0.76781  0.78318  0.70152  1.0000
  C   C1368     1.0  0.93446  0.60161  0.49227  1.0000
  H   H1362     1.0  0.65372  0.81275  0.67826  1.0000
  H   H1363     1.0  0.94383  0.60361  0.50142  1.0000
  C   C1369     1.0  0.68815  0.87893  0.61933  1.0000
  C   C1370     1.0  0.66604  0.87875  0.61328  1.0000
  C   C1371     1.0  0.66581  0.88049  0.59807  1.0000
  C   C1372     1.0  0.68777  0.88246  0.58872  1.0000
  C   C1373     1.0  0.70984  0.88282  0.59477  1.0000
  C   C1374     1.0  0.71005  0.88112  0.60997  1.0000
  H   H1364     1.0  0.64900  0.87699  0.62040  1.0000
  H   H1365     1.0  0.64872  0.87997  0.59361  1.0000
  H   H1366     1.0  0.72695  0.88428  0.58766  1.0000
  H   H1367     1.0  0.72722  0.88124  0.61445  1.0000
  C   C1375     1.0  0.69392  0.85716  0.71711  1.0000
  C   C1376     1.0  0.69529  0.83446  0.71173  1.0000
  H   H1368     1.0  0.70336  0.83230  0.70070  1.0000
  C   C1377     1.0  0.91547  0.63620  0.62200  1.0000
  C   C1378     1.0  0.92699  0.65448  0.61292  1.0000
  C   C1379     1.0  0.93163  0.65329  0.59777  1.0000
  C   C1380     1.0  0.92526  0.63362  0.59157  1.0000
  C   C1381     1.0  0.91431  0.61503  0.60070  1.0000
  C   C1382     1.0  0.90926  0.61645  0.61581  1.0000
  H   H1369     1.0  0.93194  0.66976  0.61750  1.0000
  H   H1370     1.0  0.94008  0.66778  0.59080  1.0000
  H   H1371     1.0  0.90927  0.59981  0.59609  1.0000
  H   H1372     1.0  0.90035  0.60221  0.62272  1.0000
  C   C1383     1.0  0.88163  0.65131  0.72100  1.0000
  C   C1384     1.0  0.88696  0.62747  0.71678  1.0000
  H   H1373     1.0  0.89526  0.62486  0.70581  1.0000
  C   C1385     1.0  0.65023  0.82865  0.68431  1.0000
  C   C1386     1.0  0.86672  0.77403  0.65741  1.0000
  C   C1387     1.0  0.85149  0.76236  0.66860  1.0000
  C   C1388     1.0  0.82740  0.77408  0.67296  1.0000
  C   C1389     1.0  0.81825  0.79761  0.66625  1.0000
  C   C1390     1.0  0.83352  0.80937  0.65511  1.0000
  C   C1391     1.0  0.85763  0.79759  0.65071  1.0000
  H   H1374     1.0  0.85824  0.74427  0.67387  1.0000
  H   H1375     1.0  0.81578  0.76481  0.68160  1.0000
  H   H1376     1.0  0.82671  0.82743  0.64982  1.0000
  H   H1377     1.0  0.86926  0.80674  0.64202  1.0000
  C   C1392     1.0  0.67165  0.96600  0.53848  1.0000
  C   C1393     1.0  0.65620  0.98024  0.52875  1.0000
  H   H1378     1.0  0.70123  0.96571  0.55155  1.0000
  H   H1379     1.0  0.66958  0.94690  0.54209  1.0000
  H   H1380     1.0  0.87556  0.55603  0.53329  1.0000
  C   C1394     1.0  0.77287  0.96726  0.65995  1.0000
  H   H1381     1.0  0.75833  0.94996  0.68074  1.0000
  C   C1395     1.0  0.94459  0.63184  0.72365  1.0000
  H   H1382     1.0  0.84263  0.51969  0.56357  1.0000
  C   C1396     1.0  0.68955  0.97666  0.54387  1.0000
  C   C1397     1.0  0.88159  0.60692  0.72683  1.0000
  N   N114      1.0  0.95158  0.67392  0.71621  1.0000
  H   H1383     1.0  0.66926  0.90361  0.68405  1.0000
  C   C1398     1.0  0.65590  0.99702  0.57377  1.0000
  C   C1399     1.0  0.84164  0.98922  0.66273  1.0000
  N   N115      1.0  0.85004  0.69134  0.63839  1.0000
  C   C1400     1.0  0.83442  0.71002  0.64454  1.0000
  C   C1401     1.0  0.87024  0.69645  0.62880  1.0000
  C   C1402     1.0  0.83840  0.73466  0.64076  1.0000
  C   C1403     1.0  0.87499  0.72082  0.62495  1.0000
  C   C1404     1.0  0.85883  0.74002  0.63090  1.0000
  C   C1405     1.0  0.84603  0.66557  0.64283  1.0000
  H   H1384     1.0  0.81896  0.70593  0.65257  1.0000
  H   H1385     1.0  0.88295  0.68164  0.62421  1.0000
  H   H1386     1.0  0.82617  0.74949  0.64573  1.0000
  H   H1387     1.0  0.89137  0.72475  0.61764  1.0000
  H   H1388     1.0  0.86261  0.75897  0.62824  1.0000
  H   H1389     1.0  0.85520  0.65819  0.65277  1.0000
  H   H1390     1.0  0.82592  0.66399  0.64505  1.0000
  H   H1391     1.0  0.85422  0.65362  0.63419  1.0000
  H   H1392     1.0  0.72047  0.98842  0.64010  1.0000
  H   H1393     1.0  0.64011  0.88521  0.70570  1.0000
  H   H1394     1.0  0.78747  0.98968  0.64094  1.0000
  C   C1406     1.0  0.97412  0.64144  0.70287  1.0000
  C   C1407     1.0  0.76558  0.98698  0.68221  1.0000
  H   H1395     1.0  0.82806  0.54543  0.55184  1.0000
  H   H1396     1.0  0.58701  0.88061  0.50387  1.0000
  H   H1397     1.0  0.97910  0.50497  0.58790  1.0000
  H   H1398     1.0  0.66679  0.81545  0.53279  1.0000
  C   C1408     1.0  0.99234  0.62806  0.55255  1.0000
  C   C1409     1.0  0.75997  0.79266  0.71092  1.0000
  H   H1399     1.0  0.81712  0.90936  0.66459  1.0000
  C   C1410     1.0  0.74850  0.77999  0.72341  1.0000
  C   C1411     1.0  0.96186  0.62408  0.71221  1.0000
  H   H1400     1.0  0.96544  0.60472  0.71045  1.0000
  C   C1412     1.0  0.84374  0.97310  0.65218  1.0000
  H   H1401     1.0  0.69517  0.83047  0.51154  1.0000
  C   C1413     1.0  0.67582  0.98046  0.57891  1.0000
  H   H1402     1.0  0.60553  0.91814  0.49511  1.0000
  H   H1403     1.0  0.66587  0.89506  0.66659  1.0000
  C   C1414     1.0  0.76464  0.96654  0.67482  1.0000
  N   N116      1.0  0.69796  0.83350  0.53380  1.0000
  C   C1415     1.0  0.70289  0.83964  0.51910  1.0000
  C   C1416     1.0  0.70801  0.84480  0.54330  1.0000
  C   C1417     1.0  0.71736  0.85829  0.51357  1.0000
  C   C1418     1.0  0.72276  0.86337  0.53815  1.0000
  C   C1419     1.0  0.72730  0.87024  0.52319  1.0000
  C   C1420     1.0  0.68262  0.81399  0.53931  1.0000
  C   C1421     1.0  0.88610  0.52779  0.51902  1.0000
  H   H1404     1.0  0.70427  0.83990  0.55497  1.0000
  H   H1405     1.0  0.72048  0.86362  0.50192  1.0000
  H   H1406     1.0  0.73000  0.87278  0.54580  1.0000
  H   H1407     1.0  0.73823  0.88501  0.51910  1.0000
  H   H1408     1.0  0.64367  0.83337  0.48284  1.0000
  C   C1422     1.0  0.96865  0.66645  0.70500  1.0000
  H   H1409     1.0  0.69402  0.79553  0.53874  1.0000
  C   C1423     1.0  0.82005  0.91779  0.67429  1.0000
  N   N117      1.0  0.65160  0.87179  0.68513  1.0000
  C   C1424     1.0  0.64243  0.86950  0.69955  1.0000
  C   C1425     1.0  0.65551  0.85176  0.67748  1.0000
  H   H1410     1.0  0.85746  0.54644  0.55835  1.0000
  C   C1426     1.0  0.99797  0.62797  0.56668  1.0000
  H   H1411     1.0  0.83009  0.99438  0.68523  1.0000
  C   C1427     1.0  0.65670  0.89608  0.67792  1.0000
  H   H1412     1.0  0.67441  0.81557  0.55076  1.0000
  H   H1413     1.0  0.66296  0.85351  0.66605  1.0000
  C   C1428     1.0  0.88358  0.50391  0.51667  1.0000
  H   H1414     1.0  0.68810  0.94262  0.58740  1.0000
  C   C1429     1.0  0.82564  0.95803  0.68064  1.0000
  H   H1415     1.0  0.97788  0.67985  0.69746  1.0000
  C   C1430     1.0  0.67267  0.95592  0.58376  1.0000
  C   C1431     1.0  0.63000  0.96556  0.57867  1.0000
  H   H1416     1.0  0.64694  0.92942  0.58749  1.0000
  C   C1432     1.0  0.51642  0.89086  0.55745  1.0000
  C   C1433     1.0  0.64956  0.94846  0.58377  1.0000
  H   H1417     1.0  0.74759  0.76042  0.72364  1.0000
  H   H1418     1.0  0.80204  0.91900  0.68139  1.0000
  H   H1419     1.0  0.81813  0.95249  0.69175  1.0000
  H   H1420     1.0  0.75143  0.84970  0.72228  1.0000
  N   N118      1.0  0.63351  0.98932  0.57344  1.0000
  H   H1421     1.0  0.98328  0.63301  0.57523  1.0000
  H   H1422     1.0  0.61210  0.95958  0.57867  1.0000
  C   C1434     1.0  0.76115  0.81783  0.71054  1.0000
  S   S480      1.0  0.89972  0.51772  0.57337  1.0000
  S   S481      1.0  0.99983  0.67094  0.66831  1.0000
  C   C1435     1.0  0.83651  0.94964  0.65613  1.0000
  C   C1436     1.0  0.58718  0.87782  0.49257  1.0000
  C   C1437     1.0  0.68559  0.81462  0.72056  1.0000
  H   H1423     1.0  0.63695  0.80830  0.70454  1.0000
  H   H1424     1.0  0.97334  0.63356  0.55011  1.0000
  C   C1438     1.0  0.85589  0.50053  0.53901  1.0000
  C   C1439     1.0  0.59576  0.92035  0.48522  1.0000
  N   N119      1.0  0.82744  0.94246  0.67020  1.0000
  H   H1425     1.0  0.83751  0.93748  0.64780  1.0000
  N   N120      1.0  0.85906  0.52369  0.54144  1.0000
  H   H1426     1.0  0.92629  0.70714  0.71433  1.0000
  H   H1427     1.0  0.68622  0.79730  0.71621  1.0000
  H   H1428     1.0  0.98735  0.63572  0.69379  1.0000
  C   C1440     1.0  0.75113  0.82998  0.72262  1.0000
  C   C1441     1.0  0.83256  0.98167  0.67706  1.0000
  C   C1442     1.0  0.89837  0.59300  0.48264  1.0000
  H   H1429     1.0  0.57988  0.84014  0.49809  1.0000
  H   H1430     1.0  0.76001  0.98593  0.69383  1.0000
  C   C1443     1.0  0.94495  0.70028  0.71794  1.0000
  H   H1431     1.0  0.76968  0.82789  0.70083  1.0000
  C   C1444     1.0  0.63667  0.84674  0.70667  1.0000
  C   C1445     1.0  0.93964  0.65698  0.72549  1.0000
  H   H1432     1.0  0.69378  0.98650  0.57861  1.0000
  C   C1446     1.0  0.50827  0.87186  0.53694  1.0000
  H   H1433     1.0  0.53715  0.99546  0.54576  1.0000
  C   C1447     1.0  0.94608  0.60614  0.47796  1.0000
  C   C1448     1.0  0.58309  0.85484  0.48936  1.0000
  C   C1449     1.0  0.84601  0.53435  0.55440  1.0000
  C   C1450     1.0  0.87354  0.53747  0.53152  1.0000
  C   C1451     1.0  0.64760  0.85223  0.48072  1.0000
  H   H1434     1.0  0.85038  0.97894  0.64096  1.0000
  H   H1435     1.0  0.50976  0.90051  0.56685  1.0000
  H   H1436     1.0  0.57912  0.98396  0.53252  1.0000
  H   H1437     1.0  0.60330  0.99771  0.56065  1.0000
  H   H1438     1.0  0.63007  0.84481  0.71822  1.0000
  N   N121      1.0  0.59200  0.89625  0.48162  1.0000
  C   C1452     1.0  0.98983  0.50065  0.57770  1.0000
  H   H1439     1.0  0.95762  0.50353  0.56633  1.0000
  C   C1453     1.0  0.97777  0.49985  0.56558  1.0000
  Fe  Fe241     1.0  0.65071  0.79877  0.80120  1.0000
  S   S482      1.0  0.65032  0.75928  0.81098  1.0000
  S   S483      1.0  0.64850  0.83148  0.81412  1.0000
  Fe  Fe242     1.0  0.65493  0.78561  0.76979  1.0000
  S   S484      1.0  0.65400  0.74525  0.77766  1.0000
  S   S485      1.0  0.66079  0.79246  0.74499  1.0000
  Fe  Fe243     1.0  0.62339  0.75861  0.79467  1.0000
  S   S486      1.0  0.58801  0.74093  0.80205  1.0000
  Fe  Fe244     1.0  0.68080  0.74962  0.79298  1.0000
  S   S487      1.0  0.72012  0.72864  0.79361  1.0000
  S   S488      1.0  0.62234  0.79864  0.78572  1.0000
  S   S489      1.0  0.68300  0.78949  0.78431  1.0000
  Fe  Fe245     1.0  0.80146  0.59583  0.79897  1.0000
  S   S490      1.0  0.83531  0.61463  0.79135  1.0000
  S   S491      1.0  0.76141  0.61402  0.80370  1.0000
  Fe  Fe246     1.0  0.83129  0.54364  0.80104  1.0000
  S   S492      1.0  0.86703  0.55882  0.79369  1.0000
  C   C1454     1.0  0.90031  0.51791  0.87710  1.0000
  Fe  Fe247     1.0  0.85299  0.58755  0.80882  1.0000
  S   S493      1.0  0.88081  0.59665  0.82257  1.0000
  Fe  Fe248     1.0  0.84656  0.58415  0.77688  1.0000
  S   S494      1.0  0.86467  0.58351  0.75342  1.0000
  S   S495      1.0  0.81855  0.57081  0.81739  1.0000
  S   S496      1.0  0.81140  0.56703  0.78334  1.0000
  Fe  Fe249     1.0  0.67462  0.90887  0.89512  1.0000
  S   S497      1.0  0.68989  0.86997  0.90318  1.0000
  S   S498      1.0  0.70178  0.93433  0.88460  1.0000
  Fe  Fe250     1.0  0.62183  0.90061  0.90541  1.0000
  S   S499      1.0  0.63311  0.86129  0.91481  1.0000
  S   S500      1.0  0.58229  0.91842  0.90439  1.0000
  Fe  Fe251     1.0  0.66333  0.87648  0.92333  1.0000
  S   S501      1.0  0.68014  0.86977  0.94472  1.0000
  Fe  Fe252     1.0  0.65826  0.85890  0.89371  1.0000
  S   S502      1.0  0.65963  0.82522  0.88178  1.0000
  S   S503      1.0  0.64978  0.91608  0.91555  1.0000
  S   S504      1.0  0.64523  0.89747  0.88396  1.0000
  Fe  Fe253     1.0  0.91072  0.56687  0.90555  1.0000
  S   S505      1.0  0.93680  0.53103  0.90493  1.0000
  S   S506      1.0  0.87858  0.57483  0.89160  1.0000
  Fe  Fe254     1.0  0.93126  0.57897  0.93245  1.0000
  S   S507      1.0  0.95841  0.54410  0.93368  1.0000
  S   S508      1.0  0.93246  0.60303  0.94999  1.0000
  Fe  Fe255     1.0  0.96552  0.55279  0.90954  1.0000
  H   H1440     1.0  0.74058  0.76779  0.75483  1.0000
  Fe  Fe256     1.0  0.92720  0.52606  0.92915  1.0000
  C   C1455     1.0  0.61198  0.97597  0.89338  1.0000
  S   S509      1.0  0.94048  0.58936  0.90831  1.0000
  S   S510      1.0  0.89911  0.56014  0.92977  1.0000
  C   C1456     1.0  0.92970  0.58640  0.96749  1.0000
  C   C1457     1.0  0.73983  0.81674  0.73494  1.0000
  C   C1458     1.0  0.88378  0.53036  0.83884  1.0000
  H   H1441     1.0  0.89947  0.64658  0.96805  1.0000
  H   H1442     1.0  0.85121  0.52218  0.77620  1.0000
  H   H1443     1.0  0.90585  0.56251  0.96196  1.0000
  C   C1459     1.0  0.56330  0.89525  0.90869  1.0000
  C   C1460     1.0  0.54361  0.89524  0.90060  1.0000
  H   H1444     1.0  0.61003  0.79907  0.89504  1.0000
  C   C1461     1.0  0.53689  0.85488  0.91318  1.0000
  C   C1462     1.0  0.55615  0.85522  0.92149  1.0000
  C   C1463     1.0  0.56915  0.87553  0.91935  1.0000
  H   H1445     1.0  0.89132  0.53857  0.82825  1.0000
  H   H1446     1.0  0.61565  0.70687  0.76022  1.0000
  H   H1447     1.0  0.56097  0.83982  0.92962  1.0000
  H   H1448     1.0  0.58371  0.87594  0.92600  1.0000
  C   C1464     1.0  0.66236  0.87045  0.96200  1.0000
  H   H1449     1.0  0.95256  0.60758  0.97639  1.0000
  H   H1450     1.0  0.75501  0.63527  0.83408  1.0000
  H   H1451     1.0  0.88755  0.52401  0.88664  1.0000
  H   H1452     1.0  0.62743  0.86852  0.95447  1.0000
  C   C1465     1.0  0.87976  0.59058  0.84178  1.0000
  C   C1466     1.0  0.90120  0.59143  0.84833  1.0000
  C   C1467     1.0  0.90129  0.58638  0.86355  1.0000
  C   C1468     1.0  0.87973  0.58093  0.87239  1.0000
  C   C1469     1.0  0.85826  0.58014  0.86584  1.0000
  C   C1470     1.0  0.85829  0.58476  0.85061  1.0000
  H   H1453     1.0  0.91786  0.59601  0.84159  1.0000
  H   H1454     1.0  0.91789  0.58718  0.86845  1.0000
  H   H1455     1.0  0.84150  0.57594  0.87261  1.0000
  H   H1456     1.0  0.84168  0.58404  0.84573  1.0000
  C   C1471     1.0  0.55917  0.75044  0.79484  1.0000
  C   C1472     1.0  0.55737  0.76597  0.78175  1.0000
  C   C1473     1.0  0.53510  0.77013  0.77523  1.0000
  C   C1474     1.0  0.51559  0.74477  0.79532  1.0000
  C   C1475     1.0  0.76436  0.70362  0.82366  1.0000
  C   C1476     1.0  0.53801  0.74028  0.80173  1.0000
  H   H1457     1.0  0.57340  0.77407  0.77636  1.0000
  H   H1458     1.0  0.53425  0.78139  0.76481  1.0000
  H   H1459     1.0  0.53926  0.72814  0.81183  1.0000
  C   C1477     1.0  0.65321  0.82906  0.83275  1.0000
  C   C1478     1.0  0.65543  0.80632  0.84157  1.0000
  C   C1479     1.0  0.65791  0.80540  0.85649  1.0000
  C   C1480     1.0  0.65821  0.82714  0.86275  1.0000
  C   C1481     1.0  0.65637  0.84982  0.85388  1.0000
  C   C1482     1.0  0.65381  0.85075  0.83898  1.0000
  H   H1460     1.0  0.65505  0.78948  0.83693  1.0000
  H   H1461     1.0  0.65944  0.78775  0.86324  1.0000
  H   H1462     1.0  0.65672  0.86667  0.85850  1.0000
  H   H1463     1.0  0.65219  0.86841  0.83224  1.0000
  C   C1483     1.0  0.73049  0.69641  0.79430  1.0000
  C   C1484     1.0  0.75606  0.68827  0.79119  1.0000
  C   C1485     1.0  0.76569  0.66295  0.79330  1.0000
  C   C1486     1.0  0.74981  0.64551  0.79871  1.0000
  C   C1487     1.0  0.72414  0.65356  0.80142  1.0000
  C   C1488     1.0  0.71447  0.67889  0.79916  1.0000
  H   H1464     1.0  0.76859  0.70172  0.78744  1.0000
  H   H1465     1.0  0.78545  0.65701  0.79115  1.0000
  H   H1466     1.0  0.71174  0.64017  0.80563  1.0000
  H   H1467     1.0  0.69480  0.68491  0.80168  1.0000
  C   C1489     1.0  0.53033  0.87504  0.90288  1.0000
  C   C1490     1.0  0.86416  0.51119  0.86622  1.0000
  C   C1491     1.0  0.67415  0.83956  0.74045  1.0000
  H   H1468     1.0  0.68276  0.97228  0.86048  1.0000
  C   C1492     1.0  0.63684  0.86938  0.96382  1.0000
  H   H1469     1.0  0.66577  0.84174  0.75147  1.0000
  H   H1470     1.0  0.50826  0.93939  0.91500  1.0000
  N   N122      1.0  0.88664  0.51961  0.86447  1.0000
  C   C1493     1.0  0.87082  0.60998  0.74115  1.0000
  C   C1494     1.0  0.86551  0.63383  0.74534  1.0000
  C   C1495     1.0  0.72650  0.96992  0.89091  1.0000
  H   H1471     1.0  0.85721  0.63646  0.75631  1.0000
  C   C1496     1.0  0.86689  0.61481  0.97026  1.0000
  H   H1472     1.0  0.53912  0.91043  0.89228  1.0000
  H   H1473     1.0  0.99484  0.58053  0.92084  1.0000
  C   C1497     1.0  0.80248  0.64070  0.82607  1.0000
  H   H1474     1.0  0.51542  0.87485  0.89643  1.0000
  C   C1498     1.0  0.91447  0.56786  0.97058  1.0000
  H   H1475     1.0  0.91482  0.53033  0.87510  1.0000
  C   C1499     1.0  0.69771  0.97469  0.94530  1.0000
  C   C1500     1.0  0.70421  0.95991  0.89343  1.0000
  C   C1501     1.0  0.68425  0.97089  0.90250  1.0000
  H   H1476     1.0  0.60397  0.73542  0.76806  1.0000
  H   H1477     1.0  0.66694  0.96340  0.90448  1.0000
  H   H1478     1.0  0.76693  0.72274  0.82017  1.0000
  H   H1479     1.0  0.61072  0.95700  0.89107  1.0000
  H   H1480     1.0  0.80963  0.63603  0.83684  1.0000
  H   H1481     1.0  0.89086  0.51188  0.91861  1.0000
  H   H1482     1.0  0.50537  0.86890  0.94962  1.0000
  H   H1483     1.0  0.71867  0.66818  0.83528  1.0000
  H   H1484     1.0  0.59716  0.82815  0.84634  1.0000
  C   C1502     1.0  0.59681  0.82184  0.86975  1.0000
  H   H1485     1.0  0.71490  0.76557  0.74495  1.0000
  H   H1486     1.0  0.92400  0.50035  0.97393  1.0000
  H   H1487     1.0  0.56980  0.73057  0.75211  1.0000
  H   H1488     1.0  0.84915  0.62729  0.96895  1.0000
  C   C1503     1.0  0.53935  0.71272  0.76316  1.0000
  C   C1504     1.0  0.85079  0.51245  0.85432  1.0000
  H   H1489     1.0  0.66412  0.95867  0.95260  1.0000
  N   N123      1.0  0.57937  0.70858  0.77172  1.0000
  H   H1490     1.0  0.73165  0.82646  0.74417  1.0000
  H   H1491     1.0  0.91431  0.53582  0.84957  1.0000
  H   H1492     1.0  0.83980  0.53581  0.75941  1.0000
  H   H1493     1.0  0.87234  0.52473  0.75961  1.0000
  H   H1494     1.0  0.80305  0.68936  0.81943  1.0000
  C   C1505     1.0  0.64910  0.97316  0.87542  1.0000
  C   C1506     1.0  0.59418  0.87271  0.86856  1.0000
  H   H1495     1.0  0.94437  0.70322  0.72951  1.0000
  H   H1496     1.0  0.58361  0.68655  0.79214  1.0000
  C   C1507     1.0  0.73721  0.67302  0.83218  1.0000
  H   H1497     1.0  0.59340  0.89255  0.86831  1.0000
  C   C1508     1.0  0.72105  0.97158  0.93722  1.0000
  C   C1509     1.0  0.87091  0.65435  0.73531  1.0000
  H   H1498     1.0  0.51195  0.69384  0.77708  1.0000
  C   C1510     1.0  0.57147  0.69345  0.78376  1.0000
  C   C1511     1.0  0.72638  0.77847  0.74808  1.0000
  H   H1499     1.0  0.59320  0.98690  0.89284  1.0000
  H   H1500     1.0  0.52658  0.72123  0.75536  1.0000
  C   C1512     1.0  0.53109  0.69740  0.77541  1.0000
  H   H1501     1.0  0.81777  0.64622  0.81779  1.0000
  H   H1502     1.0  0.61451  0.70822  0.77950  1.0000
  S   S511      1.0  0.52101  0.82930  0.91587  1.0000
  H   H1503     1.0  0.92540  0.66302  0.73402  1.0000
  H   H1504     1.0  0.61683  0.97487  0.90466  1.0000
  C   C1513     1.0  0.56373  0.71808  0.76145  1.0000
  H   H1505     1.0  0.51772  0.89920  0.92897  1.0000
  H   H1506     1.0  0.51370  0.77574  0.84529  1.0000
  H   H1507     1.0  0.79713  0.62380  0.82280  1.0000
  C   C1514     1.0  0.59531  0.85739  0.88176  1.0000
  H   H1508     1.0  0.86672  0.67272  0.73868  1.0000
  H   H1509     1.0  0.57806  0.81250  0.90041  1.0000
  H   H1510     1.0  0.68244  0.87703  0.73580  1.0000
  N   N124      1.0  0.73832  0.79214  0.73513  1.0000
  C   C1515     1.0  0.59594  0.83657  0.85631  1.0000
  H   H1511     1.0  0.59833  0.80193  0.87009  1.0000
  N   N125      1.0  0.63055  0.98752  0.88304  1.0000
  H   H1512     1.0  0.93442  0.61865  0.73078  1.0000
  H   H1513     1.0  0.59553  0.86563  0.89159  1.0000
  H   H1514     1.0  0.59453  0.87370  0.84536  1.0000
  C   C1516     1.0  0.67475  0.81716  0.73489  1.0000
  C   C1517     1.0  0.68351  0.85955  0.73153  1.0000
  H   H1515     1.0  0.67842  0.92151  0.93999  1.0000
  C   C1518     1.0  0.75785  0.65450  0.83146  1.0000
  C   C1519     1.0  0.86070  0.52215  0.84056  1.0000
  C   C1520     1.0  0.78462  0.68464  0.82313  1.0000
  H   H1516     1.0  0.73289  0.98591  0.93604  1.0000
  H   H1517     1.0  0.74196  0.96158  0.88386  1.0000
  H   H1518     1.0  0.85637  0.50365  0.87691  1.0000
  C   C1521     1.0  0.51425  0.75922  0.78183  1.0000
  C   C1522     1.0  0.66765  0.98392  0.86610  1.0000
  C   C1523     1.0  0.60464  0.71497  0.76973  1.0000
  N   N126      1.0  0.59669  0.83231  0.88223  1.0000
  H   H1519     1.0  0.83278  0.50616  0.85574  1.0000
  C   C1524     1.0  0.59711  0.81658  0.89622  1.0000
  N   N127      1.0  0.71305  0.93305  0.93083  1.0000
  H   H1520     1.0  0.74614  0.94890  0.92316  1.0000
  C   C1525     1.0  0.69045  0.93559  0.93911  1.0000
  C   C1526     1.0  0.89664  0.52885  0.85097  1.0000
  H   H1521     1.0  0.71344  0.79112  0.75488  1.0000
  H   H1522     1.0  0.79971  0.50848  0.78683  1.0000
  C   C1527     1.0  0.72058  0.91136  0.92293  1.0000
  H   H1523     1.0  0.65014  0.95318  0.87684  1.0000
  C   C1528     1.0  0.68233  0.95651  0.94636  1.0000
  H   H1524     1.0  0.60405  0.82572  0.90444  1.0000
  C   C1529     1.0  0.85344  0.52090  0.76431  1.0000
  N   N128      1.0  0.78112  0.66042  0.82678  1.0000
  H   H1525     1.0  0.72270  0.89420  0.93072  1.0000
  H   H1526     1.0  0.70624  0.91006  0.91587  1.0000
  H   H1527     1.0  0.73828  0.91241  0.91569  1.0000
  C   C1530     1.0  0.74052  0.69771  0.82816  1.0000
  H   H1528     1.0  0.72456  0.71219  0.82802  1.0000
  C   C1531     1.0  0.59459  0.86217  0.85575  1.0000
  C   C1532     1.0  0.72840  0.95062  0.92990  1.0000
  C   C1533     1.0  0.54725  0.68758  0.78577  1.0000
  H   H1529     1.0  0.54082  0.67616  0.79552  1.0000
  H   H1530     1.0  0.69146  0.99138  0.95051  1.0000
  H   H1531     1.0  0.87926  0.61625  0.95978  1.0000
  H   H1532     1.0  0.85043  0.52350  0.83126  1.0000
  H   H1533     1.0  0.86323  0.59529  0.97241  1.0000
  S   S512      1.0  0.83616  0.50196  0.80775  1.0000
  C   C1534     1.0  0.67435  0.87142  0.97427  1.0000
  H   H1534     1.0  0.74644  0.99796  0.89570  1.0000
  C   C1535     1.0  0.68648  0.99212  0.90876  1.0000
  C   C1536     1.0  0.72903  0.99054  0.89755  1.0000
  H   H1535     1.0  0.69412  0.87213  0.97296  1.0000
  H   H1536     1.0  0.82389  0.50986  0.74621  1.0000
