data_image0
_chemical_formula_structural       FeS2FeS2FeSFeCS3FeS2CNCHSHSFeSFeHFeS2FeS2FeSFeS3H2C6H4CHC6H9C2SC6H4C2SC2HCFeNH3CH2CHC3H3CH2FeCH2CHNCH4CHCHNC6H8C3HCHCH2C4H2NCH2CH3C2SCHCHCSHCH3CHC3H3FeS2FeS2FeSFeHS2HSFeSFeCFeS2H3NHSFeS2FeS2FeSFeS3HCHC6H12C6H4C6H4C3HSH2CH2C3HC2HNC4H3C4H4NCHC3H2C2SCHSCHC5HC2HC2NH2CHC3H2CHFeCS2H2NH2CHCH2CH2NH2CFeHCH2FeC2FeHSFeSHFeSNFeSFeS3HFeS2HC2HC2FeS2HCSFeS2FeS2FeSFeS3CNC2H2C6H4C10H4C2HFeH3CHC6H4CFeH2FeH5S2H3C3H4NHCH2CNCHNSH2S2H2C4H3CHC2H2SHCSHC2H3CHC5H3C3H2C2HFeHCFeC3HCH3C2H2FeS2FeSCFeSFeS3NFeS2FeSC3NH2FeS3HC3SFeS2FeS2FeSFeS3HCFeHC6H6CHCH2C7H6C3SCNHC6H4C2SHCH6C2HC2NC6H8CHSHCHCHC3HCHCNC6H6SFeH2CH3C3HCHC2HFeCH3FeS2FeS2FeSFeS3FeS2FeSCFeSFeS4CSFeSC2H2SC3HCNC7H4C3SHC6H4C3HCH2CHCHCH2C3SH3NCH3C2HC4H4CH3CH3C2NH4CH4CHNC2HC2SHCHC2H2C2HCNCHCHSHCH3NHCFeHCHCNHC6HCHC2FeCHC2H2C2HCHC2H2CH2NCFeS2FeS2FeSFeS3FeS2FeS2FeSFeS3FeSHCHSH2SHC2NH2C6H4CH2C3NH3C3H2C6H4CH4C3H2C4HNC6H10C3H2CH4CH5C2H2CSHCH2CHNC6HCHC3H2CHSHC2HCHNCSC3H4CFeS2FeS2FeSFeS3FeS2FeS2FeSFeS3HSCSCH6CFeCHC2HC6H4C2SHC2HCH2C3H2C6H4CHC4HSHC3HCHC3HCH4CHCNCH2NCNH2CH8C4H2C3NC3H2C3HCHCHCHNH4CHCNH2CH2CHCH3CH2CH3CHSHCSCHFeS2FeS2FeSFeS3FeS2FeS2FeSFeS3CSCNH2C6H4C5H3C6HCHFeH2C2HC6H4CH3SH2C3FeH5CH3C4SC3S2CHCH2CH4C2H2CH3CH4C3NCHC3H2CH4CH2C2NCH3NHC3HCSCHCH3C2HNHNHCHCH2CHC5H3FeS2FeS2FeSFeS3FeS2FeSHFeSFeS3FeHSHC2S4FeSC6H2CHSHC7H5CNHCFeH2CH2C6H6FeC3H2CHCH2C2SH2CHFeHCH3NCHCHCHC2HCHC2H2N2HSCHNC6H2CH6C5SCH4SCH2C4H3C2H2CHCH2CHC2FeHCHCSFeS2FeS2FeSFeS3FeS2FeS2FeSFeS3FeSCSFeSFeCSCFeHSFeS2CH2C6H2CSC6H4C2H2CH3CH3C6H9C4HNHCH2CHCSNC6H8CHNC2H2CHCHC2HC3HFeC3HC5NH2NHC4HCNH4CHCSHC2H3C2HCH3C2H5CSCH2SC3FeS2FeS2FeSFeS3FeS2FeS2FeSFeS3HSHSFeSFeSFeS2H4FeHS2H2C4FeC3HC2HCH2C6H4C2NH3CH3CHCNC6H4CFeH3C4NH2C2HCH3C7HCHC2H2NH2CH2NH2NC6H5C5HC2HFeC2HCH2CH2NHCH2C2H3C3H2C2H3S2H3C3HCHC2HCFeS2FeS2FeSFeS3FeS2FeS2FeSFeS3FeS2FeHFeS2FeSFeSC2HSHCHC4NSH4C7H4C3HCH3CHC5H4C4H2C6H4CHCHNHSH3CH5CH4CH5CHCHNHNC6HCHCNC6H2CH3SCHC4FeS2NH2CH2C2HC2H4CH3C2HCH2CHNCHCFeS2FeS2FeSFeS3NHSH4SHCHFeS2FeS2FeSFeS3C5H3C6H5C6H4NCH3C7H4CHCH3C5FeH3CH2CSCHCHCH2C3HCHCHCHC2HNC4HCH2CSCH2NC6H8NH3CHC6H2CH2C2H2FeHCHNC2H2NSHC2H3NC2HFeS2FeS2FeSFeS3FeS2FeS2FeSFeS3HSH3CSCHC6H4C6H4C4HNC7H4C2HCH4C4H4C3HC2NC5H7C2HCH2CH2CHCH3CHCHCHC2HCSCH3C2HCHCH4CHCHN2CNHC2HFeCH2C2H2CHFeCH3SH2C2FeS2FeS2FeSFeS3CSH2FeS2FeS2FeSFeS3H3CSC6H4C3HCHCHC6H6C6H5C2HC7H2CH5CNC6H8NC2HCHCH2CHSH4SHCHCHC5NHNSNH2CH3C4HCHC2NCHCH4C2HCHC2HCSCFeHCFeS2FeS2FeSFeS3FeS2FeS2FeSFeS3H2SC3HCHSNCHNHC9H4C6H4C2H2CH2C6H4CHCHC2H4NCH2C6HCNCH4CH2NHCHCH3C2HC2HFeC3HC2H2CHC2SHNHCH6C2H5CHC3HCHCH2C2H2CFeHC2HSH3CH2CH3
_chemical_formula_sum              "Fe192 S384 C1152 N96 H1152"
_cell_length_a       63.3233
_cell_length_b       62.7796
_cell_length_c       62.0754
_cell_angle_alpha    85.8236
_cell_angle_beta     84.9486
_cell_angle_gamma    86.6454

_space_group_name_H-M_alt    "P 1"
_space_group_IT_number       1

loop_
  _space_group_symop_operation_xyz
  'x, y, z'

loop_
  _atom_site_type_symbol
  _atom_site_label
  _atom_site_symmetry_multiplicity
  _atom_site_fract_x
  _atom_site_fract_y
  _atom_site_fract_z
  _atom_site_occupancy
  Fe  Fe1       1.0  0.08030  0.37217  0.43936  1.0000
  S   S1        1.0  0.04904  0.39058  0.43858  1.0000
  S   S2        1.0  0.09905  0.37074  0.46895  1.0000
  Fe  Fe2       1.0  0.08053  0.36065  0.39222  1.0000
  S   S3        1.0  0.04957  0.37898  0.38785  1.0000
  S   S4        1.0  0.09796  0.34459  0.36357  1.0000
  Fe  Fe3       1.0  0.06201  0.40443  0.40622  1.0000
  S   S5        1.0  0.05195  0.43902  0.39802  1.0000
  Fe  Fe4       1.0  0.03941  0.36367  0.42049  1.0000
  C   C1        1.0  0.08942  0.49507  0.41493  1.0000
  S   S6        1.0  0.09419  0.38770  0.40781  1.0000
  S   S7        1.0  0.06959  0.34368  0.42403  1.0000
  S   S8        1.0  0.23584  0.07032  0.29856  1.0000
  Fe  Fe5       1.0  0.20822  0.23641  0.13144  1.0000
  S   S9        1.0  0.22442  0.20491  0.12283  1.0000
  S   S10       1.0  0.17383  0.23277  0.14455  1.0000
  C   C2        1.0  0.06653  0.26686  0.21546  1.0000
  N   N1        1.0  0.17255  0.20379  0.22802  1.0000
  C   C3        1.0  0.07736  0.24478  0.18583  1.0000
  H   H1        1.0  0.08575  0.29347  0.21799  1.0000
  S   S11       1.0  0.22101  0.25353  0.10012  1.0000
  H   H2        1.0  0.00722  0.26639  0.28784  1.0000
  S   S12       1.0  0.20816  0.08025  0.25651  1.0000
  Fe  Fe6       1.0  0.21862  0.09892  0.28267  1.0000
  S   S13       1.0  0.19820  0.12298  0.30210  1.0000
  Fe  Fe7       1.0  0.23843  0.09033  0.23782  1.0000
  H   H3        1.0  0.09447  0.44067  0.41271  1.0000
  Fe  Fe8       1.0  0.08526  0.23989  0.30190  1.0000
  S   S14       1.0  0.06739  0.21136  0.29472  1.0000
  S   S15       1.0  0.07896  0.25212  0.33570  1.0000
  Fe  Fe9       1.0  0.10539  0.24512  0.25530  1.0000
  S   S16       1.0  0.08805  0.21826  0.24464  1.0000
  S   S17       1.0  0.12947  0.26386  0.23343  1.0000
  Fe  Fe10      1.0  0.05914  0.23105  0.26463  1.0000
  S   S18       1.0  0.02635  0.23943  0.25196  1.0000
  Fe  Fe11      1.0  0.09788  0.20085  0.27554  1.0000
  S   S19       1.0  0.11267  0.16744  0.26998  1.0000
  S   S20       1.0  0.07593  0.25989  0.27255  1.0000
  S   S21       1.0  0.11629  0.22745  0.28547  1.0000
  H   H4        1.0  0.10574  0.46155  0.49251  1.0000
  H   H5        1.0  0.01220  0.20001  0.27650  1.0000
  C   C4        1.0  0.17624  0.13731  0.29101  1.0000
  C   C5        1.0  0.16738  0.13053  0.27297  1.0000
  C   C6        1.0  0.14819  0.14033  0.26639  1.0000
  C   C7        1.0  0.13792  0.15733  0.27741  1.0000
  C   C8        1.0  0.14727  0.16476  0.29484  1.0000
  C   C9        1.0  0.16624  0.15466  0.30171  1.0000
  H   H6        1.0  0.17487  0.11721  0.26458  1.0000
  H   H7        1.0  0.14107  0.13447  0.25290  1.0000
  H   H8        1.0  0.13944  0.17773  0.30356  1.0000
  H   H9        1.0  0.17290  0.15998  0.31573  1.0000
  C   C10       1.0  0.06178  0.44434  0.45924  1.0000
  H   H10       1.0  0.20387  0.25588  0.01272  1.0000
  C   C11       1.0  0.16324  0.24023  0.17038  1.0000
  C   C12       1.0  0.17055  0.25760  0.17992  1.0000
  C   C13       1.0  0.16032  0.26439  0.19951  1.0000
  C   C14       1.0  0.14298  0.25365  0.20991  1.0000
  C   C15       1.0  0.13613  0.23585  0.20074  1.0000
  C   C16       1.0  0.14604  0.22937  0.18092  1.0000
  H   H11       1.0  0.18363  0.26624  0.17183  1.0000
  H   H12       1.0  0.16568  0.27824  0.20645  1.0000
  H   H13       1.0  0.12279  0.22746  0.20855  1.0000
  H   H14       1.0  0.14026  0.21595  0.17358  1.0000
  H   H15       1.0  0.23198  0.16896  0.15530  1.0000
  H   H16       1.0  0.12640  0.28231  0.17315  1.0000
  H   H17       1.0  0.21984  0.13364  0.17041  1.0000
  H   H18       1.0  0.21680  0.20124  0.18106  1.0000
  H   H19       1.0  0.16170  0.19706  0.26098  1.0000
  C   C17       1.0  0.06531  0.46597  0.46060  1.0000
  C   C18       1.0  0.20115  0.22010  0.20596  1.0000
  S   S22       1.0  0.21405  0.01930  0.27878  1.0000
  C   C19       1.0  0.09141  0.31942  0.35543  1.0000
  C   C20       1.0  0.10071  0.31220  0.33567  1.0000
  C   C21       1.0  0.09662  0.29189  0.32912  1.0000
  C   C22       1.0  0.08351  0.27838  0.34252  1.0000
  C   C23       1.0  0.07428  0.28558  0.36232  1.0000
  C   C24       1.0  0.07800  0.30607  0.36865  1.0000
  H   H20       1.0  0.11114  0.32238  0.32535  1.0000
  H   H21       1.0  0.10392  0.28654  0.31390  1.0000
  H   H22       1.0  0.06409  0.27526  0.37277  1.0000
  H   H23       1.0  0.07060  0.31145  0.38381  1.0000
  C   C25       1.0  0.06703  0.46028  0.40408  1.0000
  C   C26       1.0  0.05806  0.48123  0.40218  1.0000
  S   S23       1.0  0.23528  0.10355  0.20313  1.0000
  C   C27       1.0  0.09855  0.47413  0.41662  1.0000
  C   C28       1.0  0.08737  0.45675  0.41127  1.0000
  H   H24       1.0  0.02141  0.41585  0.36877  1.0000
  C   C29       1.0  0.12786  0.31920  0.39846  1.0000
  Fe  Fe12      1.0  0.23949  0.22288  0.09323  1.0000
  N   N2        1.0  0.08102  0.47194  0.47234  1.0000
  H   H25       1.0  0.09457  0.30080  0.43974  1.0000
  H   H26       1.0  0.10447  0.25492  0.16519  1.0000
  H   H27       1.0  0.00894  0.24110  0.30259  1.0000
  C   C30       1.0  0.09379  0.25843  0.17929  1.0000
  H   H28       1.0  0.23887  0.13931  0.32937  1.0000
  H   H29       1.0  0.07536  0.23087  0.17696  1.0000
  C   C31       1.0  0.09009  0.43502  0.48232  1.0000
  H   H30       1.0  0.16649  0.17190  0.22158  1.0000
  C   C32       1.0  0.11335  0.29038  0.18326  1.0000
  C   C33       1.0  0.20454  0.20180  0.19442  1.0000
  C   C34       1.0  0.09329  0.45681  0.48321  1.0000
  H   H31       1.0  0.10662  0.30432  0.17362  1.0000
  H   H32       1.0  0.09606  0.29484  0.41194  1.0000
  H   H33       1.0  0.05401  0.37089  0.48299  1.0000
  C   C35       1.0  0.18509  0.22078  0.22293  1.0000
  H   H34       1.0  0.18238  0.23518  0.23167  1.0000
  H   H35       1.0  0.05597  0.27022  0.22970  1.0000
  Fe  Fe13      1.0  0.22789  0.05222  0.27038  1.0000
  C   C36       1.0  0.07429  0.42883  0.47017  1.0000
  H   H36       1.0  0.12068  0.29612  0.19728  1.0000
  H   H37       1.0  0.07191  0.41200  0.46913  1.0000
  C   C37       1.0  0.06359  0.24913  0.20398  1.0000
  H   H38       1.0  0.04979  0.43966  0.44930  1.0000
  N   N3        1.0  0.09663  0.27570  0.19077  1.0000
  C   C38       1.0  0.19208  0.18432  0.20012  1.0000
  H   H39       1.0  0.05581  0.47790  0.45163  1.0000
  H   H40       1.0  0.11425  0.47134  0.42219  1.0000
  H   H41       1.0  0.14164  0.19641  0.24208  1.0000
  H   H42       1.0  0.00525  0.26508  0.31722  1.0000
  C   C39       1.0  0.99989  0.41695  0.40668  1.0000
  H   H43       1.0  0.04240  0.48411  0.39650  1.0000
  C   C40       1.0  0.17611  0.18555  0.21716  1.0000
  H   H44       1.0  0.21068  0.23381  0.20153  1.0000
  N   N4        1.0  0.15032  0.09020  0.30758  1.0000
  C   C41       1.0  0.16764  0.07795  0.31377  1.0000
  C   C42       1.0  0.14065  0.08576  0.28968  1.0000
  C   C43       1.0  0.17566  0.06067  0.30196  1.0000
  C   C44       1.0  0.14840  0.06871  0.27737  1.0000
  C   C45       1.0  0.16593  0.05603  0.28368  1.0000
  C   C46       1.0  0.14133  0.10737  0.32098  1.0000
  H   H45       1.0  0.17551  0.08168  0.32776  1.0000
  H   H46       1.0  0.12701  0.09557  0.28469  1.0000
  H   H47       1.0  0.18950  0.05104  0.30673  1.0000
  H   H48       1.0  0.14092  0.06540  0.26299  1.0000
  H   H49       1.0  0.17224  0.04280  0.27425  1.0000
  H   H50       1.0  0.15405  0.11510  0.32836  1.0000
  H   H51       1.0  0.13297  0.12020  0.31111  1.0000
  H   H52       1.0  0.12992  0.10083  0.33404  1.0000
  C   C47       1.0  0.21590  0.24296  0.01355  1.0000
  C   C48       1.0  0.22270  0.23533  0.03390  1.0000
  C   C49       1.0  0.08328  0.28000  0.20867  1.0000
  H   H53       1.0  0.12499  0.30828  0.38637  1.0000
  C   C50       1.0  0.06261  0.37363  0.49673  1.0000
  H   H54       1.0  0.15027  0.22152  0.24863  1.0000
  C   C51       1.0  0.08476  0.37388  0.49442  1.0000
  H   H55       1.0  0.14616  0.33955  0.37531  1.0000
  H   H56       1.0  0.21586  0.24234  0.04851  1.0000
  C   C52       1.0  0.00845  0.42857  0.36851  1.0000
  C   C53       1.0  0.15578  0.20473  0.24582  1.0000
  C   C54       1.0  0.13424  0.34824  0.42851  1.0000
  C   C55       1.0  0.14307  0.35152  0.40722  1.0000
  H   H57       1.0  0.11488  0.32840  0.45079  1.0000
  H   H58       1.0  0.05081  0.23866  0.20936  1.0000
  N   N5        1.0  0.11874  0.31643  0.41921  1.0000
  C   C56       1.0  0.23820  0.21858  0.03528  1.0000
  H   H59       1.0  0.19475  0.16993  0.19137  1.0000
  H   H60       1.0  0.24051  0.29383  0.02979  1.0000
  C   C57       1.0  0.00098  0.22845  0.25860  1.0000
  H   H61       1.0  0.15192  0.36560  0.40233  1.0000
  H   H62       1.0  0.01572  0.44428  0.36844  1.0000
  H   H63       1.0  0.24421  0.10532  0.13217  1.0000
  C   C58       1.0  0.00086  0.25732  0.30285  1.0000
  C   C59       1.0  0.23215  0.14106  0.17779  1.0000
  S   S24       1.0  0.23409  0.24636  0.15053  1.0000
  C   C60       1.0  0.12209  0.33047  0.43430  1.0000
  H   H64       1.0  0.11626  0.28354  0.42894  1.0000
  C   C61       1.0  0.23901  0.16110  0.16920  1.0000
  H   H65       1.0  0.13629  0.35967  0.44037  1.0000
  C   C62       1.0  0.14001  0.33685  0.39211  1.0000
  S   S25       1.0  0.00731  0.35093  0.42970  1.0000
  H   H66       1.0  0.01633  0.41150  0.40774  1.0000
  C   C63       1.0  0.10583  0.29796  0.42532  1.0000
  H   H67       1.0  0.01005  0.36343  0.38359  1.0000
  H   H68       1.0  0.09985  0.42294  0.49081  1.0000
  H   H69       1.0  0.24625  0.00588  0.24451  1.0000
  C   C64       1.0  0.08489  0.49462  0.47350  1.0000
  H   H70       1.0  0.00074  0.42759  0.35324  1.0000
  C   C65       1.0  0.24171  0.13017  0.19529  1.0000
  C   C66       1.0  0.99842  0.20902  0.27086  1.0000
  C   C67       1.0  0.24678  0.20960  0.01607  1.0000
  H   H71       1.0  0.24673  0.11504  0.31627  1.0000
  H   H72       1.0  0.24577  0.14051  0.30082  1.0000
  H   H73       1.0  0.10170  0.49761  0.46788  1.0000
  Fe  Fe14      1.0  0.08621  0.41498  0.61992  1.0000
  S   S26       1.0  0.05585  0.42153  0.60434  1.0000
  S   S27       1.0  0.10797  0.44223  0.61915  1.0000
  Fe  Fe15      1.0  0.07686  0.36915  0.63460  1.0000
  S   S28       1.0  0.04531  0.37197  0.62062  1.0000
  S   S29       1.0  0.08957  0.33685  0.64836  1.0000
  Fe  Fe16      1.0  0.06170  0.38907  0.59139  1.0000
  S   S30       1.0  0.04747  0.38320  0.56022  1.0000
  Fe  Fe17      1.0  0.04145  0.40410  0.63415  1.0000
  H   H74       1.0  0.01354  0.41536  0.60199  1.0000
  S   S31       1.0  0.09394  0.38389  0.60411  1.0000
  S   S32       1.0  0.07141  0.39993  0.65116  1.0000
  H   H75       1.0  0.11563  0.48699  0.60940  1.0000
  S   S33       1.0  0.21283  0.22412  0.91002  1.0000
  Fe  Fe18      1.0  0.22329  0.25152  0.88716  1.0000
  S   S34       1.0  0.20179  0.26940  0.86367  1.0000
  Fe  Fe19      1.0  0.23065  0.23855  0.93489  1.0000
  C   C68       1.0  0.01448  0.28584  0.72746  1.0000
  Fe  Fe20      1.0  0.20304  0.10083  0.76332  1.0000
  S   S35       1.0  0.21738  0.09187  0.79474  1.0000
  S   S36       1.0  0.16783  0.10994  0.76459  1.0000
  H   H76       1.0  0.17055  0.13061  0.80574  1.0000
  H   H77       1.0  0.04806  0.29016  0.72727  1.0000
  H   H78       1.0  0.00279  0.26734  0.80326  1.0000
  N   N6        1.0  0.16933  0.12791  0.70370  1.0000
  H   H79       1.0  0.16304  0.14438  0.83012  1.0000
  S   S37       1.0  0.21873  0.07260  0.74681  1.0000
  Fe  Fe21      1.0  0.06387  0.23117  0.77734  1.0000
  S   S38       1.0  0.07730  0.24092  0.74345  1.0000
  S   S39       1.0  0.02931  0.22484  0.78968  1.0000
  Fe  Fe22      1.0  0.10706  0.23670  0.79683  1.0000
  S   S40       1.0  0.12260  0.24819  0.76460  1.0000
  S   S41       1.0  0.12539  0.22620  0.82625  1.0000
  Fe  Fe23      1.0  0.09195  0.26706  0.75899  1.0000
  S   S42       1.0  0.08734  0.30220  0.74746  1.0000
  Fe  Fe24      1.0  0.10685  0.22103  0.75204  1.0000
  S   S43       1.0  0.12969  0.20028  0.73136  1.0000
  S   S44       1.0  0.07760  0.25804  0.79277  1.0000
  S   S45       1.0  0.09215  0.20887  0.78435  1.0000
  H   H80       1.0  0.17450  0.09492  0.71384  1.0000
  C   C69       1.0  0.02173  0.47407  0.61787  1.0000
  H   H81       1.0  0.05275  0.48197  0.66268  1.0000
  C   C70       1.0  0.15844  0.13659  0.75870  1.0000
  C   C71       1.0  0.13680  0.14208  0.76331  1.0000
  C   C72       1.0  0.12817  0.16234  0.75648  1.0000
  C   C73       1.0  0.14104  0.17706  0.74448  1.0000
  C   C74       1.0  0.16285  0.17189  0.74057  1.0000
  C   C75       1.0  0.17160  0.15183  0.74797  1.0000
  H   H82       1.0  0.12649  0.13039  0.77159  1.0000
  H   H83       1.0  0.11130  0.16609  0.75938  1.0000
  H   H84       1.0  0.17288  0.18322  0.73129  1.0000
  H   H85       1.0  0.18828  0.14783  0.74433  1.0000
  H   H86       1.0  0.12385  0.35782  0.69887  1.0000
  H   H87       1.0  0.01009  0.36894  0.59408  1.0000
  H   H88       1.0  0.18586  0.26644  0.94188  1.0000
  H   H89       1.0  0.11872  0.41707  0.65997  1.0000
  H   H90       1.0  0.15545  0.28047  0.88307  1.0000
  H   H91       1.0  0.11419  0.39664  0.69589  1.0000
  H   H92       1.0  0.14571  0.14556  0.80830  1.0000
  H   H93       1.0  0.18773  0.02226  0.80311  1.0000
  C   C76       1.0  0.18213  0.25641  0.85157  1.0000
  C   C77       1.0  0.17011  0.26799  0.83621  1.0000
  C   C78       1.0  0.15313  0.25875  0.82768  1.0000
  C   C79       1.0  0.14781  0.23793  0.83473  1.0000
  C   C80       1.0  0.16004  0.22625  0.84983  1.0000
  C   C81       1.0  0.17723  0.23534  0.85807  1.0000
  H   H94       1.0  0.17376  0.28431  0.83110  1.0000
  H   H95       1.0  0.14382  0.26795  0.81611  1.0000
  H   H96       1.0  0.15608  0.21011  0.85533  1.0000
  H   H97       1.0  0.18634  0.22622  0.86983  1.0000
  C   C82       1.0  0.08696  0.32721  0.67594  1.0000
  C   C83       1.0  0.08070  0.34071  0.69256  1.0000
  C   C84       1.0  0.08086  0.33282  0.71440  1.0000
  C   C85       1.0  0.08700  0.31133  0.71980  1.0000
  C   C86       1.0  0.09279  0.29773  0.70318  1.0000
  C   C87       1.0  0.09288  0.30569  0.68136  1.0000
  H   H98       1.0  0.07611  0.35731  0.68860  1.0000
  H   H99       1.0  0.07625  0.34341  0.72718  1.0000
  H   H100      1.0  0.09753  0.28115  0.70711  1.0000
  H   H101      1.0  0.09779  0.29513  0.66861  1.0000
  C   C88       1.0  0.06236  0.37977  0.53515  1.0000
  C   C89       1.0  0.08453  0.38006  0.53289  1.0000
  C   C90       1.0  0.24020  0.21742  0.99569  1.0000
  H   H102      1.0  0.13310  0.32554  0.68248  1.0000
  S   S46       1.0  0.21625  0.24520  0.96905  1.0000
  H   H103      1.0  0.04800  0.28599  0.76709  1.0000
  H   H104      1.0  0.09306  0.38244  0.54681  1.0000
  C   C91       1.0  0.16252  0.14533  0.81225  1.0000
  H   H105      1.0  0.01256  0.29402  0.80284  1.0000
  H   H106      1.0  0.21316  0.09430  0.70333  1.0000
  C   C92       1.0  0.00412  0.22891  0.75467  1.0000
  C   C93       1.0  0.10186  0.48590  0.62098  1.0000
  C   C94       1.0  0.09459  0.46573  0.62837  1.0000
  H   H107      1.0  0.18260  0.21932  0.95059  1.0000
  C   C95       1.0  0.07671  0.46444  0.64323  1.0000
  C   C96       1.0  0.20028  0.14647  0.68958  1.0000
  H   H108      1.0  0.07096  0.44900  0.64905  1.0000
  N   N7        1.0  0.13346  0.35634  0.66515  1.0000
  C   C97       1.0  0.13575  0.36741  0.64533  1.0000
  C   C98       1.0  0.12052  0.38860  0.68164  1.0000
  C   C99       1.0  0.13067  0.38943  0.64324  1.0000
  C   C100      1.0  0.12306  0.40006  0.66153  1.0000
  H   H109      1.0  0.14126  0.35915  0.63097  1.0000
  H   H110      1.0  0.13230  0.39821  0.62748  1.0000
  H   H111      1.0  0.22150  0.18098  0.78445  1.0000
  C   C101      1.0  0.03337  0.28722  0.73714  1.0000
  C   C102      1.0  0.09569  0.37707  0.51257  1.0000
  C   C103      1.0  0.12597  0.36664  0.68320  1.0000
  C   C104      1.0  0.14000  0.33352  0.66708  1.0000
  H   H112      1.0  0.13419  0.32515  0.65373  1.0000
  H   H113      1.0  0.15756  0.33144  0.66646  1.0000
  H   H114      1.0  0.20045  0.21572  0.78015  1.0000
  H   H115      1.0  0.20358  0.14859  0.79910  1.0000
  N   N8        1.0  0.17280  0.16450  0.80264  1.0000
  C   C105      1.0  0.19423  0.16356  0.79709  1.0000
  H   H116      1.0  0.14423  0.18445  0.80528  1.0000
  C   C106      1.0  0.14626  0.12773  0.70867  1.0000
  C   C107      1.0  0.16116  0.18351  0.80051  1.0000
  C   C108      1.0  0.20448  0.18190  0.78879  1.0000
  H   H117      1.0  0.14300  0.22300  0.92266  1.0000
  H   H118      1.0  0.01874  0.22917  0.74424  1.0000
  C   C109      1.0  0.17090  0.20215  0.79226  1.0000
  C   C110      1.0  0.19271  0.20131  0.78638  1.0000
  S   S47       1.0  0.23845  0.26769  0.91284  1.0000
  C   C111      1.0  0.22473  0.23420  0.99431  1.0000
  H   H119      1.0  0.16155  0.21717  0.79068  1.0000
  S   S48       1.0  0.22808  0.12290  0.74999  1.0000
  C   C112      1.0  0.22368  0.00698  0.76091  1.0000
  H   H120      1.0  0.18051  0.29006  0.90886  1.0000
  C   C113      1.0  0.00493  0.22676  0.77717  1.0000
  C   C114      1.0  0.17155  0.27581  0.91234  1.0000
  C   C115      1.0  0.15752  0.27037  0.89778  1.0000
  C   C116      1.0  0.16794  0.22960  0.95390  1.0000
  C   C117      1.0  0.17464  0.26228  0.93084  1.0000
  H   H121      1.0  0.21706  0.02202  0.75418  1.0000
  C   C118      1.0  0.23666  0.00684  0.77805  1.0000
  C   C119      1.0  0.06640  0.48314  0.65095  1.0000
  H   H122      1.0  0.17023  0.23898  0.96798  1.0000
  C   C120      1.0  0.15074  0.23804  0.92013  1.0000
  C   C121      1.0  0.14714  0.25131  0.90156  1.0000
  N   N9        1.0  0.16402  0.24383  0.93470  1.0000
  H   H123      1.0  0.13690  0.24658  0.88977  1.0000
  H   H124      1.0  0.15446  0.21924  0.95875  1.0000
  C   C122      1.0  0.05149  0.37658  0.51699  1.0000
  H   H125      1.0  0.03436  0.37624  0.51863  1.0000
  C   C123      1.0  0.03327  0.28471  0.75972  1.0000
  C   C124      1.0  0.20346  0.10900  0.70109  1.0000
  C   C125      1.0  0.03898  0.48550  0.60861  1.0000
  H   H126      1.0  0.13868  0.12259  0.69460  1.0000
  H   H127      1.0  0.02326  0.45671  0.61944  1.0000
  C   C126      1.0  0.21287  0.12767  0.69260  1.0000
  H   H128      1.0  0.13940  0.14385  0.71265  1.0000
  Fe  Fe25      1.0  0.23544  0.06517  0.77696  1.0000
  C   C127      1.0  0.24326  0.13715  0.83951  1.0000
  S   S49       1.0  0.24056  0.03056  0.79114  1.0000
  S   S50       1.0  0.00981  0.41626  0.64877  1.0000
  H   H129      1.0  0.03054  0.27061  0.80068  1.0000
  H   H130      1.0  0.14222  0.11670  0.72311  1.0000
  N   N10       1.0  0.01494  0.28057  0.77230  1.0000
  H   H131      1.0  0.05377  0.47711  0.60321  1.0000
  H   H132      1.0  0.20748  0.16110  0.68308  1.0000
  C   C128      1.0  0.18158  0.10943  0.70676  1.0000
  H   H133      1.0  0.11283  0.37724  0.51092  1.0000
  C   C129      1.0  0.17835  0.14625  0.69502  1.0000
  H   H134      1.0  0.16863  0.16093  0.69265  1.0000
  H   H135      1.0  0.22992  0.12750  0.68844  1.0000
  C   C130      1.0  0.01515  0.27817  0.79595  1.0000
  H   H136      1.0  0.00283  0.37096  0.55799  1.0000
  H   H137      1.0  0.01442  0.28759  0.70995  1.0000
  N   N11       1.0  0.00325  0.48461  0.62514  1.0000
  H   H138      1.0  0.99911  0.36354  0.63333  1.0000
  H   H139      1.0  0.23872  0.13297  0.87444  1.0000
  C   C131      1.0  0.24162  0.14430  0.86065  1.0000
  Fe  Fe26      1.0  0.24336  0.11301  0.78085  1.0000
  H   H140      1.0  0.24165  0.12044  0.83711  1.0000
  C   C132      1.0  0.18856  0.00489  0.80478  1.0000
  H   H141      1.0  0.24185  0.29095  0.99005  1.0000
  H   H142      1.0  0.16896  0.00150  0.77871  1.0000
  Fe  Fe27      1.0  0.24425  0.20836  0.89865  1.0000
  C   C133      1.0  0.24443  0.16582  0.86410  1.0000
  C   C134      1.0  0.99701  0.41571  0.60775  1.0000
  Fe  Fe28      1.0  0.24562  0.09411  0.73636  1.0000
  H   H143      1.0  0.21009  0.00316  0.82987  1.0000
  S   S51       1.0  0.24588  0.17342  0.89088  1.0000
  Fe  Fe29      1.0  0.06032  0.57818  0.45381  1.0000
  S   S52       1.0  0.09459  0.57589  0.44126  1.0000
  H   H144      1.0  0.05543  0.67606  0.30671  1.0000
  Fe  Fe30      1.0  0.04535  0.57263  0.40919  1.0000
  S   S53       1.0  0.07832  0.56960  0.39305  1.0000
  N   N12       1.0  0.08143  0.63142  0.48050  1.0000
  Fe  Fe31      1.0  0.08499  0.54864  0.42294  1.0000
  S   S54       1.0  0.10311  0.51648  0.42302  1.0000
  Fe  Fe32      1.0  0.08452  0.59702  0.41253  1.0000
  S   S55       1.0  0.09822  0.62879  0.40095  1.0000
  S   S56       1.0  0.05134  0.54963  0.43758  1.0000
  S   S57       1.0  0.05094  0.60134  0.42669  1.0000
  H   H145      1.0  0.05015  0.63147  0.47042  1.0000
  Fe  Fe33      1.0  0.22010  0.71334  0.14443  1.0000
  S   S58       1.0  0.20747  0.74221  0.12548  1.0000
  S   S59       1.0  0.20041  0.69481  0.17088  1.0000
  H   H146      1.0  0.05159  0.60184  0.31483  1.0000
  C   C135      1.0  0.06184  0.80567  0.27434  1.0000
  C   C136      1.0  0.15026  0.69612  0.14164  1.0000
  H   H147      1.0  0.22386  0.79985  0.24429  1.0000
  C   C137      1.0  0.20136  0.77422  0.22112  1.0000
  C   C138      1.0  0.17420  0.75326  0.25207  1.0000
  Fe  Fe34      1.0  0.20292  0.85844  0.27093  1.0000
  S   S60       1.0  0.22049  0.86890  0.23911  1.0000
  S   S61       1.0  0.17009  0.84759  0.26577  1.0000
  H   H148      1.0  0.09053  0.57222  0.49253  1.0000
  C   C139      1.0  0.23514  0.74527  0.03235  1.0000
  S   S62       1.0  0.21350  0.88644  0.28761  1.0000
  Fe  Fe35      1.0  0.10626  0.74234  0.28991  1.0000
  S   S63       1.0  0.12281  0.71534  0.27217  1.0000
  S   S64       1.0  0.12580  0.76386  0.30740  1.0000
  Fe  Fe36      1.0  0.06144  0.72949  0.28050  1.0000
  S   S65       1.0  0.07529  0.70240  0.26117  1.0000
  S   S66       1.0  0.02633  0.73394  0.29289  1.0000
  Fe  Fe37      1.0  0.09674  0.69519  0.28819  1.0000
  S   S67       1.0  0.09993  0.66037  0.30095  1.0000
  Fe  Fe38      1.0  0.10009  0.72508  0.24708  1.0000
  S   S68       1.0  0.11187  0.73253  0.21191  1.0000
  S   S69       1.0  0.08205  0.72132  0.30811  1.0000
  S   S70       1.0  0.08444  0.75312  0.26424  1.0000
  C   C140      1.0  0.02962  0.78605  0.27338  1.0000
  N   N13       1.0  0.16747  0.68932  0.12850  1.0000
  C   C141      1.0  0.12447  0.61956  0.47538  1.0000
  C   C142      1.0  0.20626  0.80200  0.24562  1.0000
  H   H149      1.0  0.01160  0.57232  0.46188  1.0000
  H   H150      1.0  0.14119  0.61456  0.47335  1.0000
  C   C143      1.0  0.15904  0.82349  0.27696  1.0000
  C   C144      1.0  0.16407  0.81413  0.29713  1.0000
  C   C145      1.0  0.15384  0.79580  0.30617  1.0000
  C   C146      1.0  0.13898  0.78627  0.29489  1.0000
  C   C147      1.0  0.13443  0.79524  0.27441  1.0000
  C   C148      1.0  0.14419  0.81394  0.26566  1.0000
  H   H151      1.0  0.17534  0.82140  0.30609  1.0000
  H   H152      1.0  0.15741  0.78902  0.32206  1.0000
  H   H153      1.0  0.12310  0.78802  0.26550  1.0000
  H   H154      1.0  0.14022  0.82107  0.25003  1.0000
  C   C149      1.0  0.05025  0.63596  0.31809  1.0000
  C   C150      1.0  0.23344  0.95328  0.25208  1.0000
  C   C151      1.0  0.23095  0.81534  0.17803  1.0000
  C   C152      1.0  0.04493  0.64717  0.35397  1.0000
  C   C153      1.0  0.17676  0.70639  0.18342  1.0000
  C   C154      1.0  0.16842  0.72648  0.17612  1.0000
  C   C155      1.0  0.14866  0.73446  0.18521  1.0000
  C   C156      1.0  0.13728  0.72266  0.20201  1.0000
  C   C157      1.0  0.14592  0.70287  0.20979  1.0000
  C   C158      1.0  0.16551  0.69470  0.20039  1.0000
  H   H155      1.0  0.17690  0.73567  0.16310  1.0000
  H   H156      1.0  0.14208  0.74980  0.17914  1.0000
  H   H157      1.0  0.13724  0.69360  0.22267  1.0000
  H   H158      1.0  0.17184  0.67915  0.20617  1.0000
  C   C159      1.0  0.04618  0.60949  0.34821  1.0000
  C   C160      1.0  0.17398  0.70136  0.11010  1.0000
  H   H159      1.0  0.19615  0.74905  0.20047  1.0000
  Fe  Fe39      1.0  0.22527  0.72874  0.09596  1.0000
  H   H160      1.0  0.06205  0.51461  0.40602  1.0000
  H   H161      1.0  0.19713  0.71144  0.02417  1.0000
  H   H162      1.0  0.04185  0.62208  0.37970  1.0000
  C   C161      1.0  0.24167  0.75104  0.01046  1.0000
  H   H163      1.0  0.24240  0.75210  0.04520  1.0000
  C   C162      1.0  0.09869  0.63746  0.37312  1.0000
  C   C163      1.0  0.09835  0.62288  0.35718  1.0000
  C   C164      1.0  0.09927  0.63014  0.33514  1.0000
  C   C165      1.0  0.10005  0.65205  0.32883  1.0000
  C   C166      1.0  0.10022  0.66667  0.34477  1.0000
  C   C167      1.0  0.09973  0.65936  0.36682  1.0000
  H   H164      1.0  0.09784  0.60596  0.36177  1.0000
  H   H165      1.0  0.09931  0.61871  0.32291  1.0000
  H   H166      1.0  0.10104  0.68356  0.34011  1.0000
  H   H167      1.0  0.10021  0.67073  0.37903  1.0000
  C   C168      1.0  0.17873  0.74498  0.23183  1.0000
  Fe  Fe40      1.0  0.24161  0.86450  0.29611  1.0000
  H   H168      1.0  0.23621  0.91164  0.33267  1.0000
  H   H169      1.0  0.16908  0.73070  0.09036  1.0000
  Fe  Fe41      1.0  0.23351  0.89472  0.25685  1.0000
  H   H170      1.0  0.01646  0.78070  0.28525  1.0000
  H   H171      1.0  0.20111  0.80687  0.26220  1.0000
  H   H172      1.0  0.08273  0.63412  0.44592  1.0000
  H   H173      1.0  0.18022  0.77802  0.27234  1.0000
  H   H174      1.0  0.05327  0.63971  0.30078  1.0000
  S   S71       1.0  0.04598  0.58510  0.48741  1.0000
  S   S72       1.0  0.23520  0.69828  0.11463  1.0000
  H   H175      1.0  0.02328  0.80005  0.26350  1.0000
  H   H176      1.0  0.12622  0.72132  0.14767  1.0000
  H   H177      1.0  0.01773  0.73577  0.24684  1.0000
  C   C169      1.0  0.09146  0.63045  0.46013  1.0000
  C   C170      1.0  0.19246  0.75544  0.21624  1.0000
  C   C171      1.0  0.18361  0.77189  0.25648  1.0000
  H   H178      1.0  0.12085  0.62339  0.44100  1.0000
  H   H179      1.0  0.03179  0.68175  0.32411  1.0000
  H   H180      1.0  0.19849  0.97733  0.28900  1.0000
  H   H181      1.0  0.17165  0.73046  0.22828  1.0000
  N   N14       1.0  0.04803  0.79134  0.28434  1.0000
  H   H182      1.0  0.19601  0.66992  0.13046  1.0000
  C   C172      1.0  0.04397  0.62590  0.36235  1.0000
  H   H183      1.0  0.21195  0.78233  0.20891  1.0000
  H   H184      1.0  0.05908  0.81333  0.25854  1.0000
  C   C173      1.0  0.14627  0.72832  0.11832  1.0000
  N   N15       1.0  0.19682  0.78223  0.24102  1.0000
  C   C174      1.0  0.04821  0.67442  0.32371  1.0000
  H   H185      1.0  0.04355  0.65982  0.36508  1.0000
  N   N16       1.0  0.04801  0.65196  0.33209  1.0000
  S   S73       1.0  0.24172  0.92799  0.24187  1.0000
  H   H186      1.0  0.20896  0.94159  0.27546  1.0000
  H   H187      1.0  0.20130  0.81537  0.23409  1.0000
  S   S74       1.0  0.23445  0.78995  0.14352  1.0000
  S   S75       1.0  0.01798  0.56974  0.38919  1.0000
  H   H188      1.0  0.18749  0.69593  0.09954  1.0000
  H   H189      1.0  0.04563  0.59291  0.35456  1.0000
  C   C175      1.0  0.05211  0.78089  0.30380  1.0000
  C   C176      1.0  0.07992  0.81038  0.28418  1.0000
  C   C177      1.0  0.07015  0.78506  0.31396  1.0000
  C   C178      1.0  0.08397  0.80008  0.30417  1.0000
  H   H190      1.0  0.09102  0.82158  0.27619  1.0000
  H   H191      1.0  0.07372  0.77635  0.32907  1.0000
  H   H192      1.0  0.09814  0.80327  0.31181  1.0000
  C   C179      1.0  0.21122  0.97585  0.27630  1.0000
  H   H193      1.0  0.14517  0.68670  0.15634  1.0000
  C   C180      1.0  0.21905  0.73093  0.03748  1.0000
  C   C181      1.0  0.21714  0.95551  0.26865  1.0000
  H   H194      1.0  0.03419  0.77278  0.26268  1.0000
  H   H195      1.0  0.16343  0.74535  0.26430  1.0000
  S   S76       1.0  0.21029  0.72289  0.06479  1.0000
  H   H196      1.0  0.04158  0.76900  0.31141  1.0000
  C   C182      1.0  0.23707  0.82257  0.19741  1.0000
  S   S77       1.0  0.22911  0.83589  0.28222  1.0000
  H   H197      1.0  0.21864  0.82423  0.16959  1.0000
  C   C183      1.0  0.16354  0.72105  0.10477  1.0000
  C   C184      1.0  0.04942  0.61450  0.32593  1.0000
  H   H198      1.0  0.22955  0.83700  0.20371  1.0000
  H   H199      1.0  0.22305  0.94898  0.33910  1.0000
  H   H200      1.0  0.17569  0.66341  0.15107  1.0000
  C   C185      1.0  0.24329  0.88323  0.17613  1.0000
  H   H201      1.0  0.01066  0.60850  0.41191  1.0000
  C   C186      1.0  0.20966  0.72246  0.02044  1.0000
  C   C187      1.0  0.11309  0.62444  0.45725  1.0000
  C   C188      1.0  0.17854  0.66864  0.13358  1.0000
  C   C189      1.0  0.24405  0.96292  0.31333  1.0000
  C   C190      1.0  0.13946  0.71573  0.13680  1.0000
  H   H202      1.0  0.17321  0.65631  0.12365  1.0000
  H   H203      1.0  0.05795  0.68361  0.33342  1.0000
  H   H204      1.0  0.13828  0.74373  0.11457  1.0000
  C   C191      1.0  0.00276  0.73580  0.25668  1.0000
  C   C192      1.0  0.06916  0.49854  0.40763  1.0000
  C   C193      1.0  0.24088  0.79689  0.16925  1.0000
  H   H205      1.0  0.99997  0.59310  0.49372  1.0000
  H   H206      1.0  0.23829  0.97928  0.31575  1.0000
  C   C194      1.0  0.24376  0.97167  0.24341  1.0000
  C   C195      1.0  0.23807  0.99196  0.25131  1.0000
  H   H207      1.0  0.24125  0.67815  0.00100  1.0000
  Fe  Fe42      1.0  0.23815  0.75617  0.13184  1.0000
  H   H208      1.0  0.22966  0.88889  0.16748  1.0000
  C   C196      1.0  0.05880  0.63798  0.48311  1.0000
  Fe  Fe43      1.0  0.24683  0.84714  0.25086  1.0000
  C   C197      1.0  0.00257  0.73455  0.27929  1.0000
  C   C198      1.0  0.11422  0.62104  0.49610  1.0000
  C   C199      1.0  0.23542  0.94595  0.32630  1.0000
  H   H209      1.0  0.23858  0.90735  0.19947  1.0000
  C   C200      1.0  0.24270  0.92502  0.32264  1.0000
  H   H210      1.0  0.07493  0.50515  0.46279  1.0000
  H   H211      1.0  0.05674  0.65569  0.48204  1.0000
  H   H212      1.0  0.24503  0.68006  0.04022  1.0000
  C   C201      1.0  0.22172  0.99420  0.26782  1.0000
  C   C202      1.0  0.09259  0.62721  0.49837  1.0000
  H   H213      1.0  0.08146  0.49942  0.49036  1.0000
  H   H214      1.0  0.05131  0.63152  0.49895  1.0000
  Fe  Fe44      1.0  0.06645  0.55937  0.63861  1.0000
  S   S78       1.0  0.09783  0.57416  0.63102  1.0000
  S   S79       1.0  0.05999  0.52626  0.65369  1.0000
  Fe  Fe45      1.0  0.04225  0.60039  0.62449  1.0000
  S   S80       1.0  0.07156  0.61871  0.61565  1.0000
  C   C203      1.0  0.00894  0.73258  0.78167  1.0000
  Fe  Fe46      1.0  0.08391  0.58830  0.60058  1.0000
  S   S81       1.0  0.10179  0.58610  0.56748  1.0000
  Fe  Fe47      1.0  0.08252  0.60320  0.64693  1.0000
  S   S82       1.0  0.09748  0.61654  0.67502  1.0000
  S   S83       1.0  0.05368  0.57127  0.60725  1.0000
  S   S84       1.0  0.05207  0.58710  0.65667  1.0000
  N   N17       1.0  0.13026  0.56306  0.67180  1.0000
  Fe  Fe48      1.0  0.22019  0.86273  0.74800  1.0000
  S   S85       1.0  0.20858  0.88198  0.77622  1.0000
  S   S86       1.0  0.20113  0.83890  0.73269  1.0000
  Fe  Fe49      1.0  0.22771  0.90872  0.75942  1.0000
  S   S87       1.0  0.21565  0.94379  0.75453  1.0000
  C   C204      1.0  0.21640  0.72802  0.99855  1.0000
  C   C205      1.0  0.01840  0.51843  0.61461  1.0000
  C   C206      1.0  0.11186  0.56175  0.68506  1.0000
  N   N18       1.0  0.19307  0.96045  0.80724  1.0000
  H   H215      1.0  0.04260  0.69811  0.69071  1.0000
  H   H216      1.0  0.12280  0.61706  0.51038  1.0000
  Fe  Fe50      1.0  0.20459  0.72630  0.90028  1.0000
  S   S88       1.0  0.22026  0.75636  0.90646  1.0000
  S   S89       1.0  0.17098  0.73142  0.88957  1.0000
  S   S90       1.0  0.00958  0.61435  0.61963  1.0000
  H   H217      1.0  0.10343  0.79975  0.82060  1.0000
  C   C207      1.0  0.00134  0.50650  0.62344  1.0000
  C   C208      1.0  0.06160  0.58381  0.50973  1.0000
  C   C209      1.0  0.23999  0.96757  0.77856  1.0000
  S   S91       1.0  0.21699  0.70773  0.92967  1.0000
  Fe  Fe51      1.0  0.06880  0.73165  0.77627  1.0000
  S   S92       1.0  0.08929  0.70272  0.76671  1.0000
  S   S93       1.0  0.03472  0.72573  0.79069  1.0000
  Fe  Fe52      1.0  0.10571  0.76186  0.76314  1.0000
  S   S94       1.0  0.12770  0.73520  0.75098  1.0000
  S   S95       1.0  0.11503  0.79539  0.76932  1.0000
  Fe  Fe53      1.0  0.09913  0.72327  0.73688  1.0000
  S   S96       1.0  0.09524  0.71264  0.70311  1.0000
  Fe  Fe54      1.0  0.11592  0.71702  0.78190  1.0000
  S   S97       1.0  0.14034  0.69947  0.80254  1.0000
  S   S98       1.0  0.07797  0.75205  0.74618  1.0000
  S   S99       1.0  0.09462  0.74371  0.79430  1.0000
  H   H218      1.0  0.03558  0.59539  0.53132  1.0000
  C   C210      1.0  0.05554  0.76384  0.82843  1.0000
  Fe  Fe55      1.0  0.23914  0.86945  0.78957  1.0000
  H   H219      1.0  0.15161  0.54770  0.64850  1.0000
  C   C211      1.0  0.16306  0.72269  0.86506  1.0000
  C   C212      1.0  0.14494  0.73257  0.85621  1.0000
  C   C213      1.0  0.13803  0.72597  0.83687  1.0000
  C   C214      1.0  0.14893  0.70907  0.82639  1.0000
  C   C215      1.0  0.16707  0.69924  0.83523  1.0000
  C   C216      1.0  0.17424  0.70614  0.85432  1.0000
  H   H220      1.0  0.13618  0.74535  0.86444  1.0000
  H   H221      1.0  0.12403  0.73363  0.83033  1.0000
  H   H222      1.0  0.17556  0.68610  0.82732  1.0000
  H   H223      1.0  0.18809  0.69826  0.86102  1.0000
  H   H224      1.0  0.05081  0.51691  0.60072  1.0000
  H   H225      1.0  0.07062  0.74817  0.85572  1.0000
  C   C217      1.0  0.08854  0.77414  0.84040  1.0000
  H   H226      1.0  0.18741  0.92987  0.79606  1.0000
  C   C218      1.0  0.24507  0.98701  0.78653  1.0000
  H   H227      1.0  0.03674  0.79864  0.79144  1.0000
  H   H228      1.0  0.02234  0.72565  0.72019  1.0000
  C   C219      1.0  0.24228  0.82324  0.85473  1.0000
  C   C220      1.0  0.17741  0.82678  0.74355  1.0000
  C   C221      1.0  0.16562  0.83357  0.76219  1.0000
  C   C222      1.0  0.14667  0.82371  0.76994  1.0000
  C   C223      1.0  0.13949  0.80667  0.75947  1.0000
  C   C224      1.0  0.15150  0.79962  0.74109  1.0000
  C   C225      1.0  0.17019  0.80978  0.73306  1.0000
  H   H229      1.0  0.17086  0.84671  0.77036  1.0000
  H   H230      1.0  0.13745  0.82943  0.78406  1.0000
  H   H231      1.0  0.14613  0.78668  0.73271  1.0000
  H   H232      1.0  0.17912  0.80444  0.71859  1.0000
  H   H233      1.0  0.00956  0.57387  0.64485  1.0000
  H   H234      1.0  0.08468  0.62794  0.51457  1.0000
  C   C226      1.0  0.21830  0.98755  0.75321  1.0000
  C   C227      1.0  0.22607  0.96770  0.76222  1.0000
  C   C228      1.0  0.18062  0.97089  0.79243  1.0000
  S   S100      1.0  0.24234  0.74938  0.96616  1.0000
  C   C229      1.0  0.08971  0.78999  0.82342  1.0000
  N   N19       1.0  0.05674  0.77959  0.81197  1.0000
  H   H235      1.0  0.20757  0.98790  0.74053  1.0000
  C   C230      1.0  0.09692  0.64344  0.68231  1.0000
  C   C231      1.0  0.09128  0.66074  0.66809  1.0000
  C   C232      1.0  0.09129  0.68183  0.67457  1.0000
  C   C233      1.0  0.09658  0.68585  0.69541  1.0000
  C   C234      1.0  0.10213  0.66853  0.70965  1.0000
  C   C235      1.0  0.10247  0.64747  0.70304  1.0000
  H   H236      1.0  0.08718  0.65791  0.65202  1.0000
  H   H237      1.0  0.08710  0.69512  0.66339  1.0000
  H   H238      1.0  0.10631  0.67137  0.72568  1.0000
  H   H239      1.0  0.10701  0.63424  0.71412  1.0000
  C   C236      1.0  0.08600  0.58454  0.54561  1.0000
  C   C237      1.0  0.09533  0.57776  0.52571  1.0000
  S   S101      1.0  0.23119  0.71428  0.87753  1.0000
  H   H240      1.0  0.15891  0.57982  0.66679  1.0000
  C   C238      1.0  0.06437  0.59071  0.54754  1.0000
  H   H241      1.0  0.11204  0.57290  0.52413  1.0000
  H   H242      1.0  0.05704  0.59613  0.56272  1.0000
  H   H243      1.0  0.10565  0.57523  0.69408  1.0000
  H   H244      1.0  0.03954  0.72677  0.74156  1.0000
  H   H245      1.0  0.10124  0.77164  0.85112  1.0000
  H   H246      1.0  0.04274  0.75289  0.82991  1.0000
  C   C239      1.0  0.04090  0.78157  0.79599  1.0000
  C   C240      1.0  0.07133  0.76099  0.84300  1.0000
  H   H247      1.0  0.09662  0.52020  0.62222  1.0000
  C   C241      1.0  0.17810  0.99324  0.79105  1.0000
  C   C242      1.0  0.12661  0.52746  0.66118  1.0000
  N   N20       1.0  0.19488  0.77165  0.82783  1.0000
  C   C243      1.0  0.18599  0.75698  0.81662  1.0000
  C   C244      1.0  0.19972  0.79120  0.81802  1.0000
  C   C245      1.0  0.18214  0.76150  0.79488  1.0000
  C   C246      1.0  0.19637  0.79617  0.79618  1.0000
  C   C247      1.0  0.18759  0.78115  0.78459  1.0000
  C   C248      1.0  0.19814  0.76669  0.85077  1.0000
  H   H248      1.0  0.18184  0.74165  0.82444  1.0000
  H   H249      1.0  0.20629  0.80305  0.82704  1.0000
  H   H250      1.0  0.17493  0.74983  0.78611  1.0000
  H   H251      1.0  0.20044  0.81159  0.78828  1.0000
  H   H252      1.0  0.18492  0.78475  0.76768  1.0000
  H   H253      1.0  0.18303  0.76956  0.86092  1.0000
  H   H254      1.0  0.20360  0.74966  0.85375  1.0000
  H   H255      1.0  0.21043  0.77648  0.85625  1.0000
  C   C249      1.0  0.10808  0.52587  0.67497  1.0000
  H   H256      1.0  0.20912  0.72126  0.98566  1.0000
  S   S102      1.0  0.23672  0.89048  0.72963  1.0000
  H   H257      1.0  0.13216  0.51431  0.65135  1.0000
  C   C250      1.0  0.07357  0.79251  0.80929  1.0000
  H   H258      1.0  0.01759  0.76058  0.76143  1.0000
  C   C251      1.0  0.14146  0.58300  0.66928  1.0000
  H   H259      1.0  0.04738  0.77361  0.78123  1.0000
  C   C252      1.0  0.13752  0.54635  0.65969  1.0000
  C   C253      1.0  0.00476  0.75076  0.76794  1.0000
  C   C254      1.0  0.08316  0.57732  0.50782  1.0000
  H   H260      1.0  0.17337  0.96203  0.78090  1.0000
  C   C255      1.0  0.19635  0.93709  0.80810  1.0000
  H   H261      1.0  0.13824  0.59239  0.68386  1.0000
  C   C256      1.0  0.09111  0.50469  0.62821  1.0000
  N   N21       1.0  0.04244  0.69778  0.72509  1.0000
  C   C257      1.0  0.04464  0.68562  0.74405  1.0000
  C   C258      1.0  0.04377  0.68839  0.70578  1.0000
  C   C259      1.0  0.04889  0.66350  0.74390  1.0000
  C   C260      1.0  0.04753  0.66626  0.70509  1.0000
  C   C261      1.0  0.05038  0.65381  0.72425  1.0000
  C   C262      1.0  0.03846  0.72101  0.72522  1.0000
  H   H262      1.0  0.04347  0.69301  0.75941  1.0000
  H   H263      1.0  0.05132  0.65405  0.75889  1.0000
  H   H264      1.0  0.04913  0.65892  0.68968  1.0000
  H   H265      1.0  0.05421  0.63676  0.72374  1.0000
  H   H266      1.0  0.07507  0.80433  0.79564  1.0000
  H   H267      1.0  0.08557  0.54236  0.69681  1.0000
  S   S103      1.0  0.23936  0.85755  0.82492  1.0000
  Fe  Fe56      1.0  0.23503  0.73675  0.93394  1.0000
  H   H268      1.0  0.13594  0.59312  0.65518  1.0000
  H   H269      1.0  0.02601  0.77386  0.80231  1.0000
  C   C263      1.0  0.05225  0.59035  0.52968  1.0000
  H   H270      1.0  0.21358  0.96354  0.83217  1.0000
  H   H271      1.0  0.05053  0.72924  0.71397  1.0000
  H   H272      1.0  0.09924  0.51148  0.67605  1.0000
  C   C264      1.0  0.03731  0.50782  0.60716  1.0000
  C   C265      1.0  0.07344  0.50331  0.64336  1.0000
  C   C266      1.0  0.23249  0.74237  0.99341  1.0000
  H   H273      1.0  0.01708  0.53580  0.61381  1.0000
  C   C267      1.0  0.10048  0.54317  0.68680  1.0000
  H   H274      1.0  0.19124  0.92997  0.82449  1.0000
  C   C268      1.0  0.20114  0.99413  0.81986  1.0000
  C   C269      1.0  0.20318  0.97176  0.82092  1.0000
  H   H275      1.0  0.21342  0.93262  0.80406  1.0000
  Fe  Fe57      1.0  0.24535  0.69845  0.90699  1.0000
  C   C270      1.0  0.24373  0.83006  0.83262  1.0000
  H   H276      1.0  0.23770  0.83468  0.86673  1.0000
  H   H277      1.0  0.24634  0.79676  0.87860  1.0000
  H   H278      1.0  0.24622  0.95250  0.78562  1.0000
  Fe  Fe58      1.0  0.37598  0.38508  0.08171  1.0000
  S   S104      1.0  0.38626  0.35108  0.09089  1.0000
  S   S105      1.0  0.36554  0.39866  0.04967  1.0000
  Fe  Fe59      1.0  0.38263  0.40053  0.12509  1.0000
  S   S106      1.0  0.39344  0.36771  0.13850  1.0000
  S   S107      1.0  0.38024  0.43048  0.14366  1.0000
  Fe  Fe60      1.0  0.41246  0.36540  0.10639  1.0000
  S   S108      1.0  0.44566  0.35057  0.09959  1.0000
  Fe  Fe61      1.0  0.36635  0.35570  0.12206  1.0000
  S   S109      1.0  0.34790  0.32795  0.13852  1.0000
  S   S110      1.0  0.40381  0.39896  0.09433  1.0000
  S   S111      1.0  0.35393  0.38879  0.11171  1.0000
  Fe  Fe62      1.0  0.40024  0.09590  0.41251  1.0000
  S   S112      1.0  0.36639  0.10615  0.42302  1.0000
  S   S113      1.0  0.42706  0.11782  0.41436  1.0000
  Fe  Fe63      1.0  0.38935  0.05076  0.40795  1.0000
  S   S114      1.0  0.35494  0.05686  0.41862  1.0000
  C   C271      1.0  0.43517  0.32243  0.14809  1.0000
  Fe  Fe64      1.0  0.35705  0.08664  0.39656  1.0000
  S   S115      1.0  0.32686  0.09574  0.37960  1.0000
  Fe  Fe65      1.0  0.36675  0.07559  0.44404  1.0000
  S   S116      1.0  0.35052  0.07346  0.47793  1.0000
  S   S117      1.0  0.39102  0.07932  0.38394  1.0000
  S   S118      1.0  0.40100  0.06667  0.43538  1.0000
  S   S119      1.0  0.26762  0.23054  0.11048  1.0000
  C   C272      1.0  0.40574  0.36032  0.01350  1.0000
  S   S120      1.0  0.26704  0.19371  0.16558  1.0000
  Fe  Fe66      1.0  0.26435  0.08028  0.27699  1.0000
  S   S121      1.0  0.29819  0.08018  0.28685  1.0000
  C   C273      1.0  0.28425  0.12765  0.15399  1.0000
  C   C274      1.0  0.47720  0.07666  0.39876  1.0000
  H   H279      1.0  0.41591  0.34608  0.01616  1.0000
  H   H280      1.0  0.31598  0.04825  0.38879  1.0000
  S   S122      1.0  0.24789  0.11042  0.26337  1.0000
  C   C275      1.0  0.26478  0.15971  0.19585  1.0000
  C   C276      1.0  0.32488  0.03418  0.38298  1.0000
  C   C277      1.0  0.37127  0.13068  0.47622  1.0000
  H   H281      1.0  0.27773  0.16667  0.20264  1.0000
  C   C278      1.0  0.34132  0.45701  0.06674  1.0000
  N   N22       1.0  0.33829  0.47817  0.07080  1.0000
  C   C279      1.0  0.42745  0.46426  0.15003  1.0000
  C   C280      1.0  0.31951  0.08756  0.35469  1.0000
  C   C281      1.0  0.33446  0.08438  0.33711  1.0000
  C   C282      1.0  0.32767  0.08117  0.31662  1.0000
  C   C283      1.0  0.30593  0.08103  0.31353  1.0000
  C   C284      1.0  0.29103  0.08321  0.33135  1.0000
  C   C285      1.0  0.29782  0.08655  0.35180  1.0000
  H   H282      1.0  0.35118  0.08545  0.33901  1.0000
  H   H283      1.0  0.33929  0.07954  0.30290  1.0000
  H   H284      1.0  0.27428  0.08300  0.32922  1.0000
  H   H285      1.0  0.28615  0.08904  0.36532  1.0000
  C   C286      1.0  0.45293  0.10552  0.41120  1.0000
  C   C287      1.0  0.34457  0.03626  0.37113  1.0000
  C   C288      1.0  0.45644  0.08575  0.40212  1.0000
  S   S123      1.0  0.24786  0.20882  0.06042  1.0000
  H   H286      1.0  0.44319  0.07767  0.39720  1.0000
  C   C289      1.0  0.32478  0.31800  0.12931  1.0000
  C   C290      1.0  0.31411  0.32868  0.11256  1.0000
  C   C291      1.0  0.29538  0.32065  0.10629  1.0000
  C   C292      1.0  0.28724  0.30172  0.11647  1.0000
  C   C293      1.0  0.29815  0.29080  0.13293  1.0000
  C   C294      1.0  0.31673  0.29898  0.13939  1.0000
  H   H287      1.0  0.32005  0.34336  0.10471  1.0000
  H   H288      1.0  0.28704  0.32927  0.09361  1.0000
  H   H289      1.0  0.29204  0.27629  0.14098  1.0000
  H   H290      1.0  0.32478  0.29062  0.15242  1.0000
  C   C295      1.0  0.37978  0.45500  0.12786  1.0000
  C   C296      1.0  0.38346  0.45545  0.10532  1.0000
  C   C297      1.0  0.38333  0.47500  0.09290  1.0000
  H   H291      1.0  0.37769  0.30746  0.16567  1.0000
  C   C298      1.0  0.37601  0.47437  0.13790  1.0000
  H   H292      1.0  0.38620  0.44073  0.09735  1.0000
  H   H293      1.0  0.37312  0.47413  0.15536  1.0000
  C   C299      1.0  0.46789  0.35939  0.11113  1.0000
  H   H294      1.0  0.42468  0.45574  0.16578  1.0000
  C   C300      1.0  0.33207  0.48399  0.09134  1.0000
  H   H295      1.0  0.24887  0.27995  0.06437  1.0000
  C   C301      1.0  0.46561  0.37038  0.13008  1.0000
  H   H296      1.0  0.34686  0.45229  0.05064  1.0000
  H   H297      1.0  0.44992  0.37461  0.13737  1.0000
  C   C302      1.0  0.27356  0.16977  0.10988  1.0000
  C   C303      1.0  0.38116  0.38797  0.02789  1.0000
  C   C304      1.0  0.39512  0.37015  0.03124  1.0000
  S   S124      1.0  0.40407  0.01920  0.39813  1.0000
  H   H298      1.0  0.39741  0.36362  0.04744  1.0000
  H   H299      1.0  0.28611  0.24158  0.03519  1.0000
  H   H300      1.0  0.34051  0.42434  0.08010  1.0000
  N   N23       1.0  0.35621  0.01861  0.36424  1.0000
  C   C305      1.0  0.39397  0.31134  0.16072  1.0000
  H   H301      1.0  0.39741  0.32659  0.19020  1.0000
  H   H302      1.0  0.48190  0.38338  0.15492  1.0000
  H   H303      1.0  0.43200  0.43550  0.13284  1.0000
  C   C306      1.0  0.27791  0.13743  0.34027  1.0000
  C   C307      1.0  0.37673  0.02120  0.35171  1.0000
  H   H304      1.0  0.27728  0.27610  0.06289  1.0000
  C   C308      1.0  0.49106  0.10645  0.41461  1.0000
  C   C309      1.0  0.25606  0.11663  0.13429  1.0000
  C   C310      1.0  0.33165  0.44683  0.10440  1.0000
  C   C311      1.0  0.25773  0.13980  0.20461  1.0000
  H   H305      1.0  0.28296  0.12914  0.28714  1.0000
  H   H306      1.0  0.35828  0.12657  0.46726  1.0000
  H   H307      1.0  0.38609  0.47508  0.07544  1.0000
  H   H308      1.0  0.46774  0.13116  0.42444  1.0000
  C   C312      1.0  0.39132  0.29555  0.12600  1.0000
  H   H309      1.0  0.45114  0.32703  0.14271  1.0000
  H   H310      1.0  0.49023  0.34529  0.08731  1.0000
  H   H311      1.0  0.44254  0.13349  0.47971  1.0000
  C   C313      1.0  0.43160  0.45287  0.13152  1.0000
  H   H312      1.0  0.35067  0.05205  0.36788  1.0000
  H   H313      1.0  0.38761  0.00686  0.35431  1.0000
  H   H314      1.0  0.28675  0.16782  0.09705  1.0000
  C   C314      1.0  0.28538  0.14632  0.14026  1.0000
  C   C315      1.0  0.42352  0.31187  0.13439  1.0000
  N   N24       1.0  0.40873  0.13317  0.47854  1.0000
  H   H315      1.0  0.30215  0.01195  0.39740  1.0000
  H   H316      1.0  0.30391  0.13995  0.36022  1.0000
  H   H317      1.0  0.32972  0.43461  0.11763  1.0000
  H   H318      1.0  0.25873  0.19658  0.01694  1.0000
  C   C316      1.0  0.49459  0.08694  0.40496  1.0000
  H   H319      1.0  0.37720  0.28798  0.13458  1.0000
  H   H320      1.0  0.26601  0.13826  0.35389  1.0000
  H   H321      1.0  0.47976  0.06161  0.39123  1.0000
  H   H322      1.0  0.38549  0.30748  0.11350  1.0000
  C   C317      1.0  0.31484  0.13660  0.32674  1.0000
  H   H323      1.0  0.43067  0.30862  0.11833  1.0000
  N   N25       1.0  0.27197  0.15014  0.12412  1.0000
  C   C318      1.0  0.26254  0.26951  0.05822  1.0000
  C   C319      1.0  0.33786  0.44107  0.08340  1.0000
  H   H324      1.0  0.29420  0.12514  0.16741  1.0000
  C   C320      1.0  0.47030  0.11582  0.41748  1.0000
  C   C321      1.0  0.37917  0.49431  0.10283  1.0000
  S   S125      1.0  0.25743  0.06077  0.24946  1.0000
  H   H325      1.0  0.36707  0.01516  0.42885  1.0000
  C   C322      1.0  0.40506  0.32216  0.17472  1.0000
  H   H326      1.0  0.43452  0.33644  0.17879  1.0000
  C   C323      1.0  0.27689  0.25290  0.02525  1.0000
  C   C324      1.0  0.25130  0.28193  0.02228  1.0000
  H   H327      1.0  0.43353  0.11395  0.46329  1.0000
  H   H328      1.0  0.32085  0.13103  0.29281  1.0000
  C   C325      1.0  0.48835  0.35388  0.10192  1.0000
  C   C326      1.0  0.42582  0.32770  0.16832  1.0000
  H   H329      1.0  0.40142  0.28290  0.11792  1.0000
  C   C327      1.0  0.25762  0.13547  0.12083  1.0000
  N   N26       1.0  0.40329  0.30622  0.14089  1.0000
  C   C328      1.0  0.26943  0.11278  0.15102  1.0000
  H   H330      1.0  0.32458  0.47308  0.12483  1.0000
  C   C329      1.0  0.48373  0.37528  0.14002  1.0000
  H   H331      1.0  0.43267  0.14173  0.45384  1.0000
  S   S126      1.0  0.26322  0.29270  0.10834  1.0000
  H   H332      1.0  0.43706  0.45516  0.09672  1.0000
  C   C330      1.0  0.29930  0.13858  0.34395  1.0000
  H   H333      1.0  0.33151  0.13655  0.32960  1.0000
  H   H334      1.0  0.39526  0.12457  0.45037  1.0000
  H   H335      1.0  0.39524  0.08015  0.48091  1.0000
  N   N27       1.0  0.27218  0.13460  0.31995  1.0000
  H   H336      1.0  0.26777  0.09868  0.16216  1.0000
  C   C331      1.0  0.43436  0.46392  0.11123  1.0000
  Fe  Fe67      1.0  0.24879  0.26066  0.11855  1.0000
  H   H337      1.0  0.29644  0.15817  0.14317  1.0000
  C   C332      1.0  0.30887  0.13357  0.30612  1.0000
  H   H338      1.0  0.38492  0.03486  0.35709  1.0000
  C   C333      1.0  0.38674  0.08234  0.49653  1.0000
  N   N28       1.0  0.26349  0.26809  0.03469  1.0000
  H   H339      1.0  0.36834  0.41069  0.00411  1.0000
  C   C334      1.0  0.40499  0.13894  0.49945  1.0000
  C   C335      1.0  0.43047  0.13053  0.46849  1.0000
  C   C336      1.0  0.25568  0.17029  0.17793  1.0000
  C   C337      1.0  0.39220  0.12932  0.46685  1.0000
  C   C338      1.0  0.28735  0.13248  0.30302  1.0000
  C   C339      1.0  0.31711  0.01388  0.38771  1.0000
  H   H340      1.0  0.26537  0.13145  0.21793  1.0000
  C   C340      1.0  0.24984  0.13225  0.31650  1.0000
  H   H341      1.0  0.25864  0.17400  0.10195  1.0000
  C   C341      1.0  0.37879  0.39667  0.00681  1.0000
  C   C342      1.0  0.32870  0.46842  0.10843  1.0000
  Fe  Fe68      1.0  0.25065  0.21545  0.14067  1.0000
  C   C343      1.0  0.36495  0.07931  0.49954  1.0000
  H   H342      1.0  0.26069  0.25342  0.06663  1.0000
  C   C344      1.0  0.27822  0.25118  0.00280  1.0000
  C   C345      1.0  0.36962  0.00081  0.42028  1.0000
  H   H343      1.0  0.33597  0.49099  0.03830  1.0000
  H   H344      1.0  0.27652  0.18350  0.11935  1.0000
  C   C346      1.0  0.43274  0.48631  0.10975  1.0000
  C   C347      1.0  0.42608  0.48665  0.14798  1.0000
  H   H345      1.0  0.37442  0.02397  0.33420  1.0000
  C   C348      1.0  0.34310  0.49456  0.05327  1.0000
  H   H346      1.0  0.35336  0.35653  0.01484  1.0000
  C   C349      1.0  0.37568  0.49403  0.12541  1.0000
  C   C350      1.0  0.36734  0.13626  0.49760  1.0000
  H   H347      1.0  0.36059  0.49524  0.04985  1.0000
  H   H348      1.0  0.43424  0.49483  0.09389  1.0000
  C   C351      1.0  0.34840  0.99871  0.36822  1.0000
  H   H349      1.0  0.42252  0.49537  0.16243  1.0000
  H   H350      1.0  0.24702  0.13846  0.10801  1.0000
  N   N29       1.0  0.42865  0.49735  0.12799  1.0000
  C   C352      1.0  0.38733  0.99824  0.40540  1.0000
  Fe  Fe69      1.0  0.38187  0.41036  0.91866  1.0000
  S   S127      1.0  0.41499  0.39703  0.92278  1.0000
  S   S128      1.0  0.37087  0.44331  0.92906  1.0000
  Fe  Fe70      1.0  0.36597  0.36695  0.90777  1.0000
  S   S129      1.0  0.39805  0.35013  0.91097  1.0000
  S   S130      1.0  0.33364  0.35402  0.90340  1.0000
  Fe  Fe71      1.0  0.39950  0.36889  0.94013  1.0000
  S   S131      1.0  0.41293  0.35411  0.97028  1.0000
  Fe  Fe72      1.0  0.41129  0.37968  0.89326  1.0000
  S   S132      1.0  0.43863  0.37697  0.86759  1.0000
  S   S133      1.0  0.36651  0.38334  0.93865  1.0000
  S   S134      1.0  0.37903  0.39531  0.88734  1.0000
  Fe  Fe73      1.0  0.36962  0.05547  0.61358  1.0000
  S   S135      1.0  0.37904  0.06514  0.64517  1.0000
  S   S136      1.0  0.35206  0.02613  0.61056  1.0000
  Fe  Fe74      1.0  0.38880  0.09293  0.58778  1.0000
  S   S137      1.0  0.39934  0.10671  0.61735  1.0000
  S   S138      1.0  0.39900  0.10461  0.55343  1.0000
  Fe  Fe75      1.0  0.41014  0.07297  0.62683  1.0000
  S   S139      1.0  0.44111  0.06266  0.64123  1.0000
  Fe  Fe76      1.0  0.36731  0.09793  0.63344  1.0000
  S   S140      1.0  0.34943  0.11835  0.65850  1.0000
  S   S141      1.0  0.40174  0.05975  0.59634  1.0000
  S   S142      1.0  0.35570  0.08767  0.60274  1.0000
  Fe  Fe77      1.0  0.26834  0.24887  0.90232  1.0000
  S   S143      1.0  0.30252  0.25916  0.90040  1.0000
  H   H351      1.0  0.37853  0.32870  0.99930  1.0000
  C   C353      1.0  0.36210  0.32753  0.97050  1.0000
  H   H352      1.0  0.38145  0.14420  0.52616  1.0000
  S   S144      1.0  0.26122  0.22035  0.92556  1.0000
  H   H353      1.0  0.28833  0.23867  0.99544  1.0000
  H   H354      1.0  0.25421  0.18423  0.81138  1.0000
  S   S145      1.0  0.25881  0.09163  0.70134  1.0000
  H   H355      1.0  0.37354  0.48484  0.94400  1.0000
  C   C354      1.0  0.39486  0.48733  0.88351  1.0000
  C   C355      1.0  0.34484  0.33584  0.95939  1.0000
  N   N30       1.0  0.37080  0.00958  0.55653  1.0000
  H   H356      1.0  0.31898  0.37373  0.94476  1.0000
  H   H357      1.0  0.34938  0.03587  0.56357  1.0000
  C   C356      1.0  0.32471  0.11003  0.67095  1.0000
  C   C357      1.0  0.31358  0.09467  0.66209  1.0000
  C   C358      1.0  0.29357  0.08899  0.67180  1.0000
  C   C359      1.0  0.28476  0.09811  0.69080  1.0000
  C   C360      1.0  0.29618  0.11301  0.70006  1.0000
  C   C361      1.0  0.31596  0.11914  0.69000  1.0000
  H   H358      1.0  0.32013  0.08754  0.64744  1.0000
  H   H359      1.0  0.28483  0.07752  0.66447  1.0000
  H   H360      1.0  0.28948  0.12028  0.71458  1.0000
  H   H361      1.0  0.32442  0.13109  0.69693  1.0000
  C   C362      1.0  0.38637  0.09255  0.53369  1.0000
  H   H362      1.0  0.49272  0.32638  0.91734  1.0000
  H   H363      1.0  0.33728  0.07949  0.52240  1.0000
  C   C363      1.0  0.36376  0.03211  0.55261  1.0000
  C   C364      1.0  0.35414  0.08188  0.51997  1.0000
  C   C365      1.0  0.36483  0.08844  0.53703  1.0000
  N   N31       1.0  0.47347  0.34591  0.93895  1.0000
  H   H364      1.0  0.41414  0.09192  0.51100  1.0000
  H   H365      1.0  0.42182  0.10450  0.65845  1.0000
  H   H366      1.0  0.35615  0.09129  0.55245  1.0000
  C   C366      1.0  0.46327  0.07842  0.63465  1.0000
  C   C367      1.0  0.46175  0.09754  0.62171  1.0000
  C   C368      1.0  0.45368  0.34229  0.92949  1.0000
  H   H367      1.0  0.44685  0.10284  0.61532  1.0000
  H   H368      1.0  0.44371  0.35741  0.92815  1.0000
  C   C369      1.0  0.32550  0.32743  0.90269  1.0000
  C   C370      1.0  0.33990  0.30965  0.90281  1.0000
  C   C371      1.0  0.33259  0.28890  0.90220  1.0000
  C   C372      1.0  0.31083  0.28563  0.90166  1.0000
  C   C373      1.0  0.29641  0.30338  0.90188  1.0000
  C   C374      1.0  0.30374  0.32414  0.90232  1.0000
  H   H369      1.0  0.35669  0.31191  0.90297  1.0000
  H   H370      1.0  0.34389  0.27530  0.90196  1.0000
  H   H371      1.0  0.27966  0.30117  0.90133  1.0000
  H   H372      1.0  0.29246  0.33776  0.90214  1.0000
  C   C375      1.0  0.33392  0.35856  0.98773  1.0000
  H   H373      1.0  0.37352  0.31602  0.96322  1.0000
  H   H374      1.0  0.34296  0.33044  0.94351  1.0000
  H   H375      1.0  0.38806  0.39411  0.97293  1.0000
  H   H376      1.0  0.44457  0.33031  0.93994  1.0000
  C   C376      1.0  0.46441  0.36973  0.87514  1.0000
  C   C377      1.0  0.47359  0.37982  0.89124  1.0000
  C   C378      1.0  0.47668  0.35476  0.86318  1.0000
  H   H377      1.0  0.46429  0.39170  0.90030  1.0000
  H   H378      1.0  0.46978  0.34707  0.85062  1.0000
  C   C379      1.0  0.37974  0.48543  0.92717  1.0000
  C   C380      1.0  0.38162  0.46666  0.91605  1.0000
  C   C381      1.0  0.38969  0.46754  0.89430  1.0000
  C   C382      1.0  0.25040  0.17306  0.82508  1.0000
  H   H379      1.0  0.39108  0.45315  0.88556  1.0000
  N   N32       1.0  0.29829  0.17484  0.86017  1.0000
  C   C383      1.0  0.29921  0.18378  0.87950  1.0000
  C   C384      1.0  0.30081  0.18707  0.84103  1.0000
  C   C385      1.0  0.30288  0.20550  0.88000  1.0000
  C   C386      1.0  0.30422  0.20891  0.84097  1.0000
  C   C387      1.0  0.30541  0.21811  0.86060  1.0000
  C   C388      1.0  0.29584  0.15177  0.85994  1.0000
  H   H380      1.0  0.29677  0.17420  0.89468  1.0000
  H   H381      1.0  0.29987  0.18001  0.82571  1.0000
  H   H382      1.0  0.30348  0.21263  0.89533  1.0000
  H   H383      1.0  0.30584  0.21868  0.82582  1.0000
  H   H384      1.0  0.30794  0.23506  0.86088  1.0000
  H   H385      1.0  0.28534  0.14591  0.87421  1.0000
  H   H386      1.0  0.28826  0.14789  0.84530  1.0000
  H   H387      1.0  0.31157  0.14304  0.86018  1.0000
  H   H388      1.0  0.45799  0.36582  0.96265  1.0000
  H   H389      1.0  0.30764  0.34807  0.94577  1.0000
  C   C389      1.0  0.31339  0.36012  0.95586  1.0000
  C   C390      1.0  0.49516  0.37518  0.89488  1.0000
  C   C391      1.0  0.36665  0.00352  0.62020  1.0000
  H   H390      1.0  0.40036  0.48806  0.86648  1.0000
  H   H391      1.0  0.39593  0.03719  0.70091  1.0000
  C   C392      1.0  0.35082  0.35034  0.99943  1.0000
  H   H392      1.0  0.47829  0.12472  0.60697  1.0000
  H   H393      1.0  0.39421  0.01634  0.57742  1.0000
  H   H394      1.0  0.42311  0.11751  0.68331  1.0000
  H   H395      1.0  0.36005  0.03566  0.53550  1.0000
  C   C393      1.0  0.38664  0.00543  0.62763  1.0000
  H   H396      1.0  0.25049  0.19686  0.84852  1.0000
  H   H397      1.0  0.32346  0.37122  0.99430  1.0000
  H   H398      1.0  0.45666  0.33675  0.91283  1.0000
  H   H399      1.0  0.26591  0.26335  0.97272  1.0000
  H   H400      1.0  0.35995  0.05429  0.70955  1.0000
  C   C394      1.0  0.42352  0.10179  0.67611  1.0000
  C   C395      1.0  0.38425  0.14066  0.50925  1.0000
  H   H401      1.0  0.29968  0.36580  0.96673  1.0000
  H   H402      1.0  0.35404  0.09354  0.70267  1.0000
  C   C396      1.0  0.33773  0.48367  0.88726  1.0000
  S   S146      1.0  0.25370  0.14291  0.79508  1.0000
  H   H403      1.0  0.42529  0.05947  0.68564  1.0000
  C   C397      1.0  0.38976  0.38711  0.98910  1.0000
  H   H404      1.0  0.32414  0.48567  0.94111  1.0000
  H   H405      1.0  0.35129  0.13648  0.50536  1.0000
  C   C398      1.0  0.33088  0.47676  0.90845  1.0000
  H   H406      1.0  0.48408  0.05693  0.65275  1.0000
  N   N33       1.0  0.40639  0.08875  0.68625  1.0000
  C   C399      1.0  0.38665  0.09821  0.69082  1.0000
  C   C400      1.0  0.40982  0.06711  0.68991  1.0000
  C   C401      1.0  0.36978  0.08600  0.69960  1.0000
  C   C402      1.0  0.39327  0.05439  0.69856  1.0000
  C   C403      1.0  0.37311  0.06395  0.70339  1.0000
  C   C404      1.0  0.48278  0.07169  0.64270  1.0000
  H   H407      1.0  0.38365  0.11523  0.68712  1.0000
  C   C405      1.0  0.40263  0.36849  0.99239  1.0000
  H   H408      1.0  0.37617  0.04306  0.55573  1.0000
  C   C406      1.0  0.24828  0.18028  0.84615  1.0000
  C   C407      1.0  0.39742  0.08897  0.51358  1.0000
  C   C408      1.0  0.49221  0.33626  0.93103  1.0000
  H   H409      1.0  0.43942  0.09374  0.67811  1.0000
  H   H410      1.0  0.32872  0.45989  0.91267  1.0000
  C   C409      1.0  0.32838  0.49145  0.92450  1.0000
  H   H411      1.0  0.34073  0.47221  0.87493  1.0000
  S   S147      1.0  0.26316  0.08569  0.76594  1.0000
  H   H412      1.0  0.48622  0.40288  0.84605  1.0000
  C   C410      1.0  0.47959  0.10992  0.61697  1.0000
  C   C411      1.0  0.36493  0.33469  0.99074  1.0000
  H   H413      1.0  0.41804  0.14141  0.50904  1.0000
  C   C412      1.0  0.47294  0.35849  0.95612  1.0000
  H   H414      1.0  0.39270  0.02104  0.62859  1.0000
  N   N34       1.0  0.33087  0.35097  0.96817  1.0000
  C   C413      1.0  0.26567  0.26505  0.99005  1.0000
  S   S148      1.0  0.25396  0.23516  0.87466  1.0000
  C   C414      1.0  0.38677  0.00411  0.56970  1.0000
  C   C415      1.0  0.24815  0.15144  0.82166  1.0000
  C   C416      1.0  0.49165  0.36216  0.96542  1.0000
  H   H415      1.0  0.49039  0.43199  0.87016  1.0000
  H   H416      1.0  0.24706  0.21043  0.98108  1.0000
  H   H417      1.0  0.49134  0.37235  0.97887  1.0000
  H   H418      1.0  0.34761  0.99836  0.53778  1.0000
  C   C417      1.0  0.25211  0.28054  0.99980  1.0000
  Fe  Fe78      1.0  0.37921  0.55099  0.09793  1.0000
  S   S149      1.0  0.38031  0.56181  0.13144  1.0000
  S   S150      1.0  0.37668  0.51804  0.08611  1.0000
  Fe  Fe79      1.0  0.38834  0.59505  0.07706  1.0000
  S   S151      1.0  0.39117  0.60955  0.10860  1.0000
  S   S152      1.0  0.39095  0.61347  0.04482  1.0000
  Fe  Fe80      1.0  0.40938  0.57869  0.11738  1.0000
  S   S153      1.0  0.43908  0.57308  0.13519  1.0000
  Fe  Fe81      1.0  0.36190  0.59176  0.11959  1.0000
  S   S154      1.0  0.33310  0.60695  0.13835  1.0000
  S   S155      1.0  0.40927  0.56607  0.08465  1.0000
  S   S156      1.0  0.35808  0.57913  0.08741  1.0000
  Fe  Fe82      1.0  0.35729  0.91545  0.40889  1.0000
  S   S157      1.0  0.37234  0.90817  0.37608  1.0000
  S   S158      1.0  0.33999  0.94619  0.41705  1.0000
  Fe  Fe83      1.0  0.37417  0.87456  0.43092  1.0000
  S   S159      1.0  0.39044  0.86306  0.39976  1.0000
  S   S160      1.0  0.37757  0.85681  0.46364  1.0000
  Fe  Fe84      1.0  0.40098  0.89667  0.39360  1.0000
  S   S161      1.0  0.43333  0.90898  0.38214  1.0000
  Fe  Fe85      1.0  0.36037  0.87542  0.38466  1.0000
  S   S162      1.0  0.34709  0.85806  0.35822  1.0000
  S   S163      1.0  0.38673  0.90709  0.42561  1.0000
  S   S164      1.0  0.34321  0.88360  0.41657  1.0000
  H   H419      1.0  0.29087  0.86172  0.20755  1.0000
  S   S165      1.0  0.29710  0.70054  0.11095  1.0000
  C   C418      1.0  0.37277  0.60989  0.00702  1.0000
  S   S166      1.0  0.26186  0.87363  0.26580  1.0000
  C   C419      1.0  0.40976  0.95272  0.44980  1.0000
  H   H420      1.0  0.26601  0.97190  0.28634  1.0000
  H   H421      1.0  0.29969  0.84535  0.16210  1.0000
  H   H422      1.0  0.28078  0.91825  0.26856  1.0000
  H   H423      1.0  0.44151  0.52746  0.11815  1.0000
  H   H424      1.0  0.44109  0.88948  0.47110  1.0000
  H   H425      1.0  0.44993  0.90664  0.43434  1.0000
  C   C420      1.0  0.27773  0.86790  0.19841  1.0000
  Fe  Fe86      1.0  0.26415  0.71520  0.12021  1.0000
  C   C421      1.0  0.28217  0.71400  0.02045  1.0000
  H   H426      1.0  0.42301  0.52794  0.14164  1.0000
  C   C422      1.0  0.31835  0.83563  0.42407  1.0000
  C   C423      1.0  0.27138  0.70318  0.05854  1.0000
  H   H427      1.0  0.25189  0.85735  0.15568  1.0000
  C   C424      1.0  0.32105  0.86260  0.34969  1.0000
  C   C425      1.0  0.31631  0.85454  0.33021  1.0000
  C   C426      1.0  0.29553  0.85667  0.32350  1.0000
  C   C427      1.0  0.27915  0.86644  0.33652  1.0000
  C   C428      1.0  0.28390  0.87462  0.35594  1.0000
  C   C429      1.0  0.30478  0.87293  0.36240  1.0000
  H   H428      1.0  0.32876  0.84643  0.32032  1.0000
  H   H429      1.0  0.29210  0.85015  0.30861  1.0000
  H   H430      1.0  0.27133  0.88217  0.36614  1.0000
  H   H431      1.0  0.30818  0.87918  0.37743  1.0000
  C   C430      1.0  0.35881  0.96565  0.41375  1.0000
  C   C431      1.0  0.25369  0.81180  0.20784  1.0000
  S   S167      1.0  0.26452  0.82246  0.22991  1.0000
  H   H432      1.0  0.47705  0.85041  0.41594  1.0000
  C   C432      1.0  0.39131  0.97897  0.39549  1.0000
  C   C433      1.0  0.37721  0.96257  0.39990  1.0000
  H   H433      1.0  0.33023  0.85701  0.46073  1.0000
  C   C434      1.0  0.42654  0.52077  0.12576  1.0000
  H   H434      1.0  0.40515  0.97679  0.38416  1.0000
  H   H435      1.0  0.38029  0.94787  0.39195  1.0000
  C   C435      1.0  0.45714  0.89615  0.39042  1.0000
  C   C436      1.0  0.45749  0.87591  0.40145  1.0000
  C   C437      1.0  0.47613  0.90679  0.38618  1.0000
  H   H436      1.0  0.44294  0.86760  0.40480  1.0000
  H   H437      1.0  0.47596  0.92243  0.37762  1.0000
  C   C438      1.0  0.32142  0.63150  0.12794  1.0000
  C   C439      1.0  0.33228  0.64433  0.11175  1.0000
  C   C440      1.0  0.32415  0.66515  0.10608  1.0000
  C   C441      1.0  0.30490  0.67320  0.11619  1.0000
  C   C442      1.0  0.29343  0.65996  0.13152  1.0000
  C   C443      1.0  0.30177  0.63926  0.13749  1.0000
  H   H438      1.0  0.34730  0.63848  0.10409  1.0000
  H   H439      1.0  0.33308  0.67522  0.09411  1.0000
  H   H440      1.0  0.27859  0.66597  0.13942  1.0000
  H   H441      1.0  0.29322  0.62941  0.14997  1.0000
  C   C444      1.0  0.42367  0.55372  0.01504  1.0000
  H   H442      1.0  0.37369  0.80940  0.40861  1.0000
  C   C445      1.0  0.43884  0.93891  0.42618  1.0000
  C   C446      1.0  0.46464  0.59436  0.10311  1.0000
  C   C447      1.0  0.46362  0.58143  0.12246  1.0000
  C   C448      1.0  0.48246  0.57518  0.13212  1.0000
  H   H443      1.0  0.45021  0.59933  0.09559  1.0000
  S   S168      1.0  0.25240  0.86796  0.32973  1.0000
  H   H444      1.0  0.32168  0.70547  0.15163  1.0000
  C   C449      1.0  0.25672  0.78550  0.18032  1.0000
  C   C450      1.0  0.37841  0.59949  0.02653  1.0000
  C   C451      1.0  0.37505  0.57768  0.03078  1.0000
  H   H445      1.0  0.29262  0.82990  0.18723  1.0000
  C   C452      1.0  0.36961  0.64732  0.14953  1.0000
  H   H446      1.0  0.37962  0.56945  0.04569  1.0000
  C   C453      1.0  0.28290  0.93380  0.27538  1.0000
  C   C454      1.0  0.43890  0.91968  0.43907  1.0000
  C   C455      1.0  0.43196  0.59062  0.01631  1.0000
  H   H447      1.0  0.48496  0.61160  0.07898  1.0000
  C   C456      1.0  0.33684  0.64813  0.17383  1.0000
  H   H448      1.0  0.30308  0.84378  0.42804  1.0000
  H   H449      1.0  0.42271  0.53765  0.02261  1.0000
  H   H450      1.0  0.42401  0.97051  0.42175  1.0000
  H   H451      1.0  0.35497  0.68673  0.13775  1.0000
  C   C457      1.0  0.25970  0.95863  0.29663  1.0000
  H   H452      1.0  0.41338  0.52600  0.11556  1.0000
  C   C458      1.0  0.32612  0.68958  0.15844  1.0000
  N   N35       1.0  0.33275  0.83204  0.43931  1.0000
  C   C459      1.0  0.35515  0.98465  0.42420  1.0000
  H   H453      1.0  0.25751  0.71290  0.06537  1.0000
  H   H454      1.0  0.37278  0.65147  0.13186  1.0000
  N   N36       1.0  0.42493  0.91716  0.45706  1.0000
  C   C460      1.0  0.41032  0.93328  0.46240  1.0000
  N   N37       1.0  0.26995  0.70175  0.03524  1.0000
  H   H455      1.0  0.36856  0.62964  0.15141  1.0000
  H   H456      1.0  0.25629  0.97023  0.23050  1.0000
  C   C461      1.0  0.25839  0.92133  0.30583  1.0000
  H   H457      1.0  0.29768  0.68721  0.18001  1.0000
  H   H458      1.0  0.43746  0.60317  0.02521  1.0000
  H   H459      1.0  0.27709  0.82870  0.16479  1.0000
  H   H460      1.0  0.30734  0.65007  0.19407  1.0000
  H   H461      1.0  0.44955  0.94060  0.41159  1.0000
  H   H462      1.0  0.39787  0.96533  0.45370  1.0000
  H   H463      1.0  0.37224  0.50886  0.13320  1.0000
  H   H464      1.0  0.28191  0.94616  0.26168  1.0000
  C   C462      1.0  0.34486  0.67881  0.15052  1.0000
  C   C463      1.0  0.42470  0.89647  0.46967  1.0000
  C   C464      1.0  0.32333  0.82940  0.40296  1.0000
  C   C465      1.0  0.26325  0.79307  0.19938  1.0000
  H   H465      1.0  0.28610  0.71065  0.06202  1.0000
  H   H466      1.0  0.31214  0.83272  0.39069  1.0000
  C   C466      1.0  0.42428  0.95556  0.43171  1.0000
  C   C467      1.0  0.34324  0.81967  0.39744  1.0000
  C   C468      1.0  0.25539  0.68900  0.02846  1.0000
  N   N38       1.0  0.34986  0.65827  0.15805  1.0000
  C   C469      1.0  0.31799  0.65844  0.18214  1.0000
  C   C470      1.0  0.31259  0.67927  0.17429  1.0000
  C   C471      1.0  0.43169  0.56976  0.02592  1.0000
  H   H467      1.0  0.34750  0.81542  0.38090  1.0000
  H   H468      1.0  0.38314  0.65182  0.15816  1.0000
  C   C472      1.0  0.32883  0.99602  0.38016  1.0000
  C   C473      1.0  0.26563  0.88593  0.20522  1.0000
  C   C474      1.0  0.48434  0.60130  0.09374  1.0000
  H   H469      1.0  0.25405  0.76223  0.00670  1.0000
  C   C475      1.0  0.24828  0.89358  0.19403  1.0000
  H   H470      1.0  0.26945  0.89380  0.21927  1.0000
  C   C476      1.0  0.36677  0.56614  0.01522  1.0000
  H   H471      1.0  0.26403  0.90501  0.30316  1.0000
  C   C477      1.0  0.47681  0.86622  0.40775  1.0000
  H   H472      1.0  0.36490  0.54914  0.01826  1.0000
  N   N39       1.0  0.27277  0.85787  0.18080  1.0000
  H   H473      1.0  0.27158  0.68703  0.06717  1.0000
  H   H474      1.0  0.48180  0.56521  0.14711  1.0000
  H   H475      1.0  0.43712  0.56628  0.04195  1.0000
  H   H476      1.0  0.27614  0.78463  0.20731  1.0000
  C   C478      1.0  0.36978  0.89379  0.48537  1.0000
  H   H477      1.0  0.34056  0.63167  0.17944  1.0000
  C   C479      1.0  0.32754  0.83964  0.46103  1.0000
  N   N40       1.0  0.26638  0.93801  0.29283  1.0000
  H   H478      1.0  0.36416  0.90117  0.47050  1.0000
  H   H479      1.0  0.35758  0.98468  0.36276  1.0000
  C   C480      1.0  0.35793  0.81634  0.41296  1.0000
  H   H480      1.0  0.36407  0.82033  0.44581  1.0000
  H   H481      1.0  0.29881  0.93347  0.28164  1.0000
  C   C481      1.0  0.28626  0.83963  0.17329  1.0000
  H   H482      1.0  0.41568  0.88515  0.46153  1.0000
  C   C482      1.0  0.35240  0.82266  0.43395  1.0000
  H   H483      1.0  0.39872  0.93104  0.47618  1.0000
  H   H484      1.0  0.26459  0.77136  0.17368  1.0000
  H   H485      1.0  0.41712  0.89800  0.48639  1.0000
  C   C483      1.0  0.25591  0.86540  0.16956  1.0000
  H   H486      1.0  0.33775  0.83127  0.47305  1.0000
  H   H487      1.0  0.31076  0.83690  0.46683  1.0000
  C   C484      1.0  0.25314  0.68787  0.00634  1.0000
  H   H488      1.0  0.29315  0.72473  0.02580  1.0000
  H   H489      1.0  0.32316  0.98007  0.38411  1.0000
  H   H490      1.0  0.34113  0.98689  0.43525  1.0000
  C   C485      1.0  0.37676  0.87221  0.48652  1.0000
  H   H491      1.0  0.37493  0.62683  0.00385  1.0000
  S   S169      1.0  0.25018  0.72757  0.15193  1.0000
  H   H492      1.0  0.33060  0.50074  0.09479  1.0000
  C   C486      1.0  0.49581  0.87683  0.40342  1.0000
  S   S170      1.0  0.25486  0.74537  0.10041  1.0000
  C   C487      1.0  0.49538  0.89725  0.39279  1.0000
  H   H493      1.0  0.33691  0.51076  0.05770  1.0000
  Fe  Fe87      1.0  0.41435  0.59060  0.92362  1.0000
  S   S171      1.0  0.40278  0.55790  0.93247  1.0000
  S   S172      1.0  0.44505  0.59698  0.93738  1.0000
  Fe  Fe88      1.0  0.37289  0.60626  0.90409  1.0000
  S   S173      1.0  0.35824  0.57442  0.91099  1.0000
  S   S174      1.0  0.35642  0.63666  0.89004  1.0000
  Fe  Fe89      1.0  0.37186  0.57447  0.94309  1.0000
  S   S175      1.0  0.35564  0.56123  0.97435  1.0000
  Fe  Fe90      1.0  0.39045  0.56027  0.89977  1.0000
  S   S176      1.0  0.39593  0.53123  0.88007  1.0000
  S   S177      1.0  0.38432  0.60719  0.93718  1.0000
  S   S178      1.0  0.40432  0.59213  0.88971  1.0000
  Fe  Fe91      1.0  0.37213  0.87672  0.62270  1.0000
  S   S179      1.0  0.36712  0.91006  0.60781  1.0000
  S   S180      1.0  0.34273  0.86157  0.63967  1.0000
  Fe  Fe92      1.0  0.41902  0.87440  0.60564  1.0000
  S   S181      1.0  0.41705  0.90749  0.58974  1.0000
  S   S182      1.0  0.45185  0.85818  0.60138  1.0000
  Fe  Fe93      1.0  0.39828  0.91565  0.62043  1.0000
  S   S183      1.0  0.40819  0.94397  0.63637  1.0000
  Fe  Fe94      1.0  0.38634  0.89863  0.57830  1.0000
  S   S184      1.0  0.37731  0.91262  0.54533  1.0000
  S   S185      1.0  0.40219  0.88315  0.63742  1.0000
  S   S186      1.0  0.38936  0.86458  0.59203  1.0000
  C   C488      1.0  0.36454  0.59834  0.99148  1.0000
  S   S187      1.0  0.30015  0.88152  0.73345  1.0000
  C   C489      1.0  0.36979  0.90585  0.50361  1.0000
  N   N41       1.0  0.29235  0.66279  0.85359  1.0000
  H   H494      1.0  0.30692  0.87422  0.82607  1.0000
  H   H495      1.0  0.31438  0.71924  0.84837  1.0000
  C   C490      1.0  0.33169  0.86620  0.66627  1.0000
  C   C491      1.0  0.34228  0.87740  0.68036  1.0000
  C   C492      1.0  0.33250  0.88163  0.70100  1.0000
  C   C493      1.0  0.31199  0.87494  0.70767  1.0000
  C   C494      1.0  0.30150  0.86352  0.69371  1.0000
  C   C495      1.0  0.31140  0.85903  0.67318  1.0000
  H   H496      1.0  0.35799  0.88276  0.67535  1.0000
  H   H497      1.0  0.34081  0.89031  0.71177  1.0000
  H   H498      1.0  0.28578  0.85815  0.69869  1.0000
  H   H499      1.0  0.30316  0.85024  0.66243  1.0000
  C   C496      1.0  0.48120  0.93362  0.60508  1.0000
  C   C497      1.0  0.36658  0.97238  0.55191  1.0000
  C   C498      1.0  0.37139  0.96496  0.62468  1.0000
  C   C499      1.0  0.39162  0.96679  0.63148  1.0000
  C   C500      1.0  0.48924  0.92524  0.64813  1.0000
  H   H500      1.0  0.46174  0.53835  0.86161  1.0000
  H   H501      1.0  0.32472  0.54365  0.93082  1.0000
  H   H502      1.0  0.36536  0.94947  0.62365  1.0000
  C   C501      1.0  0.35889  0.98330  0.61903  1.0000
  C   C502      1.0  0.36210  0.57636  0.99528  1.0000
  C   C503      1.0  0.37685  0.89652  0.52314  1.0000
  C   C504      1.0  0.38361  0.86279  0.50610  1.0000
  C   C505      1.0  0.24955  0.81507  0.81728  1.0000
  C   C506      1.0  0.28265  0.90235  0.65595  1.0000
  H   H503      1.0  0.45237  0.54660  0.92991  1.0000
  C   C507      1.0  0.38372  0.87491  0.52434  1.0000
  H   H504      1.0  0.34299  0.53590  0.89485  1.0000
  Fe  Fe95      1.0  0.26555  0.87848  0.74638  1.0000
  H   H505      1.0  0.30756  0.93440  0.69704  1.0000
  H   H506      1.0  0.38917  0.86753  0.53929  1.0000
  C   C508      1.0  0.47183  0.86848  0.61506  1.0000
  C   C509      1.0  0.30060  0.92559  0.68529  1.0000
  H   H507      1.0  0.45729  0.86025  0.64699  1.0000
  C   C510      1.0  0.33007  0.64422  0.89957  1.0000
  C   C511      1.0  0.31498  0.62892  0.90514  1.0000
  C   C512      1.0  0.29337  0.63536  0.90892  1.0000
  C   C513      1.0  0.28666  0.65711  0.90731  1.0000
  C   C514      1.0  0.30189  0.67247  0.90300  1.0000
  C   C515      1.0  0.32349  0.66602  0.89903  1.0000
  H   H508      1.0  0.31983  0.61210  0.90561  1.0000
  H   H509      1.0  0.28170  0.62338  0.91239  1.0000
  H   H510      1.0  0.29697  0.68926  0.90183  1.0000
  H   H511      1.0  0.33509  0.67795  0.89487  1.0000
  C   C516      1.0  0.47118  0.86637  0.63770  1.0000
  H   H512      1.0  0.35992  0.60652  0.97660  1.0000
  H   H513      1.0  0.34804  0.51055  0.86613  1.0000
  H   H514      1.0  0.44930  0.92556  0.61590  1.0000
  S   S188      1.0  0.25910  0.66414  0.90817  1.0000
  H   H515      1.0  0.28303  0.86207  0.83822  1.0000
  H   H516      1.0  0.34343  0.98183  0.61329  1.0000
  C   C517      1.0  0.48898  0.87093  0.64827  1.0000
  C   C518      1.0  0.46932  0.59621  0.92117  1.0000
  C   C519      1.0  0.47020  0.59432  0.89879  1.0000
  Fe  Fe96      1.0  0.24737  0.74353  0.88469  1.0000
  H   H517      1.0  0.45568  0.59399  0.89089  1.0000
  H   H518      1.0  0.28158  0.87992  0.81477  1.0000
  H   H519      1.0  0.49130  0.54432  0.93186  1.0000
  H   H520      1.0  0.27952  0.63708  0.83967  1.0000
  H   H521      1.0  0.25985  0.78232  0.81208  1.0000
  C   C520      1.0  0.46515  0.92718  0.62074  1.0000
  H   H522      1.0  0.43741  0.54326  0.89462  1.0000
  H   H523      1.0  0.31994  0.52214  0.95082  1.0000
  H   H524      1.0  0.45864  0.90579  0.67156  1.0000
  C   C521      1.0  0.49000  0.59273  0.88661  1.0000
  C   C522      1.0  0.33893  0.51945  0.89872  1.0000
  C   C523      1.0  0.38298  0.96670  0.56515  1.0000
  C   C524      1.0  0.46286  0.54377  0.91550  1.0000
  S   S189      1.0  0.25712  0.89780  0.77544  1.0000
  C   C525      1.0  0.31374  0.66500  0.84958  1.0000
  C   C526      1.0  0.49009  0.87592  0.60314  1.0000
  C   C527      1.0  0.36058  0.99404  0.54783  1.0000
  S   S190      1.0  0.26241  0.76049  0.85405  1.0000
  S   S191      1.0  0.25015  0.84921  0.76213  1.0000
  C   C528      1.0  0.38508  0.50510  0.91647  1.0000
  H   H525      1.0  0.30933  0.80265  0.77168  1.0000
  C   C529      1.0  0.30315  0.90964  0.65154  1.0000
  H   H526      1.0  0.34679  0.52898  0.94246  1.0000
  H   H527      1.0  0.40954  0.54649  0.98617  1.0000
  C   C530      1.0  0.27870  0.68045  0.85507  1.0000
  H   H528      1.0  0.35850  0.95998  0.54508  1.0000
  H   H529      1.0  0.27143  0.92166  0.70566  1.0000
  H   H530      1.0  0.48766  0.59837  0.94851  1.0000
  H   H531      1.0  0.41073  0.58345  0.96991  1.0000
  C   C531      1.0  0.28643  0.70099  0.85308  1.0000
  C   C532      1.0  0.25482  0.79368  0.82404  1.0000
  H   H532      1.0  0.41293  0.62020  0.97432  1.0000
  H   H533      1.0  0.29570  0.62924  0.86193  1.0000
  C   C533      1.0  0.49016  0.53826  0.87866  1.0000
  H   H534      1.0  0.38753  0.94994  0.56872  1.0000
  H   H535      1.0  0.30237  0.79542  0.81164  1.0000
  H   H536      1.0  0.41472  0.98854  0.63871  1.0000
  C   C534      1.0  0.25384  0.78698  0.84617  1.0000
  H   H537      1.0  0.44346  0.93036  0.66442  1.0000
  H   H538      1.0  0.38289  0.51948  0.92509  1.0000
  H   H539      1.0  0.44093  0.90649  0.65064  1.0000
  H   H540      1.0  0.44044  0.62075  0.97925  1.0000
  C   C535      1.0  0.45232  0.91605  0.65800  1.0000
  C   C536      1.0  0.33334  0.92864  0.66124  1.0000
  C   C537      1.0  0.28009  0.91850  0.69024  1.0000
  N   N42       1.0  0.29655  0.84946  0.80870  1.0000
  C   C538      1.0  0.29754  0.82888  0.81764  1.0000
  H   H541      1.0  0.26963  0.64090  0.86749  1.0000
  C   C539      1.0  0.30221  0.81174  0.80450  1.0000
  C   C540      1.0  0.30543  0.83683  0.77322  1.0000
  C   C541      1.0  0.30602  0.81578  0.78213  1.0000
  H   H542      1.0  0.33906  0.68689  0.84529  1.0000
  H   H543      1.0  0.29409  0.82554  0.83496  1.0000
  C   C542      1.0  0.27111  0.90675  0.67548  1.0000
  H   H544      1.0  0.32465  0.65101  0.84884  1.0000
  H   H545      1.0  0.30838  0.84021  0.75583  1.0000
  H   H546      1.0  0.33248  0.94466  0.65239  1.0000
  H   H547      1.0  0.25519  0.98668  0.79972  1.0000
  C   C543      1.0  0.48491  0.54257  0.91648  1.0000
  H   H548      1.0  0.30031  0.86992  0.77974  1.0000
  H   H549      1.0  0.34148  0.92972  0.67624  1.0000
  C   C544      1.0  0.41686  0.57965  0.98553  1.0000
  C   C545      1.0  0.39909  0.98704  0.63337  1.0000
  N   N43       1.0  0.46940  0.92272  0.64187  1.0000
  C   C546      1.0  0.39217  0.50622  0.89447  1.0000
  H   H550      1.0  0.31226  0.90560  0.63660  1.0000
  H   H551      1.0  0.34341  0.91742  0.65115  1.0000
  H   H552      1.0  0.47783  0.93667  0.58827  1.0000
  N   N44       1.0  0.31194  0.92090  0.66626  1.0000
  H   H553      1.0  0.48856  0.86867  0.66575  1.0000
  C   C547      1.0  0.32202  0.68531  0.84760  1.0000
  C   C548      1.0  0.42437  0.61743  0.98697  1.0000
  C   C549      1.0  0.28389  0.64142  0.85564  1.0000
  H   H554      1.0  0.49065  0.59116  0.86932  1.0000
  C   C550      1.0  0.29194  0.86730  0.82265  1.0000
  S   S192      1.0  0.26393  0.72658  0.91226  1.0000
  C   C551      1.0  0.30823  0.70339  0.84945  1.0000
  H   H555      1.0  0.48943  0.82096  0.60828  1.0000
  C   C552      1.0  0.30075  0.85359  0.78684  1.0000
  H   H556      1.0  0.27603  0.89282  0.64455  1.0000
  H   H557      1.0  0.27563  0.71496  0.85471  1.0000
  H   H558      1.0  0.40552  0.97835  0.58494  1.0000
  C   C553      1.0  0.46818  0.53940  0.87711  1.0000
  C   C554      1.0  0.48824  0.59679  0.93123  1.0000
  H   H559      1.0  0.26176  0.67867  0.85847  1.0000
  N   N45       1.0  0.33223  0.51255  0.91949  1.0000
  H   H560      1.0  0.38903  0.84611  0.50716  1.0000
  N   N46       1.0  0.42427  0.59538  0.99653  1.0000
  H   H561      1.0  0.25539  0.90077  0.67935  1.0000
  C   C555      1.0  0.45448  0.54215  0.89568  1.0000
  H   H562      1.0  0.49271  0.92153  0.66484  1.0000
  C   C556      1.0  0.33083  0.52751  0.93671  1.0000
  H   H563      1.0  0.36420  0.92248  0.50262  1.0000
  H   H564      1.0  0.49077  0.87737  0.58562  1.0000
  C   C557      1.0  0.34176  0.50515  0.88231  1.0000
  H   H565      1.0  0.28935  0.72362  0.98650  1.0000
  C   C558      1.0  0.39319  0.98263  0.57408  1.0000
  C   C559      1.0  0.41633  0.55863  0.99463  1.0000
  C   C560      1.0  0.28023  0.71337  0.99821  1.0000
  C   C561      1.0  0.24712  0.80174  0.86149  1.0000
  C   C562      1.0  0.26565  0.70017  0.99116  1.0000
  H   H566      1.0  0.26346  0.70015  0.97398  1.0000
  H   H567      1.0  0.25062  0.82003  0.80022  1.0000
  H   H568      1.0  0.41952  0.62890  0.99956  1.0000
  Fe  Fe97      1.0  0.60634  0.36614  0.12830  1.0000
  S   S193      1.0  0.61439  0.38104  0.09502  1.0000
  S   S194      1.0  0.63356  0.35214  0.14712  1.0000
  Fe  Fe98      1.0  0.55886  0.37563  0.12537  1.0000
  S   S195      1.0  0.56334  0.39062  0.09154  1.0000
  S   S196      1.0  0.52660  0.37499  0.14432  1.0000
  Fe  Fe99      1.0  0.58729  0.36339  0.08590  1.0000
  S   S197      1.0  0.59514  0.34623  0.05552  1.0000
  Fe  Fe100     1.0  0.59008  0.40718  0.10350  1.0000
  S   S198      1.0  0.59604  0.44055  0.08867  1.0000
  S   S199      1.0  0.58052  0.34666  0.11873  1.0000
  S   S200      1.0  0.58426  0.39402  0.13798  1.0000
  Fe  Fe101     1.0  0.56923  0.09788  0.45549  1.0000
  S   S201      1.0  0.56204  0.11446  0.42326  1.0000
  S   S202      1.0  0.56169  0.11446  0.48657  1.0000
  Fe  Fe102     1.0  0.58521  0.05704  0.43548  1.0000
  S   S203      1.0  0.57973  0.07031  0.40195  1.0000
  H   H569      1.0  0.56840  0.12434  0.35381  1.0000
  Fe  Fe103     1.0  0.59383  0.09975  0.41112  1.0000
  S   S204      1.0  0.61549  0.11896  0.38696  1.0000
  Fe  Fe104     1.0  0.54853  0.08345  0.41685  1.0000
  S   S205      1.0  0.52047  0.07543  0.39918  1.0000
  S   S206      1.0  0.60196  0.08553  0.44384  1.0000
  S   S207      1.0  0.55321  0.06812  0.44996  1.0000
  Fe  Fe105     1.0  0.70515  0.24669  0.13185  1.0000
  H   H570      1.0  0.60302  0.34818  0.00916  1.0000
  S   S208      1.0  0.67091  0.25847  0.12891  1.0000
  H   H571      1.0  0.73925  0.11987  0.21237  1.0000
  C   C563      1.0  0.71616  0.22870  0.02204  1.0000
  C   C564      1.0  0.72738  0.23323  0.00173  1.0000
  S   S209      1.0  0.73165  0.11526  0.29247  1.0000
  S   S210      1.0  0.72036  0.23089  0.16078  1.0000
  S   S211      1.0  0.71598  0.21996  0.11041  1.0000
  S   S212      1.0  0.70183  0.07834  0.27798  1.0000
  Fe  Fe106     1.0  0.71714  0.08530  0.30776  1.0000
  S   S213      1.0  0.70206  0.07934  0.34227  1.0000
  C   C565      1.0  0.63682  0.11223  0.49561  1.0000
  C   C566      1.0  0.58448  0.47989  0.13831  1.0000
  C   C567      1.0  0.59598  0.48350  0.09380  1.0000
  C   C568      1.0  0.71371  0.14384  0.21587  1.0000
  C   C569      1.0  0.70388  0.16223  0.20601  1.0000
  C   C570      1.0  0.71185  0.17085  0.18552  1.0000
  H   H572      1.0  0.68999  0.16984  0.21426  1.0000
  H   H573      1.0  0.70404  0.18494  0.17808  1.0000
  C   C571      1.0  0.60478  0.14399  0.49206  1.0000
  H   H574      1.0  0.64891  0.34477  0.08851  1.0000
  S   S214      1.0  0.70316  0.13382  0.24176  1.0000
  H   H575      1.0  0.54408  0.41608  0.05306  1.0000
  C   C572      1.0  0.50421  0.36974  0.13078  1.0000
  C   C573      1.0  0.63902  0.10725  0.37408  1.0000
  C   C574      1.0  0.64830  0.08794  0.38231  1.0000
  C   C575      1.0  0.66742  0.07948  0.37214  1.0000
  C   C576      1.0  0.67719  0.08990  0.35337  1.0000
  C   C577      1.0  0.66758  0.10890  0.34477  1.0000
  C   C578      1.0  0.64872  0.11766  0.35526  1.0000
  H   H576      1.0  0.64103  0.07975  0.39678  1.0000
  H   H577      1.0  0.67478  0.06482  0.37896  1.0000
  H   H578      1.0  0.67500  0.11717  0.33042  1.0000
  H   H579      1.0  0.64172  0.13266  0.34881  1.0000
  H   H580      1.0  0.57999  0.47843  0.15555  1.0000
  C   C579      1.0  0.55975  0.07153  0.35274  1.0000
  N   N47       1.0  0.59669  0.07809  0.34419  1.0000
  H   H581      1.0  0.57338  0.30608  0.16860  1.0000
  C   C580      1.0  0.57160  0.10744  0.35161  1.0000
  Fe  Fe107     1.0  0.73388  0.20623  0.13844  1.0000
  H   H582      1.0  0.61552  0.34561  0.19513  1.0000
  H   H583      1.0  0.63637  0.11138  0.46115  1.0000
  C   C581      1.0  0.56811  0.42753  0.01098  1.0000
  H   H584      1.0  0.68391  0.33707  0.10337  1.0000
  H   H585      1.0  0.61981  0.05708  0.32840  1.0000
  C   C582      1.0  0.64429  0.32639  0.14137  1.0000
  C   C583      1.0  0.63305  0.31268  0.13040  1.0000
  C   C584      1.0  0.64137  0.29186  0.12691  1.0000
  C   C585      1.0  0.66118  0.28469  0.13397  1.0000
  C   C586      1.0  0.67256  0.29844  0.14477  1.0000
  C   C587      1.0  0.66401  0.31916  0.14866  1.0000
  H   H586      1.0  0.61784  0.31799  0.12476  1.0000
  H   H587      1.0  0.63248  0.28129  0.11856  1.0000
  H   H588      1.0  0.68779  0.29300  0.15039  1.0000
  H   H589      1.0  0.67274  0.32963  0.15731  1.0000
  H   H590      1.0  0.73958  0.18701  0.03718  1.0000
  H   H591      1.0  0.52214  0.35485  0.10431  1.0000
  Fe  Fe108     1.0  0.71892  0.10654  0.26167  1.0000
  C   C588      1.0  0.59268  0.46320  0.10420  1.0000
  C   C589      1.0  0.58690  0.46143  0.12652  1.0000
  C   C590      1.0  0.74569  0.18444  0.05303  1.0000
  H   H592      1.0  0.54243  0.01179  0.45542  1.0000
  H   H593      1.0  0.58602  0.02816  0.39880  1.0000
  C   C591      1.0  0.55437  0.42978  0.04893  1.0000
  H   H594      1.0  0.58432  0.44588  0.13468  1.0000
  C   C592      1.0  0.52379  0.01414  0.40572  1.0000
  H   H595      1.0  0.63427  0.31803  0.06712  1.0000
  H   H596      1.0  0.58425  0.04706  0.34661  1.0000
  C   C593      1.0  0.55993  0.36723  0.03997  1.0000
  C   C594      1.0  0.57976  0.35702  0.03486  1.0000
  S   S215      1.0  0.73261  0.26700  0.12108  1.0000
  H   H597      1.0  0.55338  0.36727  0.05662  1.0000
  H   H598      1.0  0.62928  0.08255  0.33300  1.0000
  C   C595      1.0  0.60576  0.14157  0.45285  1.0000
  H   H599      1.0  0.62489  0.06316  0.35550  1.0000
  Fe  Fe109     1.0  0.73188  0.05855  0.26929  1.0000
  H   H600      1.0  0.60784  0.29598  0.19920  1.0000
  C   C596      1.0  0.72468  0.23274  0.04155  1.0000
  H   H601      1.0  0.61437  0.13307  0.43931  1.0000
  H   H602      1.0  0.71879  0.16752  0.06760  1.0000
  H   H603      1.0  0.58906  0.37611  0.19324  1.0000
  N   N48       1.0  0.59591  0.32403  0.18216  1.0000
  C   C597      1.0  0.61146  0.30585  0.18389  1.0000
  H   H604      1.0  0.70082  0.22183  0.02267  1.0000
  C   C598      1.0  0.73401  0.17360  0.07009  1.0000
  H   H605      1.0  0.60760  0.15897  0.44922  1.0000
  C   C599      1.0  0.62951  0.11900  0.47546  1.0000
  H   H606      1.0  0.71597  0.22884  0.05697  1.0000
  C   C600      1.0  0.58974  0.41372  0.03863  1.0000
  C   C601      1.0  0.59234  0.09951  0.34612  1.0000
  H   H607      1.0  0.54714  0.06044  0.35595  1.0000
  C   C602      1.0  0.50646  0.35927  0.11152  1.0000
  H   H608      1.0  0.55311  0.43461  0.00601  1.0000
  C   C603      1.0  0.58073  0.06411  0.34749  1.0000
  C   C604      1.0  0.74185  0.17095  0.09047  1.0000
  H   H609      1.0  0.58866  0.13831  0.45314  1.0000
  H   H610      1.0  0.73280  0.16282  0.10400  1.0000
  N   N49       1.0  0.61365  0.13469  0.47391  1.0000
  N   N50       1.0  0.57133  0.42395  0.03247  1.0000
  H   H611      1.0  0.56105  0.43413  0.06392  1.0000
  S   S216      1.0  0.59613  0.02303  0.44388  1.0000
  C   C605      1.0  0.54830  0.37706  0.02346  1.0000
  H   H612      1.0  0.61137  0.29571  0.16994  1.0000
  N   N51       1.0  0.68117  0.29191  0.07727  1.0000
  C   C606      1.0  0.66163  0.29580  0.06950  1.0000
  C   C607      1.0  0.68914  0.30644  0.08939  1.0000
  C   C608      1.0  0.64986  0.31498  0.07315  1.0000
  C   C609      1.0  0.67780  0.32578  0.09336  1.0000
  C   C610      1.0  0.65809  0.33007  0.08508  1.0000
  C   C611      1.0  0.69312  0.27166  0.07324  1.0000
  H   H613      1.0  0.65498  0.28396  0.06056  1.0000
  H   H614      1.0  0.70416  0.30297  0.09642  1.0000
  C   C612      1.0  0.53660  0.00614  0.44104  1.0000
  H   H615      1.0  0.50435  0.11458  0.41933  1.0000
  H   H616      1.0  0.60055  0.48497  0.07658  1.0000
  H   H617      1.0  0.68629  0.25854  0.08417  1.0000
  H   H618      1.0  0.69259  0.26772  0.05614  1.0000
  H   H619      1.0  0.71017  0.27234  0.07611  1.0000
  H   H620      1.0  0.74434  0.15025  0.35179  1.0000
  C   C613      1.0  0.60019  0.34331  0.18933  1.0000
  C   C614      1.0  0.57678  0.32132  0.17433  1.0000
  C   C615      1.0  0.58530  0.36064  0.18831  1.0000
  C   C616      1.0  0.56145  0.33828  0.17325  1.0000
  C   C617      1.0  0.56579  0.35804  0.18029  1.0000
  S   S217      1.0  0.72793  0.02622  0.25509  1.0000
  C   C618      1.0  0.58988  0.00487  0.42547  1.0000
  H   H621      1.0  0.62788  0.31133  0.18360  1.0000
  H   H622      1.0  0.53911  0.09917  0.35967  1.0000
  H   H623      1.0  0.54644  0.33633  0.16657  1.0000
  H   H624      1.0  0.55419  0.37143  0.17911  1.0000
  S   S218      1.0  0.73983  0.17114  0.14862  1.0000
  C   C619      1.0  0.73160  0.13408  0.20501  1.0000
  H   H625      1.0  0.59216  0.41044  0.05565  1.0000
  H   H626      1.0  0.53299  0.38504  0.02748  1.0000
  C   C620      1.0  0.58481  0.01172  0.40449  1.0000
  C   C621      1.0  0.72964  0.16100  0.17460  1.0000
  C   C622      1.0  0.61871  0.06981  0.34004  1.0000
  C   C623      1.0  0.53070  0.02113  0.42458  1.0000
  H   H627      1.0  0.59163  0.15580  0.49094  1.0000
  H   H628      1.0  0.53165  0.03808  0.42630  1.0000
  H   H629      1.0  0.51938  0.02573  0.39282  1.0000
  C   C624      1.0  0.73941  0.14254  0.18438  1.0000
  C   C625      1.0  0.74347  0.11652  0.34778  1.0000
  H   H630      1.0  0.72632  0.11613  0.35085  1.0000
  H   H631      1.0  0.60499  0.11059  0.34396  1.0000
  C   C626      1.0  0.58770  0.35612  0.01315  1.0000
  H   H632      1.0  0.54452  0.44389  0.04313  1.0000
  C   C627      1.0  0.55522  0.09333  0.35490  1.0000
  H   H633      1.0  0.59290  0.07929  0.49319  1.0000
  H   H634      1.0  0.57444  0.00250  0.37445  1.0000
  C   C628      1.0  0.74465  0.24131  0.04103  1.0000
  H   H635      1.0  0.61994  0.39849  0.02812  1.0000
  C   C629      1.0  0.60563  0.40705  0.02309  1.0000
  C   C630      1.0  0.73189  0.99927  0.26585  1.0000
  Fe  Fe110     1.0  0.74400  0.23960  0.10068  1.0000
  H   H636      1.0  0.73900  0.18797  0.21064  1.0000
  C   C631      1.0  0.55651  0.37672  0.00182  1.0000
  H   H637      1.0  0.64896  0.09938  0.49691  1.0000
  C   C632      1.0  0.60263  0.41102  0.00112  1.0000
  S   S219      1.0  0.74664  0.06434  0.29979  1.0000
  Fe  Fe111     1.0  0.55458  0.37219  0.90511  1.0000
  S   S220      1.0  0.58465  0.38643  0.88992  1.0000
  S   S221      1.0  0.53432  0.35335  0.88611  1.0000
  Fe  Fe112     1.0  0.55986  0.38802  0.94876  1.0000
  S   S222      1.0  0.59018  0.40368  0.93770  1.0000
  S   S223      1.0  0.54263  0.39070  0.98162  1.0000
  Fe  Fe113     1.0  0.57358  0.41531  0.90828  1.0000
  S   S224      1.0  0.56991  0.44898  0.89260  1.0000
  Fe  Fe114     1.0  0.59892  0.37341  0.92052  1.0000
  S   S225      1.0  0.63268  0.35919  0.92313  1.0000
  S   S226      1.0  0.54247  0.40180  0.92078  1.0000
  S   S227      1.0  0.56963  0.35690  0.93427  1.0000
  Fe  Fe115     1.0  0.57585  0.06241  0.64219  1.0000
  S   S228      1.0  0.60837  0.07372  0.63242  1.0000
  S   S229      1.0  0.57064  0.03001  0.65859  1.0000
  Fe  Fe116     1.0  0.55332  0.10341  0.62554  1.0000
  S   S230      1.0  0.58409  0.11880  0.61470  1.0000
  S   S231      1.0  0.52142  0.11850  0.61775  1.0000
  Fe  Fe117     1.0  0.59421  0.08692  0.60181  1.0000
  S   S232      1.0  0.60970  0.08067  0.56851  1.0000
  Fe  Fe118     1.0  0.59552  0.10435  0.64636  1.0000
  S   S233      1.0  0.61183  0.12176  0.67073  1.0000
  S   S234      1.0  0.56285  0.07268  0.61063  1.0000
  S   S235      1.0  0.56357  0.09196  0.65823  1.0000
  Fe  Fe119     1.0  0.72538  0.23284  0.94112  1.0000
  S   S236      1.0  0.70250  0.22014  0.91975  1.0000
  C   C633      1.0  0.51087  0.35270  0.95717  1.0000
  S   S237      1.0  0.72916  0.24293  0.87738  1.0000
  Fe  Fe120     1.0  0.70288  0.25290  0.90228  1.0000
  S   S238      1.0  0.67042  0.26801  0.89502  1.0000
  Fe  Fe121     1.0  0.73054  0.21124  0.89669  1.0000
  C   C634      1.0  0.73516  0.14909  0.70156  1.0000
  S   S239      1.0  0.72467  0.26579  0.92421  1.0000
  C   C635      1.0  0.71985  0.16592  0.70409  1.0000
  Fe  Fe122     1.0  0.71551  0.11074  0.78588  1.0000
  H   H638      1.0  0.69402  0.05973  0.84505  1.0000
  S   S240      1.0  0.69766  0.12932  0.81255  1.0000
  Fe  Fe123     1.0  0.71192  0.09294  0.74144  1.0000
  S   S241      1.0  0.69608  0.08447  0.71180  1.0000
  S   S242      1.0  0.70336  0.08015  0.77566  1.0000
  C   C636      1.0  0.55829  0.38613  0.83893  1.0000
  H   H639      1.0  0.68327  0.30689  0.98214  1.0000
  H   H640      1.0  0.55421  0.06792  0.55131  1.0000
  C   C637      1.0  0.72921  0.16942  0.85888  1.0000
  C   C638      1.0  0.70713  0.17011  0.85855  1.0000
  C   C639      1.0  0.69772  0.15828  0.84380  1.0000
  C   C640      1.0  0.71025  0.14602  0.82892  1.0000
  C   C641      1.0  0.62793  0.12172  0.51418  1.0000
  C   C642      1.0  0.49784  0.34969  0.86724  1.0000
  H   H641      1.0  0.69726  0.17913  0.87018  1.0000
  H   H642      1.0  0.68060  0.15840  0.84416  1.0000
  C   C643      1.0  0.64660  0.29244  0.95466  1.0000
  S   S243      1.0  0.74551  0.07890  0.74071  1.0000
  C   C644      1.0  0.63563  0.11177  0.68165  1.0000
  C   C645      1.0  0.64831  0.09534  0.67234  1.0000
  C   C646      1.0  0.66693  0.08749  0.68165  1.0000
  C   C647      1.0  0.67285  0.09563  0.70061  1.0000
  C   C648      1.0  0.66026  0.11216  0.70991  1.0000
  C   C649      1.0  0.64181  0.12032  0.70033  1.0000
  H   H643      1.0  0.64383  0.08874  0.65788  1.0000
  H   H644      1.0  0.67665  0.07478  0.67426  1.0000
  H   H645      1.0  0.66473  0.11866  0.72444  1.0000
  H   H646      1.0  0.63213  0.13314  0.70756  1.0000
  C   C650      1.0  0.59468  0.08863  0.54650  1.0000
  C   C651      1.0  0.57867  0.10489  0.54810  1.0000
  H   H647      1.0  0.68062  0.14536  0.67920  1.0000
  H   H648      1.0  0.63977  0.24096  0.94439  1.0000
  C   C652      1.0  0.59953  0.07924  0.52672  1.0000
  H   H649      1.0  0.57488  0.11226  0.56330  1.0000
  H   H650      1.0  0.61186  0.06660  0.52544  1.0000
  H   H651      1.0  0.69342  0.26859  0.96677  1.0000
  C   C653      1.0  0.57340  0.10325  0.50980  1.0000
  H   H652      1.0  0.58095  0.42411  0.97805  1.0000
  H   H653      1.0  0.69581  0.10237  0.85752  1.0000
  H   H654      1.0  0.51571  0.07860  0.64395  1.0000
  C   C654      1.0  0.64321  0.33459  0.91329  1.0000
  C   C655      1.0  0.63041  0.32016  0.90516  1.0000
  C   C656      1.0  0.63916  0.30010  0.89902  1.0000
  C   C657      1.0  0.66069  0.29415  0.90115  1.0000
  C   C658      1.0  0.67357  0.30874  0.90889  1.0000
  C   C659      1.0  0.66487  0.32887  0.91486  1.0000
  H   H655      1.0  0.61374  0.32437  0.90381  1.0000
  H   H656      1.0  0.62911  0.28897  0.89290  1.0000
  H   H657      1.0  0.69021  0.30447  0.91034  1.0000
  H   H658      1.0  0.67494  0.34003  0.92090  1.0000
  H   H659      1.0  0.60433  0.14468  0.52688  1.0000
  H   H660      1.0  0.74566  0.06169  0.82993  1.0000
  H   H661      1.0  0.57315  0.39480  0.83856  1.0000
  H   H662      1.0  0.67595  0.23685  0.95727  1.0000
  H   H663      1.0  0.58257  0.36584  0.97990  1.0000
  C   C660      1.0  0.58091  0.47083  0.90331  1.0000
  C   C661      1.0  0.59599  0.46777  0.91857  1.0000
  C   C662      1.0  0.60516  0.48551  0.92596  1.0000
  C   C663      1.0  0.54216  0.41529  0.86016  1.0000
  H   H664      1.0  0.60100  0.45174  0.92425  1.0000
  N   N52       1.0  0.52566  0.07200  0.57188  1.0000
  H   H665      1.0  0.73920  0.09792  0.69175  1.0000
  C   C664      1.0  0.51994  0.39481  0.84182  1.0000
  H   H666      1.0  0.52550  0.35548  0.96416  1.0000
  H   H667      1.0  0.61717  0.48298  0.93738  1.0000
  C   C665      1.0  0.52451  0.42736  0.86864  1.0000
  H   H668      1.0  0.56337  0.03170  0.56736  1.0000
  C   C666      1.0  0.70348  0.06965  0.83265  1.0000
  S   S244      1.0  0.72072  0.12471  0.75153  1.0000
  N   N53       1.0  0.60670  0.07226  0.70837  1.0000
  C   C667      1.0  0.62531  0.06928  0.71812  1.0000
  C   C668      1.0  0.60209  0.05878  0.69328  1.0000
  C   C669      1.0  0.64026  0.05301  0.71215  1.0000
  C   C670      1.0  0.61671  0.04243  0.68682  1.0000
  C   C671      1.0  0.63599  0.03966  0.69622  1.0000
  C   C672      1.0  0.59124  0.08942  0.71481  1.0000
  H   H669      1.0  0.62899  0.07993  0.73011  1.0000
  H   H670      1.0  0.58710  0.06069  0.68598  1.0000
  H   H671      1.0  0.65537  0.05128  0.71933  1.0000
  H   H672      1.0  0.61307  0.03211  0.67448  1.0000
  H   H673      1.0  0.64763  0.02730  0.69108  1.0000
  H   H674      1.0  0.58029  0.08357  0.72863  1.0000
  H   H675      1.0  0.59936  0.10349  0.71933  1.0000
  H   H676      1.0  0.58186  0.09541  0.70108  1.0000
  C   C673      1.0  0.52153  0.09421  0.56365  1.0000
  H   H677      1.0  0.53117  0.10491  0.57190  1.0000
  N   N54       1.0  0.53974  0.39930  0.84687  1.0000
  C   C674      1.0  0.50731  0.36006  0.88279  1.0000
  C   C675      1.0  0.74030  0.07464  0.84013  1.0000
  H   H678      1.0  0.55628  0.12536  0.53086  1.0000
  H   H679      1.0  0.62079  0.27682  0.94297  1.0000
  C   C676      1.0  0.50195  0.40675  0.84978  1.0000
  H   H680      1.0  0.63842  0.30810  0.95335  1.0000
  C   C677      1.0  0.54356  0.06078  0.56411  1.0000
  H   H681      1.0  0.72518  0.02466  0.75230  1.0000
  C   C678      1.0  0.51120  0.33968  0.93986  1.0000
  C   C679      1.0  0.71248  0.09711  0.85577  1.0000
  H   H682      1.0  0.58802  0.03173  0.61387  1.0000
  C   C680      1.0  0.57474  0.49177  0.89590  1.0000
  C   C681      1.0  0.56815  0.11227  0.52974  1.0000
  C   C682      1.0  0.49912  0.10316  0.62493  1.0000
  H   H683      1.0  0.52663  0.43981  0.87942  1.0000
  Fe  Fe124     1.0  0.73728  0.06756  0.77539  1.0000
  C   C683      1.0  0.69595  0.14664  0.68546  1.0000
  C   C684      1.0  0.66752  0.25241  0.95654  1.0000
  C   C685      1.0  0.67730  0.27045  0.96196  1.0000
  H   H684      1.0  0.50708  0.03612  0.61132  1.0000
  C   C686      1.0  0.63646  0.27476  0.94885  1.0000
  C   C687      1.0  0.58881  0.08641  0.50844  1.0000
  C   C688      1.0  0.67805  0.30890  0.96547  1.0000
  C   C689      1.0  0.64711  0.25467  0.94960  1.0000
  C   C690      1.0  0.58242  0.01594  0.61825  1.0000
  N   N55       1.0  0.66692  0.29017  0.96076  1.0000
  H   H685      1.0  0.71109  0.05901  0.82028  1.0000
  H   H686      1.0  0.69219  0.31087  0.95366  1.0000
  N   N56       1.0  0.73071  0.13124  0.69173  1.0000
  H   H687      1.0  0.72328  0.17978  0.71242  1.0000
  C   C691      1.0  0.70008  0.16459  0.69610  1.0000
  C   C692      1.0  0.57350  0.01078  0.63930  1.0000
  C   C693      1.0  0.51248  0.06316  0.58837  1.0000
  C   C694      1.0  0.53563  0.03125  0.59015  1.0000
  H   H688      1.0  0.68796  0.17740  0.69816  1.0000
  C   C695      1.0  0.72890  0.00971  0.76132  1.0000
  N   N57       1.0  0.71920  0.08079  0.84295  1.0000
  H   H689      1.0  0.56321  0.49427  0.88399  1.0000
  H   H690      1.0  0.55993  0.37133  0.84976  1.0000
  H   H691      1.0  0.69264  0.08148  0.82429  1.0000
  H   H692      1.0  0.55669  0.38157  0.82222  1.0000
  C   C696      1.0  0.71160  0.13008  0.68330  1.0000
  H   H693      1.0  0.52612  0.33258  0.93302  1.0000
  C   C697      1.0  0.73844  0.00989  0.78080  1.0000
  S   S245      1.0  0.71594  0.22713  0.97776  1.0000
  H   H694      1.0  0.70818  0.11604  0.67527  1.0000
  C   C698      1.0  0.50428  0.42303  0.86340  1.0000
  C   C699      1.0  0.73238  0.14607  0.82863  1.0000
  H   H695      1.0  0.50455  0.09951  0.56687  1.0000
  H   H696      1.0  0.55779  0.41873  0.86442  1.0000
  H   H697      1.0  0.52565  0.09619  0.54586  1.0000
  C   C700      1.0  0.54880  0.04024  0.57307  1.0000
  C   C701      1.0  0.51728  0.04273  0.59780  1.0000
  H   H698      1.0  0.59180  0.00439  0.58677  1.0000
  C   C702      1.0  0.50070  0.08396  0.63778  1.0000
  H   H699      1.0  0.50705  0.33796  0.85789  1.0000
  H   H700      1.0  0.66784  0.32390  0.96403  1.0000
  H   H701      1.0  0.51790  0.38158  0.83202  1.0000
  C   C703      1.0  0.57612  0.36608  0.99661  1.0000
  C   C704      1.0  0.58381  0.42145  0.99502  1.0000
  H   H702      1.0  0.61460  0.40556  0.98885  1.0000
  H   H703      1.0  0.53986  0.01563  0.59772  1.0000
  H   H704      1.0  0.50233  0.38325  0.90697  1.0000
  H   H705      1.0  0.72171  0.12138  0.87552  1.0000
  H   H706      1.0  0.63293  0.11613  0.53003  1.0000
  C   C705      1.0  0.72706  0.10794  0.86598  1.0000
  S   S246      1.0  0.74486  0.03424  0.79129  1.0000
  C   C706      1.0  0.61187  0.13776  0.51242  1.0000
  H   H707      1.0  0.49834  0.07205  0.59459  1.0000
  H   H708      1.0  0.74224  0.13669  0.81732  1.0000
  S   S247      1.0  0.74173  0.18107  0.87934  1.0000
  C   C707      1.0  0.74178  0.15745  0.84374  1.0000
  C   C708      1.0  0.58459  0.00044  0.60291  1.0000
  C   C709      1.0  0.74676  0.11358  0.68938  1.0000
  Fe  Fe125     1.0  0.59899  0.60136  0.12541  1.0000
  S   S248      1.0  0.58748  0.61086  0.09286  1.0000
  S   S249      1.0  0.61416  0.62378  0.14614  1.0000
  Fe  Fe126     1.0  0.58575  0.55528  0.12416  1.0000
  S   S250      1.0  0.57355  0.56101  0.09137  1.0000
  S   S251      1.0  0.58469  0.52309  0.14308  1.0000
  Fe  Fe127     1.0  0.60273  0.57955  0.08332  1.0000
  S   S252      1.0  0.62202  0.57861  0.05145  1.0000
  Fe  Fe128     1.0  0.55891  0.59177  0.10356  1.0000
  S   S253      1.0  0.52751  0.60477  0.09149  1.0000
  S   S254      1.0  0.61645  0.57115  0.11500  1.0000
  S   S255      1.0  0.56893  0.58486  0.13737  1.0000
  Fe  Fe129     1.0  0.54902  0.88329  0.41031  1.0000
  S   S256      1.0  0.57619  0.87002  0.42929  1.0000
  S   S257      1.0  0.51989  0.86393  0.41093  1.0000
  Fe  Fe130     1.0  0.57082  0.92435  0.39667  1.0000
  S   S258      1.0  0.59959  0.91429  0.41411  1.0000
  S   S259      1.0  0.56785  0.95749  0.38082  1.0000
  Fe  Fe131     1.0  0.59697  0.88275  0.40022  1.0000
  S   S260      1.0  0.62731  0.86531  0.38715  1.0000
  Fe  Fe132     1.0  0.57622  0.90298  0.44127  1.0000
  S   S261      1.0  0.57577  0.91643  0.47423  1.0000
  S   S262      1.0  0.56975  0.89361  0.38046  1.0000
  S   S263      1.0  0.54755  0.91510  0.42441  1.0000
  H   H709      1.0  0.55975  0.54283  0.03145  1.0000
  S   S264      1.0  0.70791  0.74263  0.10781  1.0000
  H   H710      1.0  0.55271  0.59593  0.02450  1.0000
  S   S265      1.0  0.71337  0.71892  0.15591  1.0000
  Fe  Fe133     1.0  0.70712  0.70890  0.12299  1.0000
  S   S266      1.0  0.68617  0.68668  0.10769  1.0000
  Fe  Fe134     1.0  0.71740  0.75209  0.14008  1.0000
  S   S267      1.0  0.70243  0.77872  0.16056  1.0000
  Fe  Fe135     1.0  0.69889  0.87261  0.27815  1.0000
  S   S268      1.0  0.71374  0.89395  0.25069  1.0000
  S   S269      1.0  0.66401  0.87945  0.28870  1.0000
  H   H711      1.0  0.57683  0.58750  0.05325  1.0000
  H   H712      1.0  0.62746  0.53498  0.02145  1.0000
  H   H713      1.0  0.62509  0.91818  0.48342  1.0000
  H   H714      1.0  0.54745  0.95381  0.45045  1.0000
  Fe  Fe136     1.0  0.73208  0.86381  0.24001  1.0000
  H   H715      1.0  0.59774  0.82689  0.31762  1.0000
  S   S270      1.0  0.72370  0.87601  0.30104  1.0000
  S   S271      1.0  0.71464  0.84262  0.26512  1.0000
  H   H716      1.0  0.55341  0.97515  0.46583  1.0000
  H   H717      1.0  0.72795  0.92018  0.32672  1.0000
  C   C710      1.0  0.71912  0.74893  0.01928  1.0000
  C   C711      1.0  0.52855  0.97769  0.42044  1.0000
  C   C712      1.0  0.71486  0.79831  0.17365  1.0000
  C   C713      1.0  0.74245  0.95534  0.27680  1.0000
  Fe  Fe137     1.0  0.74122  0.84798  0.28545  1.0000
  C   C714      1.0  0.73314  0.82989  0.19559  1.0000
  C   C715      1.0  0.71154  0.82623  0.19960  1.0000
  C   C716      1.0  0.70241  0.81079  0.18842  1.0000
  H   H718      1.0  0.59381  0.55969  0.20057  1.0000
  C   C717      1.0  0.69031  0.70141  0.00695  1.0000
  C   C718      1.0  0.69104  0.70017  0.04585  1.0000
  H   H719      1.0  0.68556  0.80849  0.19125  1.0000
  C   C719      1.0  0.72772  0.74664  0.03960  1.0000
  H   H720      1.0  0.74543  0.75151  0.18198  1.0000
  H   H721      1.0  0.71794  0.75054  0.05411  1.0000
  C   C720      1.0  0.65422  0.87561  0.31619  1.0000
  C   C721      1.0  0.63384  0.88411  0.32279  1.0000
  C   C722      1.0  0.62566  0.88164  0.34462  1.0000
  C   C723      1.0  0.63759  0.87014  0.35992  1.0000
  C   C724      1.0  0.65790  0.86154  0.35329  1.0000
  C   C725      1.0  0.66629  0.86444  0.33157  1.0000
  H   H722      1.0  0.62439  0.89275  0.31099  1.0000
  H   H723      1.0  0.60999  0.88832  0.34952  1.0000
  H   H724      1.0  0.66721  0.85255  0.36500  1.0000
  H   H725      1.0  0.68196  0.85774  0.32667  1.0000
  C   C726      1.0  0.57713  0.97554  0.39767  1.0000
  C   C727      1.0  0.58236  0.96868  0.41858  1.0000
  N   N58       1.0  0.53551  0.98470  0.43882  1.0000
  H   H726      1.0  0.67076  0.90895  0.36795  1.0000
  H   H727      1.0  0.71921  0.70678  0.07387  1.0000
  H   H728      1.0  0.58059  0.95233  0.42457  1.0000
  C   C728      1.0  0.52280  0.99226  0.40354  1.0000
  H   H729      1.0  0.52805  0.96071  0.41842  1.0000
  H   H730      1.0  0.74297  0.72716  0.19934  1.0000
  H   H731      1.0  0.61496  0.58846  0.17964  1.0000
  C   C729      1.0  0.52519  0.63789  0.00885  1.0000
  H   H732      1.0  0.68270  0.70154  0.06181  1.0000
  C   C730      1.0  0.60128  0.84003  0.32758  1.0000
  N   N59       1.0  0.61714  0.55518  0.17414  1.0000
  C   C731      1.0  0.63437  0.64102  0.13536  1.0000
  C   C732      1.0  0.64364  0.65385  0.14925  1.0000
  C   C733      1.0  0.65966  0.66780  0.14119  1.0000
  C   C734      1.0  0.66649  0.66909  0.11909  1.0000
  C   C735      1.0  0.65730  0.65615  0.10526  1.0000
  C   C736      1.0  0.64139  0.64215  0.11333  1.0000
  H   H733      1.0  0.63830  0.65314  0.16631  1.0000
  H   H734      1.0  0.66652  0.67769  0.15201  1.0000
  H   H735      1.0  0.66247  0.65696  0.08817  1.0000
  H   H736      1.0  0.63447  0.63234  0.10246  1.0000
  C   C737      1.0  0.56968  0.59510  0.02041  1.0000
  Fe  Fe138     1.0  0.74263  0.73495  0.09979  1.0000
  H   H737      1.0  0.70269  0.75447  0.01842  1.0000
  H   H738      1.0  0.59621  0.51744  0.09740  1.0000
  H   H739      1.0  0.51659  0.57710  0.13025  1.0000
  C   C738      1.0  0.72618  0.77184  0.22216  1.0000
  C   C739      1.0  0.60528  0.58783  0.03149  1.0000
  C   C740      1.0  0.58337  0.59014  0.03673  1.0000
  C   C741      1.0  0.58768  0.50020  0.12787  1.0000
  N   N60       1.0  0.67668  0.92681  0.31511  1.0000
  H   H740      1.0  0.63057  0.59046  0.00605  1.0000
  H   H741      1.0  0.51008  0.64586  0.01533  1.0000
  C   C742      1.0  0.67961  0.70307  0.02747  1.0000
  C   C743      1.0  0.69833  0.92684  0.31220  1.0000
  H   H742      1.0  0.59041  0.87174  0.48285  1.0000
  C   C744      1.0  0.71074  0.92040  0.32930  1.0000
  H   H743      1.0  0.74635  0.79219  0.15865  1.0000
  H   H744      1.0  0.72042  0.67812  0.07258  1.0000
  H   H745      1.0  0.71980  0.94887  0.25453  1.0000
  C   C745      1.0  0.50318  0.59516  0.10347  1.0000
  C   C746      1.0  0.73661  0.80153  0.17009  1.0000
  C   C747      1.0  0.72209  0.98294  0.25663  1.0000
  C   C748      1.0  0.65625  0.56302  0.15179  1.0000
  C   C749      1.0  0.57846  0.99710  0.39060  1.0000
  C   C750      1.0  0.59347  0.50193  0.10556  1.0000
  C   C751      1.0  0.70083  0.91377  0.34945  1.0000
  H   H746      1.0  0.52331  0.62039  0.00901  1.0000
  C   C752      1.0  0.62876  0.53892  0.16438  1.0000
  H   H747      1.0  0.74016  0.69079  0.02212  1.0000
  C   C753      1.0  0.58693  0.87905  0.49810  1.0000
  C   C754      1.0  0.64849  0.54256  0.15311  1.0000
  H   H748      1.0  0.59761  0.85568  0.31875  1.0000
  H   H749      1.0  0.70168  0.83580  0.21076  1.0000
  N   N61       1.0  0.74077  0.75619  0.21555  1.0000
  H   H750      1.0  0.52658  0.96617  0.46779  1.0000
  H   H751      1.0  0.74153  0.69403  0.05949  1.0000
  C   C755      1.0  0.59615  0.55143  0.18525  1.0000
  H   H752      1.0  0.59292  0.97776  0.44849  1.0000
  H   H753      1.0  0.66263  0.70678  0.02915  1.0000
  N   N62       1.0  0.54257  0.64189  0.02191  1.0000
  H   H754      1.0  0.71158  0.77481  0.21427  1.0000
  H   H755      1.0  0.70615  0.93159  0.29649  1.0000
  N   N63       1.0  0.58876  0.83835  0.34861  1.0000
  C   C756      1.0  0.56741  0.84354  0.34966  1.0000
  C   C757      1.0  0.59823  0.83104  0.36691  1.0000
  C   C758      1.0  0.55502  0.84167  0.36946  1.0000
  C   C759      1.0  0.58637  0.82922  0.38700  1.0000
  C   C760      1.0  0.56462  0.83449  0.38822  1.0000
  C   C761      1.0  0.72409  0.69348  0.06332  1.0000
  H   H756      1.0  0.55986  0.84935  0.33519  1.0000
  H   H757      1.0  0.61521  0.82718  0.36623  1.0000
  H   H758      1.0  0.53813  0.84613  0.37039  1.0000
  H   H759      1.0  0.59414  0.82423  0.40158  1.0000
  H   H760      1.0  0.55523  0.83334  0.40374  1.0000
  C   C762      1.0  0.57916  0.64895  0.02438  1.0000
  C   C763      1.0  0.73152  0.74408  0.00012  1.0000
  C   C764      1.0  0.72309  0.69389  0.02379  1.0000
  C   C765      1.0  0.67870  0.91420  0.35241  1.0000
  C   C766      1.0  0.66680  0.92116  0.33504  1.0000
  H   H761      1.0  0.64962  0.92152  0.33751  1.0000
  C   C767      1.0  0.58902  0.98322  0.43232  1.0000
  C   C768      1.0  0.57406  0.54162  0.02054  1.0000
  H   H762      1.0  0.61865  0.83913  0.32944  1.0000
  Fe  Fe139     1.0  0.73889  0.89683  0.27346  1.0000
  C   C769      1.0  0.72988  0.78427  0.23912  1.0000
  C   C770      1.0  0.72714  0.96113  0.26220  1.0000
  H   H763      1.0  0.60706  0.95259  0.49266  1.0000
  C   C771      1.0  0.59377  0.53775  0.02890  1.0000
  H   H764      1.0  0.71092  0.98723  0.24461  1.0000
  H   H765      1.0  0.66237  0.95144  0.29517  1.0000
  C   C772      1.0  0.61220  0.53728  0.01470  1.0000
  H   H766      1.0  0.67177  0.92760  0.28158  1.0000
  H   H767      1.0  0.64809  0.92704  0.29916  1.0000
  N   N64       1.0  0.71254  0.69597  0.04380  1.0000
  H   H768      1.0  0.59395  0.53410  0.18924  1.0000
  C   C773      1.0  0.73715  0.74416  0.19696  1.0000
  H   H769      1.0  0.50993  0.90552  0.38928  1.0000
  H   H770      1.0  0.64975  0.59567  0.16014  1.0000
  C   C774      1.0  0.64424  0.57951  0.16165  1.0000
  C   C775      1.0  0.53945  0.63956  0.04403  1.0000
  H   H771      1.0  0.71028  0.90824  0.36272  1.0000
  H   H772      1.0  0.67128  0.56624  0.14268  1.0000
  H   H773      1.0  0.62260  0.52310  0.16484  1.0000
  C   C776      1.0  0.62453  0.57533  0.17269  1.0000
  C   C777      1.0  0.61358  0.59181  0.01007  1.0000
  C   C778      1.0  0.66408  0.93371  0.29690  1.0000
  H   H774      1.0  0.55344  0.64024  0.07440  1.0000
  H   H775      1.0  0.52421  0.63511  0.05195  1.0000
  C   C779      1.0  0.57605  0.64684  0.04695  1.0000
  C   C780      1.0  0.55603  0.64228  0.05686  1.0000
  H   H776      1.0  0.58364  0.55743  0.17454  1.0000
  H   H777      1.0  0.71996  0.74422  0.19445  1.0000
  H   H778      1.0  0.51802  0.98654  0.38871  1.0000
  S   S272      1.0  0.74182  0.70124  0.11447  1.0000
  S   S273      1.0  0.74491  0.85046  0.20790  1.0000
  H   H779      1.0  0.65739  0.52972  0.14501  1.0000
  H   H780      1.0  0.59489  0.53603  0.04631  1.0000
  H   H781      1.0  0.58920  0.64826  0.05676  1.0000
  C   C781      1.0  0.50219  0.58190  0.12260  1.0000
  C   C782      1.0  0.56211  0.64656  0.01203  1.0000
  C   C783      1.0  0.54091  0.96924  0.45664  1.0000
  H   H782      1.0  0.71840  0.79689  0.24409  1.0000
  C   C784      1.0  0.71214  0.69660  0.00508  1.0000
  H   H783      1.0  0.59481  0.65180  0.01649  1.0000
  C   C785      1.0  0.74562  0.81746  0.18078  1.0000
  C   C786      1.0  0.57873  0.90023  0.49829  1.0000
  H   H784      1.0  0.74576  0.96910  0.20356  1.0000
  C   C787      1.0  0.74632  0.99345  0.28135  1.0000
  Fe  Fe140     1.0  0.56202  0.58987  0.90114  1.0000
  S   S274      1.0  0.59558  0.58127  0.88812  1.0000
  S   S275      1.0  0.53359  0.58942  0.88160  1.0000
  Fe  Fe141     1.0  0.57508  0.59666  0.94571  1.0000
  S   S276      1.0  0.60953  0.58848  0.93668  1.0000
  S   S277      1.0  0.56043  0.60422  0.97870  1.0000
  Fe  Fe142     1.0  0.60467  0.60896  0.90621  1.0000
  S   S278      1.0  0.62547  0.63576  0.89156  1.0000
  Fe  Fe143     1.0  0.59742  0.56166  0.91984  1.0000
  S   S279      1.0  0.61150  0.52830  0.92748  1.0000
  S   S280      1.0  0.57074  0.61897  0.91652  1.0000
  S   S281      1.0  0.56342  0.56833  0.93138  1.0000
  Fe  Fe144     1.0  0.56100  0.89080  0.63142  1.0000
  S   S282      1.0  0.58913  0.86741  0.62604  1.0000
  S   S283      1.0  0.52995  0.88217  0.65017  1.0000
  Fe  Fe145     1.0  0.58298  0.92714  0.60556  1.0000
  S   S284      1.0  0.61235  0.90674  0.59781  1.0000
  S   S285      1.0  0.58122  0.96037  0.58947  1.0000
  Fe  Fe146     1.0  0.59016  0.88193  0.59167  1.0000
  S   S286      1.0  0.59427  0.86309  0.56180  1.0000
  Fe  Fe147     1.0  0.60905  0.89453  0.63295  1.0000
  S   S287      1.0  0.64013  0.89707  0.64865  1.0000
  S   S288      1.0  0.56095  0.90329  0.59680  1.0000
  S   S289      1.0  0.58071  0.91680  0.64104  1.0000
  Fe  Fe148     1.0  0.70857  0.87050  0.75053  1.0000
  S   S290      1.0  0.70167  0.89099  0.77890  1.0000
  S   S291      1.0  0.67957  0.85981  0.73558  1.0000
  Fe  Fe149     1.0  0.72673  0.86972  0.79466  1.0000
  H   H785      1.0  0.66959  0.77893  0.91285  1.0000
  Fe  Fe150     1.0  0.72494  0.69963  0.91262  1.0000
  S   S292      1.0  0.70347  0.72724  0.92294  1.0000
  S   S293      1.0  0.71350  0.66568  0.91643  1.0000
  Fe  Fe151     1.0  0.71881  0.74575  0.89389  1.0000
  S   S294      1.0  0.70043  0.76636  0.86966  1.0000
  Fe  Fe152     1.0  0.73063  0.73626  0.94112  1.0000
  S   S295      1.0  0.71954  0.74709  0.97502  1.0000
  C   C788      1.0  0.59912  0.50643  0.91841  1.0000
  C   C789      1.0  0.63033  0.53959  0.97798  1.0000
  H   H786      1.0  0.74204  0.95565  0.79338  1.0000
  S   S296      1.0  0.72326  0.94637  0.75335  1.0000
  H   H787      1.0  0.70824  0.62018  0.87876  1.0000
  C   C790      1.0  0.72232  0.83110  0.83941  1.0000
  H   H788      1.0  0.52604  0.54868  0.91171  1.0000
  C   C791      1.0  0.72523  0.80145  0.86699  1.0000
  C   C792      1.0  0.71040  0.79042  0.85734  1.0000
  C   C793      1.0  0.70202  0.79955  0.83836  1.0000
  C   C794      1.0  0.70818  0.81968  0.82924  1.0000
  N   N65       1.0  0.68517  0.80812  0.90537  1.0000
  S   S297      1.0  0.73815  0.71724  0.88184  1.0000
  H   H789      1.0  0.69048  0.79116  0.83083  1.0000
  H   H790      1.0  0.70141  0.82667  0.81477  1.0000
  H   H791      1.0  0.56229  0.84588  0.59389  1.0000
  H   H792      1.0  0.67797  0.59785  0.88620  1.0000
  C   C795      1.0  0.67229  0.60348  0.87022  1.0000
  C   C796      1.0  0.65164  0.88459  0.67176  1.0000
  C   C797      1.0  0.67160  0.89092  0.67647  1.0000
  C   C798      1.0  0.68067  0.88304  0.69561  1.0000
  C   C799      1.0  0.66988  0.86864  0.71026  1.0000
  C   C800      1.0  0.65023  0.86178  0.70523  1.0000
  C   C801      1.0  0.64109  0.86974  0.68611  1.0000
  H   H793      1.0  0.67996  0.90226  0.66537  1.0000
  H   H794      1.0  0.69593  0.88823  0.69907  1.0000
  H   H795      1.0  0.64182  0.85051  0.71639  1.0000
  H   H796      1.0  0.62579  0.86465  0.68267  1.0000
  C   C802      1.0  0.57800  0.97975  0.60864  1.0000
  C   C803      1.0  0.56888  0.97469  0.62959  1.0000
  C   C804      1.0  0.50892  0.59304  0.89676  1.0000
  H   H797      1.0  0.70340  0.83589  0.90123  1.0000
  C   C805      1.0  0.71257  0.81488  0.92809  1.0000
  H   H798      1.0  0.66753  0.80114  0.87923  1.0000
  H   H799      1.0  0.56323  0.95895  0.63393  1.0000
  H   H800      1.0  0.68181  0.70408  0.99248  1.0000
  C   C806      1.0  0.72883  0.97047  0.76486  1.0000
  H   H801      1.0  0.68685  0.90826  0.73375  1.0000
  C   C807      1.0  0.62822  0.91394  0.53796  1.0000
  C   C808      1.0  0.59128  0.86756  0.51771  1.0000
  C   C809      1.0  0.58758  0.87723  0.53749  1.0000
  C   C810      1.0  0.57890  0.89821  0.53762  1.0000
  C   C811      1.0  0.57439  0.90959  0.51814  1.0000
  H   H802      1.0  0.71819  0.79066  0.95380  1.0000
  H   H803      1.0  0.57617  0.90594  0.55263  1.0000
  H   H804      1.0  0.56807  0.92597  0.51839  1.0000
  H   H805      1.0  0.67831  0.59211  0.85795  1.0000
  C   C812      1.0  0.70883  0.79571  0.94029  1.0000
  C   C813      1.0  0.61799  0.93362  0.54275  1.0000
  C   C814      1.0  0.51835  0.82681  0.62234  1.0000
  C   C815      1.0  0.69270  0.66569  0.85036  1.0000
  H   H806      1.0  0.59798  0.85131  0.51748  1.0000
  H   H807      1.0  0.65743  0.82401  0.89390  1.0000
  C   C816      1.0  0.64763  0.64531  0.90285  1.0000
  C   C817      1.0  0.66073  0.63182  0.91550  1.0000
  C   C818      1.0  0.68048  0.63865  0.92044  1.0000
  C   C819      1.0  0.68707  0.65918  0.91329  1.0000
  C   C820      1.0  0.67335  0.67315  0.90186  1.0000
  C   C821      1.0  0.65387  0.66613  0.89645  1.0000
  H   H808      1.0  0.65616  0.61576  0.92053  1.0000
  H   H809      1.0  0.69096  0.62775  0.92935  1.0000
  H   H810      1.0  0.67821  0.68897  0.89622  1.0000
  H   H811      1.0  0.64386  0.67667  0.88663  1.0000
  C   C822      1.0  0.57297  0.54470  0.99816  1.0000
  H   H812      1.0  0.59076  0.54624  0.96704  1.0000
  C   C823      1.0  0.69851  0.63093  0.86878  1.0000
  H   H813      1.0  0.60639  0.60134  0.97754  1.0000
  N   N66       1.0  0.67928  0.62499  0.86343  1.0000
  H   H814      1.0  0.67297  0.92547  0.75297  1.0000
  S   S298      1.0  0.73431  0.89068  0.73427  1.0000
  H   H815      1.0  0.69016  0.76793  0.94435  1.0000
  H   H816      1.0  0.57899  0.52556  0.89753  1.0000
  H   H817      1.0  0.60749  0.91440  0.69461  1.0000
  C   C824      1.0  0.59169  0.54385  0.98442  1.0000
  H   H818      1.0  0.55967  0.98618  0.66114  1.0000
  H   H819      1.0  0.72065  0.69575  0.98916  1.0000
  H   H820      1.0  0.61242  0.89433  0.73006  1.0000
  H   H821      1.0  0.72490  0.82487  0.93203  1.0000
  H   H822      1.0  0.74194  0.83055  0.86613  1.0000
  C   C825      1.0  0.50753  0.87769  0.63632  1.0000
  H   H823      1.0  0.52191  0.88568  0.60427  1.0000
  H   H824      1.0  0.72021  0.65636  0.86769  1.0000
  H   H825      1.0  0.54857  0.83551  0.63157  1.0000
  H   H826      1.0  0.56485  0.64752  0.99448  1.0000
  C   C826      1.0  0.53885  0.83401  0.61825  1.0000
  H   H827      1.0  0.54444  0.86392  0.55751  1.0000
  H   H828      1.0  0.63823  0.89290  0.51265  1.0000
  H   H829      1.0  0.73181  0.79460  0.88159  1.0000
  H   H830      1.0  0.53009  0.54294  0.88403  1.0000
  H   H831      1.0  0.71688  0.99032  0.73830  1.0000
  C   C827      1.0  0.51371  0.83211  0.58412  1.0000
  H   H832      1.0  0.59964  0.97958  0.51834  1.0000
  C   C828      1.0  0.56671  0.99016  0.64493  1.0000
  H   H833      1.0  0.66297  0.67053  0.83574  1.0000
  N   N67       1.0  0.53386  0.83914  0.58025  1.0000
  H   H834      1.0  0.52245  0.59566  0.92702  1.0000
  N   N68       1.0  0.61089  0.94745  0.52656  1.0000
  C   C829      1.0  0.67329  0.65937  0.84464  1.0000
  C   C830      1.0  0.50797  0.59520  0.91908  1.0000
  C   C831      1.0  0.54201  0.84647  0.55828  1.0000
  C   C832      1.0  0.54642  0.84009  0.59696  1.0000
  C   C833      1.0  0.70546  0.65137  0.86242  1.0000
  C   C834      1.0  0.66683  0.63880  0.85126  1.0000
  H   H835      1.0  0.65464  0.60339  0.87232  1.0000
  C   C835      1.0  0.72418  0.99015  0.75343  1.0000
  H   H836      1.0  0.64490  0.89846  0.74849  1.0000
  C   C836      1.0  0.68142  0.78929  0.91724  1.0000
  N   N69       1.0  0.65727  0.92169  0.72463  1.0000
  C   C837      1.0  0.64227  0.90813  0.73363  1.0000
  C   C838      1.0  0.65471  0.93273  0.70510  1.0000
  C   C839      1.0  0.62390  0.90567  0.72326  1.0000
  C   C840      1.0  0.63659  0.93055  0.69423  1.0000
  C   C841      1.0  0.62112  0.91694  0.70340  1.0000
  C   C842      1.0  0.67674  0.92320  0.73544  1.0000
  H   H837      1.0  0.51434  0.94044  0.59925  1.0000
  H   H838      1.0  0.66700  0.94274  0.69747  1.0000
  C   C843      1.0  0.50785  0.88053  0.61372  1.0000
  H   H839      1.0  0.63501  0.93849  0.67826  1.0000
  H   H840      1.0  0.52635  0.52117  0.90454  1.0000
  H   H841      1.0  0.68611  0.93689  0.72854  1.0000
  S   S299      1.0  0.74384  0.75733  0.91272  1.0000
  C   C844      1.0  0.70037  0.82099  0.91070  1.0000
  H   H842      1.0  0.69759  0.68183  0.84600  1.0000
  C   C845      1.0  0.50161  0.93581  0.61124  1.0000
  C   C846      1.0  0.57791  0.59855  0.99890  1.0000
  C   C847      1.0  0.73091  0.82184  0.85823  1.0000
  C   C848      1.0  0.58366  0.50952  0.90355  1.0000
  Fe  Fe153     1.0  0.72831  0.91059  0.76329  1.0000
  S   S300      1.0  0.73152  0.84754  0.76775  1.0000
  S   S301      1.0  0.72893  0.85725  0.82976  1.0000
  N   N70       1.0  0.61098  0.54049  0.99278  1.0000
  H   H843      1.0  0.65139  0.63425  0.84740  1.0000
  H   H844      1.0  0.53107  0.84349  0.54591  1.0000
  C   C849      1.0  0.69310  0.78287  0.93493  1.0000
  H   H845      1.0  0.64463  0.54245  0.98630  1.0000
  H   H846      1.0  0.50344  0.83193  0.57105  1.0000
  C   C850      1.0  0.61351  0.94213  0.50545  1.0000
  C   C851      1.0  0.67204  0.81510  0.88757  1.0000
  H   H847      1.0  0.61533  0.93763  0.55952  1.0000
  C   C852      1.0  0.59904  0.96732  0.53220  1.0000
  C   C853      1.0  0.50566  0.93172  0.63292  1.0000
  H   H848      1.0  0.68087  0.82550  0.87500  1.0000
  H   H849      1.0  0.55756  0.83804  0.55384  1.0000
  H   H850      1.0  0.63233  0.52373  0.97095  1.0000
  H   H851      1.0  0.51203  0.82275  0.63886  1.0000
  C   C854      1.0  0.52127  0.53794  0.89972  1.0000
  H   H852      1.0  0.62930  0.55206  0.96439  1.0000
  H   H853      1.0  0.63324  0.90270  0.55089  1.0000
  H   H854      1.0  0.52156  0.93289  0.63785  1.0000
  C   C855      1.0  0.59988  0.59751  0.99384  1.0000
  C   C856      1.0  0.63106  0.90844  0.51649  1.0000
  H   H855      1.0  0.50072  0.53632  0.86413  1.0000
  C   C857      1.0  0.74315  0.99020  0.79224  1.0000
  H   H856      1.0  0.55781  0.54830  0.99146  1.0000
  H   H857      1.0  0.52844  0.64391  0.99164  1.0000
  C   C858      1.0  0.73835  0.97061  0.78436  1.0000
  H   H858      1.0  0.60575  0.97425  0.54596  1.0000
  N   N71       1.0  0.49824  0.53993  0.89818  1.0000
  C   C859      1.0  0.50571  0.82574  0.60519  1.0000
  H   H859      1.0  0.58222  0.96392  0.53726  1.0000
  C   C860      1.0  0.62379  0.92265  0.50008  1.0000
  Fe  Fe154     1.0  0.86660  0.41177  0.40721  1.0000
  S   S302      1.0  0.85646  0.38069  0.42460  1.0000
  S   S303      1.0  0.84819  0.44281  0.41447  1.0000
  Fe  Fe155     1.0  0.90758  0.39175  0.38793  1.0000
  S   S304      1.0  0.90105  0.35954  0.40370  1.0000
  S   S305      1.0  0.93954  0.39476  0.36983  1.0000
  Fe  Fe156     1.0  0.86831  0.36565  0.39337  1.0000
  S   S306      1.0  0.85320  0.33633  0.38282  1.0000
  Fe  Fe157     1.0  0.89007  0.37676  0.43330  1.0000
  S   S307      1.0  0.90344  0.36570  0.46502  1.0000
  S   S308      1.0  0.87543  0.39725  0.37515  1.0000
  S   S309      1.0  0.89938  0.40864  0.41824  1.0000
  N   N72       1.0  0.87369  0.42404  0.48671  1.0000
  H   H860      1.0  0.77532  0.01826  0.23265  1.0000
  S   S310      1.0  0.76527  0.26268  0.17540  1.0000
  H   H861      1.0  0.86881  0.42900  0.45309  1.0000
  H   H862      1.0  0.83689  0.29632  0.28744  1.0000
  H   H863      1.0  0.78345  0.15062  0.34460  1.0000
  H   H864      1.0  0.82958  0.19287  0.22074  1.0000
  S   S311      1.0  0.79388  0.10370  0.28253  1.0000
  H   H865      1.0  0.93407  0.28714  0.29101  1.0000
  C   C861      1.0  0.75579  0.24598  0.02075  1.0000
  H   H866      1.0  0.82977  0.43030  0.45907  1.0000
  Fe  Fe158     1.0  0.85300  0.21334  0.28504  1.0000
  S   S312      1.0  0.87393  0.20295  0.25624  1.0000
  S   S313      1.0  0.82387  0.19570  0.29954  1.0000
  Fe  Fe159     1.0  0.87416  0.25655  0.28469  1.0000
  S   S314      1.0  0.89514  0.24942  0.25450  1.0000
  S   S315      1.0  0.88279  0.28813  0.29705  1.0000
  Fe  Fe160     1.0  0.86633  0.23630  0.24224  1.0000
  S   S316      1.0  0.85750  0.24040  0.20730  1.0000
  Fe  Fe161     1.0  0.90097  0.21707  0.27117  1.0000
  S   S317      1.0  0.93433  0.20169  0.27536  1.0000
  S   S318      1.0  0.84484  0.24660  0.27059  1.0000
  S   S319      1.0  0.88052  0.22432  0.30171  1.0000
  C   C862      1.0  0.95978  0.21234  0.26831  1.0000
  C   C863      1.0  0.96232  0.23194  0.25633  1.0000
  C   C864      1.0  0.94362  0.27337  0.29692  1.0000
  C   C865      1.0  0.89100  0.48626  0.39039  1.0000
  C   C866      1.0  0.97800  0.20097  0.27549  1.0000
  H   H867      1.0  0.94854  0.24091  0.25067  1.0000
  H   H868      1.0  0.83817  0.48579  0.42688  1.0000
  H   H869      1.0  0.97629  0.18580  0.28475  1.0000
  C   C867      1.0  0.80137  0.13028  0.28445  1.0000
  C   C868      1.0  0.78687  0.14625  0.29209  1.0000
  C   C869      1.0  0.79395  0.16636  0.29611  1.0000
  C   C870      1.0  0.81548  0.17096  0.29205  1.0000
  C   C871      1.0  0.82982  0.15532  0.28351  1.0000
  C   C872      1.0  0.82282  0.13503  0.27994  1.0000
  H   H870      1.0  0.77032  0.14287  0.29560  1.0000
  H   H871      1.0  0.78271  0.17838  0.30265  1.0000
  H   H872      1.0  0.84646  0.15855  0.28045  1.0000
  H   H873      1.0  0.83420  0.12279  0.27410  1.0000
  H   H874      1.0  0.96290  0.36067  0.43767  1.0000
  C   C873      1.0  0.79049  0.25440  0.18438  1.0000
  C   C874      1.0  0.80728  0.24710  0.17016  1.0000
  C   C875      1.0  0.82762  0.24256  0.17752  1.0000
  C   C876      1.0  0.83127  0.24463  0.19928  1.0000
  C   C877      1.0  0.81426  0.25108  0.21372  1.0000
  C   C878      1.0  0.79410  0.25634  0.20619  1.0000
  H   H875      1.0  0.80480  0.24574  0.15330  1.0000
  H   H876      1.0  0.84068  0.23764  0.16621  1.0000
  H   H877      1.0  0.81679  0.25269  0.23051  1.0000
  H   H878      1.0  0.78120  0.26196  0.21732  1.0000
  N   N73       1.0  0.83957  0.30580  0.25387  1.0000
  C   C879      1.0  0.98556  0.41417  0.42500  1.0000
  H   H879      1.0  0.85782  0.36908  0.47729  1.0000
  H   H880      1.0  0.90193  0.41300  0.46894  1.0000
  H   H881      1.0  0.90561  0.48637  0.37994  1.0000
  C   C880      1.0  0.82207  0.30669  0.24228  1.0000
  C   C881      1.0  0.86199  0.32276  0.35921  1.0000
  C   C882      1.0  0.85236  0.30394  0.35520  1.0000
  C   C883      1.0  0.85872  0.29288  0.33649  1.0000
  C   C884      1.0  0.87475  0.30063  0.32150  1.0000
  C   C885      1.0  0.88449  0.31933  0.32561  1.0000
  C   C886      1.0  0.87825  0.33028  0.34438  1.0000
  H   H882      1.0  0.83977  0.29797  0.36656  1.0000
  H   H883      1.0  0.85105  0.27853  0.33358  1.0000
  H   H884      1.0  0.89685  0.32554  0.31412  1.0000
  H   H885      1.0  0.88580  0.34474  0.34721  1.0000
  C   C887      1.0  0.86171  0.46670  0.40853  1.0000
  H   H886      1.0  0.87648  0.28648  0.21637  1.0000
  C   C888      1.0  0.88088  0.46695  0.39549  1.0000
  H   H887      1.0  0.78662  0.08414  0.33426  1.0000
  H   H888      1.0  0.88766  0.45234  0.38889  1.0000
  H   H889      1.0  0.77359  0.20184  0.04359  1.0000
  C   C889      1.0  0.77568  0.13571  0.34420  1.0000
  C   C890      1.0  0.97901  0.37691  0.37720  1.0000
  C   C891      1.0  0.95815  0.38108  0.38584  1.0000
  C   C892      1.0  0.95239  0.37495  0.40760  1.0000
  C   C893      1.0  0.96739  0.36489  0.42073  1.0000
  Fe  Fe162     1.0  0.75974  0.09403  0.28191  1.0000
  H   H890      1.0  0.87274  0.29756  0.25404  1.0000
  H   H891      1.0  0.93662  0.37872  0.41470  1.0000
  H   H892      1.0  0.75408  0.00576  0.28853  1.0000
  C   C894      1.0  0.79255  0.19941  0.08031  1.0000
  H   H893      1.0  0.82287  0.32145  0.28043  1.0000
  H   H894      1.0  0.95285  0.41815  0.43755  1.0000
  C   C895      1.0  0.97239  0.43272  0.38619  1.0000
  S   S320      1.0  0.74767  0.08646  0.25039  1.0000
  C   C896      1.0  0.85896  0.29878  0.24474  1.0000
  H   H895      1.0  0.98351  0.38141  0.36033  1.0000
  C   C897      1.0  0.75549  0.09787  0.34302  1.0000
  H   H896      1.0  0.81779  0.11275  0.35094  1.0000
  C   C898      1.0  0.89687  0.42308  0.48268  1.0000
  H   H897      1.0  0.90468  0.41560  0.49693  1.0000
  H   H898      1.0  0.81570  0.13369  0.32948  1.0000
  C   C899      1.0  0.96428  0.42090  0.42371  1.0000
  C   C900      1.0  0.95764  0.43037  0.40424  1.0000
  C   C901      1.0  0.76188  0.17158  0.23055  1.0000
  H   H899      1.0  0.96692  0.43945  0.37094  1.0000
  C   C902      1.0  0.83742  0.31121  0.27658  1.0000
  H   H900      1.0  0.78958  0.21684  0.08216  1.0000
  C   C903      1.0  0.98837  0.36131  0.41229  1.0000
  H   H901      1.0  0.85119  0.32014  0.28030  1.0000
  C   C904      1.0  0.76502  0.19267  0.05670  1.0000
  H   H902      1.0  0.90252  0.43944  0.47878  1.0000
  C   C905      1.0  0.82387  0.30105  0.22076  1.0000
  C   C906      1.0  0.93377  0.25484  0.30512  1.0000
  H   H903      1.0  0.80455  0.19719  0.06638  1.0000
  N   N74       1.0  0.79691  0.18501  0.22615  1.0000
  C   C907      1.0  0.78288  0.17088  0.23610  1.0000
  C   C908      1.0  0.79061  0.19990  0.21048  1.0000
  C   C909      1.0  0.86147  0.42722  0.46954  1.0000
  C   C910      1.0  0.76973  0.20118  0.20462  1.0000
  H   H904      1.0  0.77125  0.25261  0.02008  1.0000
  C   C911      1.0  0.81840  0.18499  0.23328  1.0000
  H   H905      1.0  0.78788  0.15897  0.24839  1.0000
  H   H906      1.0  0.80173  0.21092  0.20244  1.0000
  C   C912      1.0  0.98277  0.23981  0.25138  1.0000
  S   S321      1.0  0.76330  0.22360  0.12695  1.0000
  C   C913      1.0  0.94604  0.23717  0.31270  1.0000
  H   H907      1.0  0.81804  0.19375  0.24827  1.0000
  H   H908      1.0  0.82490  0.16838  0.23674  1.0000
  N   N75       1.0  0.89732  0.31459  0.43494  1.0000
  C   C914      1.0  0.91807  0.31846  0.43714  1.0000
  C   C915      1.0  0.89148  0.30815  0.41582  1.0000
  C   C916      1.0  0.93361  0.31577  0.41993  1.0000
  C   C917      1.0  0.90659  0.30532  0.39827  1.0000
  C   C918      1.0  0.92779  0.30920  0.40038  1.0000
  C   C919      1.0  0.88089  0.31909  0.45241  1.0000
  H   H909      1.0  0.92260  0.32441  0.45197  1.0000
  H   H910      1.0  0.87490  0.30604  0.41370  1.0000
  H   H911      1.0  0.94993  0.31952  0.42152  1.0000
  H   H912      1.0  0.90167  0.30100  0.38290  1.0000
  H   H913      1.0  0.93957  0.30774  0.38670  1.0000
  H   H914      1.0  0.86903  0.30660  0.45431  1.0000
  H   H915      1.0  0.88776  0.31972  0.46824  1.0000
  H   H916      1.0  0.87268  0.33489  0.44864  1.0000
  N   N76       1.0  0.78730  0.11738  0.33917  1.0000
  H   H917      1.0  0.76474  0.21319  0.19231  1.0000
  H   H918      1.0  0.94103  0.43507  0.40278  1.0000
  H   H919      1.0  0.98448  0.25484  0.24187  1.0000
  C   C920      1.0  0.85300  0.48585  0.41680  1.0000
  H   H920      1.0  0.80656  0.31161  0.24967  1.0000
  C   C921      1.0  0.77748  0.09861  0.33854  1.0000
  C   C922      1.0  0.96812  0.23822  0.31185  1.0000
  C   C923      1.0  0.83932  0.42803  0.47286  1.0000
  C   C924      1.0  0.77398  0.00144  0.23024  1.0000
  C   C925      1.0  0.81050  0.11756  0.33560  1.0000
  C   C926      1.0  0.96576  0.27386  0.29622  1.0000
  H   H921      1.0  0.80997  0.30147  0.21163  1.0000
  H   H922      1.0  0.79942  0.19207  0.09515  1.0000
  C   C927      1.0  0.75358  0.13561  0.34831  1.0000
  H   H923      1.0  0.81662  0.10641  0.32307  1.0000
  H   H924      1.0  0.84513  0.28890  0.19488  1.0000
  C   C928      1.0  0.84362  0.29405  0.21131  1.0000
  C   C929      1.0  0.86126  0.29273  0.22338  1.0000
  H   H925      1.0  0.97755  0.22421  0.31733  1.0000
  H   H926      1.0  0.93854  0.22245  0.31845  1.0000
  Fe  Fe163     1.0  0.74918  0.24893  0.14834  1.0000
  H   H927      1.0  0.97335  0.28826  0.28969  1.0000
  C   C930      1.0  0.75528  0.18699  0.21485  1.0000
  H   H928      1.0  0.91667  0.25413  0.30537  1.0000
  N   N77       1.0  0.97772  0.25632  0.30341  1.0000
  C   C931      1.0  0.88842  0.36855  0.49002  1.0000
  C   C932      1.0  0.86622  0.36986  0.49162  1.0000
  H   H929      1.0  0.76709  0.17738  0.10954  1.0000
  H   H930      1.0  0.99084  0.40617  0.43982  1.0000
  N   N78       1.0  0.77265  0.18991  0.07672  1.0000
  S   S322      1.0  0.75684  0.24546  0.06516  1.0000
  H   H931      1.0  0.74770  0.08297  0.34258  1.0000
  C   C933      1.0  0.99410  0.36698  0.39042  1.0000
  C   C934      1.0  0.74723  0.24203  0.00122  1.0000
  H   H932      1.0  0.81253  0.42593  0.49674  1.0000
  H   H933      1.0  0.75311  0.13475  0.17600  1.0000
  H   H934      1.0  0.75014  0.00756  0.20761  1.0000
  N   N79       1.0  0.99316  0.42579  0.38751  1.0000
  C   C935      1.0  0.82969  0.42573  0.49395  1.0000
  C   C936      1.0  0.76130  0.17928  0.09353  1.0000
  H   H935      1.0  0.75073  0.16032  0.23839  1.0000
  Fe  Fe164     1.0  0.91103  0.39737  0.59595  1.0000
  S   S323      1.0  0.90179  0.39383  0.63143  1.0000
  S   S324      1.0  0.94183  0.41034  0.58132  1.0000
  Fe  Fe165     1.0  0.86922  0.38231  0.58461  1.0000
  S   S325      1.0  0.85624  0.37779  0.61982  1.0000
  S   S326      1.0  0.85090  0.37806  0.55553  1.0000
  Fe  Fe166     1.0  0.87064  0.40932  0.62309  1.0000
  S   S327      1.0  0.85991  0.43570  0.64507  1.0000
  Fe  Fe167     1.0  0.88868  0.36266  0.62540  1.0000
  S   S328      1.0  0.90140  0.33563  0.64800  1.0000
  S   S329      1.0  0.88081  0.41495  0.58776  1.0000
  S   S330      1.0  0.90054  0.36498  0.58999  1.0000
  Fe  Fe168     1.0  0.86418  0.20908  0.76699  1.0000
  S   S331      1.0  0.88753  0.22014  0.78878  1.0000
  S   S332      1.0  0.85102  0.17667  0.77783  1.0000
  Fe  Fe169     1.0  0.86404  0.25153  0.73954  1.0000
  S   S333      1.0  0.88656  0.26573  0.75961  1.0000
  S   S334      1.0  0.84835  0.27126  0.71274  1.0000
  Fe  Fe170     1.0  0.90523  0.23413  0.75843  1.0000
  S   S335      1.0  0.94070  0.23311  0.74640  1.0000
  Fe  Fe171     1.0  0.86694  0.25059  0.78810  1.0000
  S   S336      1.0  0.85820  0.26964  0.81744  1.0000
  S   S337      1.0  0.88340  0.22052  0.73647  1.0000
  S   S338      1.0  0.84292  0.23888  0.76821  1.0000
  H   H936      1.0  0.98394  0.23236  0.72819  1.0000
  S   S339      1.0  0.78135  0.27013  0.89128  1.0000
  H   H937      1.0  0.75046  0.15025  0.70788  1.0000
  H   H938      1.0  0.90845  0.45209  0.64601  1.0000
  H   H939      1.0  0.99067  0.46073  0.64784  1.0000
  C   C937      1.0  0.94635  0.18866  0.71878  1.0000
  S   S340      1.0  0.77940  0.13026  0.73570  1.0000
  C   C938      1.0  0.91020  0.45631  0.61135  1.0000
  H   H940      1.0  0.97961  0.46279  0.62189  1.0000
  C   C939      1.0  0.83602  0.26823  0.83703  1.0000
  C   C940      1.0  0.81672  0.25951  0.83354  1.0000
  C   C941      1.0  0.79951  0.25987  0.84986  1.0000
  C   C942      1.0  0.80172  0.26868  0.86971  1.0000
  C   C943      1.0  0.82095  0.27743  0.87280  1.0000
  C   C944      1.0  0.83784  0.27726  0.85666  1.0000
  H   H941      1.0  0.81490  0.25301  0.81820  1.0000
  H   H942      1.0  0.78445  0.25383  0.84694  1.0000
  H   H943      1.0  0.82281  0.28453  0.88786  1.0000
  H   H944      1.0  0.85248  0.28426  0.85949  1.0000
  C   C945      1.0  0.83011  0.16504  0.76637  1.0000
  C   C946      1.0  0.81922  0.14862  0.77842  1.0000
  C   C947      1.0  0.80309  0.13835  0.76958  1.0000
  C   C948      1.0  0.79805  0.14409  0.74836  1.0000
  C   C949      1.0  0.80883  0.16065  0.73640  1.0000
  C   C950      1.0  0.82459  0.17128  0.74543  1.0000
  H   H945      1.0  0.82339  0.14367  0.79463  1.0000
  H   H946      1.0  0.79501  0.12556  0.77892  1.0000
  H   H947      1.0  0.80508  0.16518  0.71996  1.0000
  H   H948      1.0  0.83283  0.18390  0.73597  1.0000
  C   C951      1.0  0.96509  0.23066  0.75890  1.0000
  C   C952      1.0  0.96589  0.22839  0.78139  1.0000
  C   C953      1.0  0.93800  0.18041  0.75789  1.0000
  C   C954      1.0  0.98432  0.23072  0.74562  1.0000
  H   H949      1.0  0.95129  0.22818  0.79185  1.0000
  N   N80       1.0  0.97964  0.36309  0.58432  1.0000
  C   C955      1.0  0.99574  0.28212  0.74044  1.0000
  C   C956      1.0  0.88613  0.31815  0.66596  1.0000
  C   C957      1.0  0.86413  0.31746  0.66553  1.0000
  C   C958      1.0  0.85277  0.30282  0.67975  1.0000
  C   C959      1.0  0.86325  0.28895  0.69466  1.0000
  C   C960      1.0  0.88519  0.28990  0.69533  1.0000
  C   C961      1.0  0.89656  0.30435  0.68096  1.0000
  H   H950      1.0  0.85594  0.32795  0.65402  1.0000
  H   H951      1.0  0.83580  0.30220  0.67913  1.0000
  H   H952      1.0  0.89343  0.27936  0.70675  1.0000
  H   H953      1.0  0.91358  0.30474  0.68137  1.0000
  C   C962      1.0  0.86555  0.37334  0.53065  1.0000
  C   C963      1.0  0.88775  0.37218  0.52893  1.0000
  H   H954      1.0  0.96173  0.19325  0.72398  1.0000
  C   C964      1.0  0.78862  0.21190  0.87335  1.0000
  H   H955      1.0  0.94778  0.35718  0.57897  1.0000
  H   H956      1.0  0.98610  0.22454  0.80786  1.0000
  H   H957      1.0  0.89618  0.37339  0.54314  1.0000
  H   H958      1.0  0.77007  0.19787  0.80590  1.0000
  C   C965      1.0  0.96707  0.35653  0.62826  1.0000
  C   C966      1.0  0.90833  0.49283  0.59640  1.0000
  C   C967      1.0  0.85634  0.46185  0.63320  1.0000
  C   C968      1.0  0.91346  0.17237  0.73321  1.0000
  H   H959      1.0  0.91113  0.43930  0.60919  1.0000
  H   H960      1.0  0.85787  0.47633  0.66339  1.0000
  H   H961      1.0  0.85353  0.45234  0.60101  1.0000
  H   H962      1.0  0.98097  0.28070  0.73312  1.0000
  C   C969      1.0  0.95401  0.41550  0.62212  1.0000
  C   C970      1.0  0.96026  0.41415  0.60005  1.0000
  C   C971      1.0  0.98175  0.41505  0.59282  1.0000
  H   H963      1.0  0.90235  0.48011  0.66949  1.0000
  C   C972      1.0  0.78273  0.20062  0.81591  1.0000
  C   C973      1.0  0.80380  0.20014  0.80715  1.0000
  N   N81       1.0  0.84380  0.30890  0.75880  1.0000
  C   C974      1.0  0.84456  0.31683  0.73764  1.0000
  C   C975      1.0  0.85916  0.31337  0.77174  1.0000
  C   C976      1.0  0.86150  0.32880  0.72863  1.0000
  C   C977      1.0  0.87637  0.32526  0.76326  1.0000
  C   C978      1.0  0.82601  0.29613  0.76772  1.0000
  H   H964      1.0  0.83236  0.31332  0.72736  1.0000
  H   H965      1.0  0.85839  0.30740  0.78864  1.0000
  H   H966      1.0  0.86238  0.33444  0.71162  1.0000
  H   H967      1.0  0.88876  0.32830  0.77346  1.0000
  H   H968      1.0  0.82987  0.28637  0.78270  1.0000
  H   H969      1.0  0.81180  0.30679  0.77167  1.0000
  H   H970      1.0  0.82220  0.28480  0.75580  1.0000
  C   C979      1.0  0.86439  0.42237  0.50748  1.0000
  C   C980      1.0  0.96923  0.41668  0.63701  1.0000
  H   H971      1.0  0.78499  0.19663  0.88278  1.0000
  C   C981      1.0  0.85104  0.48670  0.60206  1.0000
  H   H972      1.0  0.83634  0.20322  0.81359  1.0000
  H   H973      1.0  0.96198  0.35436  0.64539  1.0000
  C   C982      1.0  0.95923  0.35803  0.59083  1.0000
  H   H974      1.0  0.93858  0.20338  0.71126  1.0000
  H   H975      1.0  0.93752  0.41561  0.62783  1.0000
  C   C983      1.0  0.98572  0.36760  0.56116  1.0000
  H   H976      1.0  0.92863  0.17373  0.79191  1.0000
  C   C984      1.0  0.90505  0.16499  0.77159  1.0000
  H   H977      1.0  0.87399  0.41972  0.52117  1.0000
  H   H978      1.0  0.80163  0.21941  0.88049  1.0000
  H   H979      1.0  0.76163  0.20528  0.84437  1.0000
  C   C985      1.0  0.98790  0.36154  0.62147  1.0000
  H   H980      1.0  0.80766  0.19719  0.79021  1.0000
  C   C986      1.0  0.98568  0.22634  0.79043  1.0000
  H   H981      1.0  0.88429  0.15889  0.74730  1.0000
  C   C987      1.0  0.74864  0.10213  0.86281  1.0000
  H   H982      1.0  0.89411  0.15950  0.78505  1.0000
  C   C988      1.0  0.89954  0.16462  0.75036  1.0000
  C   C989      1.0  0.85386  0.46564  0.61106  1.0000
  H   H983      1.0  0.83504  0.42064  0.52789  1.0000
  C   C990      1.0  0.84227  0.42299  0.51141  1.0000
  S   S341      1.0  0.74893  0.09736  0.78814  1.0000
  C   C991      1.0  0.87759  0.33286  0.74150  1.0000
  H   H984      1.0  0.75843  0.11346  0.70178  1.0000
  H   H985      1.0  0.90880  0.17258  0.71679  1.0000
  H   H986      1.0  0.97200  0.48241  0.64137  1.0000
  C   C992      1.0  0.85483  0.37188  0.51196  1.0000
  C   C993      1.0  0.81991  0.20350  0.82029  1.0000
  H   H987      1.0  0.95282  0.18694  0.76107  1.0000
  C   C994      1.0  0.98542  0.47212  0.63452  1.0000
  H   H988      1.0  0.89099  0.34180  0.73454  1.0000
  C   C995      1.0  0.89911  0.36945  0.50876  1.0000
  H   H989      1.0  0.96432  0.41730  0.65411  1.0000
  H   H990      1.0  0.91629  0.36835  0.50763  1.0000
  H   H991      1.0  0.77450  0.22318  0.87511  1.0000
  H   H992      1.0  0.75541  0.11503  0.67305  1.0000
  C   C996      1.0  0.90888  0.46370  0.63216  1.0000
  H   H993      1.0  0.94974  0.17666  0.70648  1.0000
  C   C997      1.0  0.77806  0.20470  0.83772  1.0000
  H   H994      1.0  0.93644  0.35073  0.61805  1.0000
  N   N82       1.0  0.90738  0.48519  0.63496  1.0000
  N   N83       1.0  0.79395  0.20806  0.85046  1.0000
  C   C998      1.0  0.95267  0.35457  0.61287  1.0000
  N   N84       1.0  0.93242  0.18008  0.73710  1.0000
  H   H995      1.0  0.82729  0.21015  0.85213  1.0000
  C   C999      1.0  0.85625  0.47921  0.64621  1.0000
  C   C1000     1.0  0.81469  0.20730  0.84209  1.0000
  H   H996      1.0  0.83765  0.37276  0.51319  1.0000
  Fe  Fe172     1.0  0.75106  0.25280  0.90086  1.0000
  C   C1001     1.0  0.92438  0.17296  0.77544  1.0000
  H   H997      1.0  0.97631  0.38191  0.55500  1.0000
  H   H998      1.0  0.91046  0.46528  0.57724  1.0000
  C   C1002     1.0  0.99401  0.36461  0.59928  1.0000
  C   C1003     1.0  0.99625  0.27961  0.76298  1.0000
  H   H999      1.0  0.75887  0.15668  0.84392  1.0000
  H   H1000     1.0  0.76011  0.11092  0.87011  1.0000
  C   C1004     1.0  0.99080  0.41624  0.62990  1.0000
  H   H1001     1.0  0.77212  0.08080  0.84710  1.0000
  Fe  Fe173     1.0  0.75379  0.10988  0.75327  1.0000
  C   C1005     1.0  0.90981  0.47096  0.59340  1.0000
  H   H1002     1.0  0.75609  0.24562  0.98580  1.0000
  H   H1003     1.0  0.98674  0.41432  0.57575  1.0000
  H   H1004     1.0  0.98170  0.27624  0.77292  1.0000
  S   S342      1.0  0.75350  0.22089  0.91967  1.0000
  H   H1005     1.0  0.98277  0.35371  0.55195  1.0000
  H   H1006     1.0  0.84868  0.48953  0.58502  1.0000
  C   C1006     1.0  0.90634  0.49296  0.65675  1.0000
  C   C1007     1.0  0.75536  0.08534  0.84986  1.0000
  Fe  Fe174     1.0  0.90573  0.59918  0.42194  1.0000
  S   S343      1.0  0.87461  0.61356  0.43512  1.0000
  S   S344      1.0  0.93388  0.61829  0.42486  1.0000
  Fe  Fe175     1.0  0.88613  0.55980  0.40793  1.0000
  S   S345      1.0  0.85320  0.57137  0.41975  1.0000
  S   S346      1.0  0.89514  0.52946  0.39098  1.0000
  Fe  Fe176     1.0  0.86268  0.60356  0.40459  1.0000
  S   S347      1.0  0.84181  0.62756  0.38597  1.0000
  Fe  Fe177     1.0  0.86870  0.58031  0.44895  1.0000
  S   S348      1.0  0.85658  0.57117  0.48343  1.0000
  S   S349      1.0  0.89444  0.59136  0.39048  1.0000
  S   S350      1.0  0.90098  0.56658  0.43804  1.0000
  C   C1008     1.0  0.82845  0.69043  0.15181  1.0000
  S   S351      1.0  0.76988  0.69787  0.16978  1.0000
  H   H1007     1.0  0.82617  0.75639  0.11373  1.0000
  H   H1008     1.0  0.79854  0.68408  0.12563  1.0000
  Fe  Fe178     1.0  0.87325  0.70520  0.28094  1.0000
  S   S352      1.0  0.88774  0.70922  0.24640  1.0000
  S   S353      1.0  0.87714  0.67095  0.29543  1.0000
  Fe  Fe179     1.0  0.86397  0.75297  0.28321  1.0000
  S   S354      1.0  0.87900  0.75985  0.24963  1.0000
  S   S355      1.0  0.85104  0.78264  0.29984  1.0000
  Fe  Fe180     1.0  0.86029  0.73289  0.24082  1.0000
  S   S356      1.0  0.84252  0.74301  0.21082  1.0000
  Fe  Fe181     1.0  0.90513  0.73574  0.25834  1.0000
  S   S357      1.0  0.93988  0.74007  0.24552  1.0000
  S   S358      1.0  0.84427  0.72676  0.27433  1.0000
  S   S359      1.0  0.89165  0.73097  0.29295  1.0000
  H   H1009     1.0  0.88676  0.54838  0.34838  1.0000
  H   H1010     1.0  0.77802  0.80380  0.21373  1.0000
  H   H1011     1.0  0.84244  0.78559  0.22641  1.0000
  C   C1009     1.0  0.79210  0.80604  0.22192  1.0000
  S   S360      1.0  0.76082  0.73732  0.06623  1.0000
  C   C1010     1.0  0.82436  0.79210  0.29786  1.0000
  C   C1011     1.0  0.81838  0.81342  0.30206  1.0000
  C   C1012     1.0  0.79718  0.82130  0.30108  1.0000
  C   C1013     1.0  0.78163  0.80763  0.29679  1.0000
  C   C1014     1.0  0.78760  0.78630  0.29271  1.0000
  C   C1015     1.0  0.80894  0.77870  0.29272  1.0000
  H   H1012     1.0  0.83016  0.82379  0.30641  1.0000
  H   H1013     1.0  0.79267  0.83760  0.30482  1.0000
  H   H1014     1.0  0.77560  0.77540  0.29020  1.0000
  H   H1015     1.0  0.81327  0.76218  0.28985  1.0000
  C   C1016     1.0  0.96371  0.73735  0.25911  1.0000
  C   C1017     1.0  0.96355  0.73586  0.28173  1.0000
  C   C1018     1.0  0.98285  0.73463  0.29172  1.0000
  H   H1016     1.0  0.87673  0.61133  0.48599  1.0000
  C   C1019     1.0  0.98346  0.73733  0.24670  1.0000
  H   H1017     1.0  0.94854  0.73600  0.29151  1.0000
  C   C1020     1.0  0.99473  0.58417  0.39794  1.0000
  H   H1018     1.0  0.77251  0.92517  0.23665  1.0000
  C   C1021     1.0  0.78812  0.71164  0.18286  1.0000
  C   C1022     1.0  0.79403  0.73210  0.17517  1.0000
  C   C1023     1.0  0.81055  0.74153  0.18414  1.0000
  C   C1024     1.0  0.82093  0.73090  0.20128  1.0000
  C   C1025     1.0  0.81440  0.71084  0.20962  1.0000
  C   C1026     1.0  0.79816  0.70119  0.20031  1.0000
  H   H1019     1.0  0.78655  0.74026  0.16167  1.0000
  H   H1020     1.0  0.81564  0.75695  0.17740  1.0000
  H   H1021     1.0  0.82230  0.70248  0.22278  1.0000
  H   H1022     1.0  0.79371  0.68532  0.20635  1.0000
  H   H1023     1.0  0.84166  0.68037  0.14426  1.0000
  H   H1024     1.0  0.83969  0.73056  0.14208  1.0000
  C   C1027     1.0  0.85242  0.64048  0.36150  1.0000
  C   C1028     1.0  0.87017  0.63158  0.34975  1.0000
  C   C1029     1.0  0.87734  0.64110  0.32948  1.0000
  C   C1030     1.0  0.86739  0.66010  0.32112  1.0000
  C   C1031     1.0  0.84993  0.66939  0.33307  1.0000
  C   C1032     1.0  0.84226  0.65938  0.35306  1.0000
  H   H1025     1.0  0.87799  0.61695  0.35587  1.0000
  H   H1026     1.0  0.89083  0.63382  0.32027  1.0000
  H   H1027     1.0  0.84203  0.68393  0.32664  1.0000
  H   H1028     1.0  0.82837  0.66628  0.36197  1.0000
  H   H1029     1.0  0.78555  0.70913  0.09636  1.0000
  C   C1033     1.0  0.95815  0.57380  0.45903  1.0000
  C   C1034     1.0  0.81056  0.82579  0.24570  1.0000
  H   H1030     1.0  0.92394  0.60427  0.47087  1.0000
  C   C1035     1.0  0.81021  0.79249  0.21882  1.0000
  C   C1036     1.0  0.82022  0.74046  0.11610  1.0000
  C   C1037     1.0  0.75722  0.97366  0.21415  1.0000
  C   C1038     1.0  0.95714  0.60564  0.41365  1.0000
  C   C1039     1.0  0.95622  0.58746  0.40211  1.0000
  C   C1040     1.0  0.97504  0.57686  0.39406  1.0000
  C   C1041     1.0  0.76145  0.73500  0.02186  1.0000
  H   H1031     1.0  0.94107  0.58140  0.39954  1.0000
  H   H1032     1.0  0.97435  0.56266  0.38528  1.0000
  C   C1042     1.0  0.80494  0.69981  0.12284  1.0000
  H   H1033     1.0  0.81587  0.67995  0.15939  1.0000
  H   H1034     1.0  0.81047  0.83884  0.25624  1.0000
  H   H1035     1.0  0.77087  0.74015  0.22010  1.0000
  H   H1036     1.0  0.81257  0.60113  0.32706  1.0000
  H   H1037     1.0  0.76347  0.96740  0.29802  1.0000
  C   C1043     1.0  0.82833  0.79606  0.22913  1.0000
  N   N85       1.0  0.89320  0.66888  0.37646  1.0000
  C   C1044     1.0  0.89692  0.67908  0.35633  1.0000
  C   C1045     1.0  0.90660  0.65237  0.38332  1.0000
  C   C1046     1.0  0.91404  0.67230  0.34220  1.0000
  C   C1047     1.0  0.92394  0.64525  0.36967  1.0000
  C   C1048     1.0  0.92758  0.65523  0.34894  1.0000
  C   C1049     1.0  0.87526  0.67612  0.39119  1.0000
  H   H1038     1.0  0.88632  0.69216  0.35079  1.0000
  H   H1039     1.0  0.90387  0.64452  0.39941  1.0000
  H   H1040     1.0  0.91642  0.67996  0.32595  1.0000
  H   H1041     1.0  0.93443  0.63204  0.37523  1.0000
  H   H1042     1.0  0.94080  0.64972  0.33806  1.0000
  H   H1043     1.0  0.86762  0.66220  0.40017  1.0000
  H   H1044     1.0  0.88084  0.68657  0.40297  1.0000
  H   H1045     1.0  0.86275  0.68508  0.38219  1.0000
  N   N86       1.0  0.84212  0.59210  0.33959  1.0000
  C   C1050     1.0  0.85880  0.59004  0.32416  1.0000
  C   C1051     1.0  0.84104  0.57863  0.35797  1.0000
  H   H1046     1.0  0.76228  0.82037  0.17730  1.0000
  C   C1052     1.0  0.85699  0.56263  0.36129  1.0000
  H   H1047     1.0  0.88858  0.57303  0.31506  1.0000
  C   C1053     1.0  0.86332  0.50513  0.41200  1.0000
  H   H1048     1.0  0.85968  0.60075  0.30960  1.0000
  H   H1049     1.0  0.82790  0.58033  0.37029  1.0000
  C   C1054     1.0  0.82476  0.60808  0.33583  1.0000
  H   H1050     1.0  0.81721  0.61373  0.35142  1.0000
  S   S361      1.0  0.75209  0.92829  0.28169  1.0000
  H   H1051     1.0  0.98245  0.73380  0.30921  1.0000
  H   H1052     1.0  0.97748  0.62742  0.42592  1.0000
  H   H1053     1.0  0.85612  0.55183  0.37579  1.0000
  H   H1054     1.0  0.77797  0.72979  0.02270  1.0000
  S   S362      1.0  0.75891  0.86895  0.26028  1.0000
  H   H1055     1.0  0.85667  0.80197  0.25684  1.0000
  C   C1055     1.0  0.80493  0.73442  0.10318  1.0000
  H   H1056     1.0  0.77804  0.83305  0.23824  1.0000
  C   C1056     1.0  0.99558  0.60252  0.40925  1.0000
  H   H1057     1.0  0.84509  0.82660  0.26580  1.0000
  C   C1057     1.0  0.79216  0.82262  0.23564  1.0000
  C   C1058     1.0  0.75273  0.73691  0.00156  1.0000
  C   C1059     1.0  0.76326  0.76432  0.24279  1.0000
  C   C1060     1.0  0.82778  0.72579  0.13210  1.0000
  C   C1061     1.0  0.84813  0.81709  0.25135  1.0000
  N   N87       1.0  0.95183  0.58514  0.47670  1.0000
  H   H1058     1.0  0.81037  0.77939  0.20838  1.0000
  N   N88       1.0  0.81993  0.70584  0.13544  1.0000
  S   S363      1.0  0.75440  0.81584  0.29881  1.0000
  N   N89       1.0  0.82837  0.81262  0.24227  1.0000
  H   H1059     1.0  0.79882  0.74557  0.09069  1.0000
  H   H1060     1.0  0.85863  0.82588  0.23894  1.0000
  C   C1062     1.0  0.79735  0.71393  0.10644  1.0000
  H   H1061     1.0  0.83436  0.69868  0.16519  1.0000
  H   H1062     1.0  0.98468  0.56001  0.43940  1.0000
  H   H1063     1.0  0.85644  0.51977  0.41840  1.0000
  C   C1063     1.0  0.87420  0.56062  0.34581  1.0000
  C   C1064     1.0  0.75978  0.99540  0.21614  1.0000
  C   C1065     1.0  0.97679  0.61333  0.41700  1.0000
  C   C1066     1.0  0.87520  0.57443  0.32714  1.0000
  H   H1064     1.0  0.77779  0.76117  0.25083  1.0000
  C   C1067     1.0  0.78247  0.96415  0.23978  1.0000
  H   H1065     1.0  0.75138  0.78991  0.26282  1.0000
  C   C1068     1.0  0.97970  0.56883  0.45355  1.0000
  C   C1069     1.0  0.78551  0.98575  0.24205  1.0000
  N   N90       1.0  0.76833  0.95836  0.22607  1.0000
  C   C1070     1.0  0.75922  0.75245  0.22548  1.0000
  H   H1066     1.0  0.83072  0.62250  0.32622  1.0000
  C   C1071     1.0  0.75167  0.97163  0.28664  1.0000
  H   H1067     1.0  0.79084  0.95208  0.24971  1.0000
  H   H1068     1.0  0.98380  0.73849  0.22920  1.0000
  H   H1069     1.0  0.77143  0.93084  0.20781  1.0000
  H   H1070     1.0  0.94654  0.56883  0.44883  1.0000
  C   C1072     1.0  0.92918  0.59054  0.48182  1.0000
  C   C1073     1.0  0.99481  0.57583  0.46608  1.0000
  H   H1071     1.0  0.92574  0.59486  0.49888  1.0000
  C   C1074     1.0  0.88228  0.50543  0.39859  1.0000
  H   H1072     1.0  0.91949  0.57672  0.47980  1.0000
  C   C1075     1.0  0.96657  0.59222  0.48898  1.0000
  C   C1076     1.0  0.76490  0.93571  0.22402  1.0000
  H   H1073     1.0  0.79607  0.99032  0.25356  1.0000
  C   C1077     1.0  0.98826  0.58758  0.48393  1.0000
  S   S364      1.0  0.75239  0.74762  0.13059  1.0000
  C   C1078     1.0  0.74903  0.73983  0.04102  1.0000
  Fe  Fe182     1.0  0.74818  0.71448  0.14574  1.0000
  H   H1074     1.0  0.74765  0.93286  0.22624  1.0000
  C   C1079     1.0  0.74848  0.78040  0.24955  1.0000
  Fe  Fe183     1.0  0.91060  0.56350  0.62700  1.0000
  S   S365      1.0  0.90490  0.59929  0.62417  1.0000
  S   S366      1.0  0.94061  0.54581  0.63644  1.0000
  Fe  Fe184     1.0  0.86670  0.55509  0.61526  1.0000
  S   S367      1.0  0.85675  0.59001  0.61213  1.0000
  S   S368      1.0  0.84721  0.53022  0.60349  1.0000
  Fe  Fe185     1.0  0.88884  0.59346  0.59420  1.0000
  S   S369      1.0  0.89228  0.61259  0.56192  1.0000
  Fe  Fe186     1.0  0.87349  0.59276  0.64236  1.0000
  S   S370      1.0  0.85972  0.60996  0.67191  1.0000
  S   S371      1.0  0.89776  0.55848  0.59557  1.0000
  S   S372      1.0  0.88029  0.55710  0.64714  1.0000
  Fe  Fe187     1.0  0.88913  0.70798  0.73715  1.0000
  S   S373      1.0  0.90527  0.70286  0.76822  1.0000
  S   S374      1.0  0.89850  0.69127  0.70602  1.0000
  Fe  Fe188     1.0  0.86239  0.74792  0.75269  1.0000
  S   S375      1.0  0.87738  0.74636  0.78437  1.0000
  S   S376      1.0  0.83083  0.76444  0.74425  1.0000
  Fe  Fe189     1.0  0.90877  0.73840  0.76514  1.0000
  S   S377      1.0  0.93997  0.75466  0.76788  1.0000
  Fe  Fe190     1.0  0.87291  0.71115  0.78505  1.0000
  S   S378      1.0  0.85657  0.69262  0.81394  1.0000
  S   S379      1.0  0.89387  0.74332  0.73326  1.0000
  S   S380      1.0  0.85682  0.71277  0.75425  1.0000
  H   H1075     1.0  0.86586  0.70583  0.66607  1.0000
  H   H1076     1.0  0.85801  0.70814  0.87459  1.0000
  S   S381      1.0  0.79136  0.86024  0.74481  1.0000
  C   C1080     1.0  0.95595  0.64529  0.67666  1.0000
  C   C1081     1.0  0.82456  0.56933  0.56430  1.0000
  C   C1082     1.0  0.85216  0.70408  0.67774  1.0000
  H   H1077     1.0  0.85578  0.74887  0.67627  1.0000
  C   C1083     1.0  0.98001  0.56029  0.63993  1.0000
  H   H1078     1.0  0.76918  0.92279  0.69819  1.0000
  S   S382      1.0  0.79592  0.73627  0.88694  1.0000
  N   N91       1.0  0.88619  0.71175  0.85320  1.0000
  C   C1084     1.0  0.91300  0.73594  0.82445  1.0000
  H   H1079     1.0  0.86732  0.68479  0.86126  1.0000
  N   N92       1.0  0.93222  0.60908  0.68038  1.0000
  H   H1080     1.0  0.84537  0.67332  0.66720  1.0000
  C   C1085     1.0  0.81478  0.56535  0.52217  1.0000
  C   C1086     1.0  0.94869  0.61098  0.66468  1.0000
  C   C1087     1.0  0.82366  0.68280  0.69394  1.0000
  C   C1088     1.0  0.83742  0.70569  0.83174  1.0000
  C   C1089     1.0  0.83834  0.72742  0.83498  1.0000
  C   C1090     1.0  0.82519  0.73664  0.85169  1.0000
  C   C1091     1.0  0.81035  0.72451  0.86470  1.0000
  C   C1092     1.0  0.80871  0.70304  0.86077  1.0000
  C   C1093     1.0  0.82244  0.69360  0.84460  1.0000
  H   H1081     1.0  0.84984  0.73690  0.82531  1.0000
  H   H1082     1.0  0.82661  0.75325  0.85469  1.0000
  H   H1083     1.0  0.79753  0.69346  0.87085  1.0000
  H   H1084     1.0  0.82172  0.67673  0.84233  1.0000
  C   C1094     1.0  0.82034  0.79118  0.74532  1.0000
  C   C1095     1.0  0.79840  0.79528  0.74397  1.0000
  C   C1096     1.0  0.78922  0.81624  0.74451  1.0000
  C   C1097     1.0  0.80200  0.83344  0.74582  1.0000
  C   C1098     1.0  0.82395  0.82935  0.74724  1.0000
  C   C1099     1.0  0.83307  0.80830  0.74726  1.0000
  H   H1085     1.0  0.78841  0.78215  0.74243  1.0000
  H   H1086     1.0  0.77235  0.81915  0.74322  1.0000
  H   H1087     1.0  0.83399  0.84257  0.74816  1.0000
  H   H1088     1.0  0.84998  0.80540  0.74822  1.0000
  C   C1100     1.0  0.96650  0.74462  0.77182  1.0000
  C   C1101     1.0  0.97084  0.72590  0.78473  1.0000
  H   H1089     1.0  0.97092  0.60986  0.60005  1.0000
  H   H1090     1.0  0.92328  0.74539  0.81299  1.0000
  C   C1102     1.0  0.98366  0.75690  0.76341  1.0000
  H   H1091     1.0  0.95794  0.71630  0.79145  1.0000
  H   H1092     1.0  0.98056  0.77148  0.75352  1.0000
  C   C1103     1.0  0.87084  0.63242  0.68129  1.0000
  C   C1104     1.0  0.86436  0.63871  0.70224  1.0000
  C   C1105     1.0  0.87270  0.65665  0.71018  1.0000
  C   C1106     1.0  0.88745  0.66857  0.69707  1.0000
  C   C1107     1.0  0.89375  0.66241  0.67604  1.0000
  C   C1108     1.0  0.88562  0.64433  0.66822  1.0000
  H   H1093     1.0  0.85287  0.62959  0.71243  1.0000
  H   H1094     1.0  0.86767  0.66128  0.72637  1.0000
  H   H1095     1.0  0.90511  0.67160  0.66575  1.0000
  H   H1096     1.0  0.89060  0.63978  0.65199  1.0000
  C   C1109     1.0  0.88462  0.60007  0.53949  1.0000
  H   H1097     1.0  0.82859  0.57058  0.58078  1.0000
  C   C1110     1.0  0.84067  0.68565  0.67833  1.0000
  H   H1098     1.0  0.95246  0.59856  0.65357  1.0000
  C   C1111     1.0  0.99540  0.57563  0.63620  1.0000
  C   C1112     1.0  0.87729  0.57937  0.54191  1.0000
  H   H1099     1.0  0.82119  0.59857  0.51704  1.0000
  H   H1100     1.0  0.81504  0.66827  0.69491  1.0000
  H   H1101     1.0  0.97388  0.63039  0.65001  1.0000
  H   H1102     1.0  0.87681  0.57057  0.55752  1.0000
  N   N93       1.0  0.77593  0.93562  0.72778  1.0000
  C   C1113     1.0  0.76907  0.81870  0.80540  1.0000
  H   H1103     1.0  0.81706  0.61611  0.56372  1.0000
  H   H1104     1.0  0.76243  0.75034  0.83682  1.0000
  C   C1114     1.0  0.83124  0.60731  0.55629  1.0000
  C   C1115     1.0  0.97353  0.59599  0.61110  1.0000
  C   C1116     1.0  0.95846  0.58036  0.61434  1.0000
  C   C1117     1.0  0.96135  0.56288  0.62928  1.0000
  C   C1118     1.0  0.79578  0.78933  0.79885  1.0000
  C   C1119     1.0  0.82969  0.71697  0.70717  1.0000
  H   H1105     1.0  0.94443  0.58208  0.60553  1.0000
  C   C1120     1.0  0.89910  0.74591  0.83979  1.0000
  N   N94       1.0  0.84671  0.71935  0.69217  1.0000
  C   C1121     1.0  0.80300  0.76789  0.80169  1.0000
  H   H1106     1.0  0.90380  0.59504  0.67473  1.0000
  H   H1107     1.0  0.85500  0.74808  0.70537  1.0000
  H   H1108     1.0  0.77102  0.82742  0.81999  1.0000
  H   H1109     1.0  0.87628  0.73393  0.69055  1.0000
  C   C1122     1.0  0.93909  0.64328  0.69263  1.0000
  H   H1110     1.0  0.93478  0.65609  0.70331  1.0000
  H   H1111     1.0  0.91376  0.62383  0.70621  1.0000
  N   N95       1.0  0.82536  0.58667  0.54961  1.0000
  H   H1112     1.0  0.89036  0.62743  0.51714  1.0000
  C   C1123     1.0  0.89983  0.70185  0.83824  1.0000
  H   H1113     1.0  0.84349  0.60502  0.56814  1.0000
  C   C1124     1.0  0.92728  0.62497  0.69422  1.0000
  H   H1114     1.0  0.82520  0.72917  0.71849  1.0000
  H   H1115     1.0  0.77764  0.82703  0.79109  1.0000
  H   H1116     1.0  0.92703  0.57706  0.67285  1.0000
  C   C1125     1.0  0.96085  0.62902  0.66260  1.0000
  C   C1126     1.0  0.87720  0.60223  0.50143  1.0000
  H   H1117     1.0  0.81891  0.53569  0.56978  1.0000
  C   C1127     1.0  0.78627  0.91697  0.73474  1.0000
  C   C1128     1.0  0.82019  0.58498  0.52886  1.0000
  H   H1118     1.0  0.99479  0.70610  0.80056  1.0000
  Fe  Fe191     1.0  0.76293  0.72794  0.90181  1.0000
  C   C1129     1.0  0.78526  0.95250  0.75892  1.0000
  C   C1130     1.0  0.88481  0.61136  0.51911  1.0000
  C   C1131     1.0  0.86973  0.57026  0.52428  1.0000
  H   H1119     1.0  0.81058  0.53210  0.53181  1.0000
  C   C1132     1.0  0.85901  0.73853  0.69101  1.0000
  C   C1133     1.0  0.87268  0.69884  0.86886  1.0000
  H   H1120     1.0  0.79630  0.73706  0.81769  1.0000
  H   H1121     1.0  0.78429  0.96641  0.76844  1.0000
  C   C1134     1.0  0.76455  0.93662  0.70813  1.0000
  H   H1122     1.0  0.88153  0.69317  0.88302  1.0000
  C   C1135     1.0  0.91339  0.71378  0.82365  1.0000
  C   C1136     1.0  0.79086  0.75372  0.81524  1.0000
  S   S383      1.0  0.75175  0.70771  0.93197  1.0000
  H   H1123     1.0  0.80545  0.80031  0.78855  1.0000
  N   N96       1.0  0.77668  0.79628  0.80869  1.0000
  H   H1124     1.0  0.76252  0.73314  0.98701  1.0000
  C   C1137     1.0  0.79647  0.91568  0.75392  1.0000
  H   H1125     1.0  0.78648  0.90283  0.72563  1.0000
  H   H1126     1.0  0.96503  0.65953  0.67502  1.0000
  H   H1127     1.0  0.86364  0.55442  0.52647  1.0000
  H   H1128     1.0  0.89986  0.68468  0.83717  1.0000
  H   H1129     1.0  0.91561  0.58446  0.69893  1.0000
  H   H1130     1.0  0.92393  0.70591  0.81161  1.0000
  C   C1138     1.0  0.77532  0.95325  0.73960  1.0000
  C   C1139     1.0  0.88582  0.73347  0.85424  1.0000
  H   H1131     1.0  0.87497  0.74132  0.86606  1.0000
  H   H1132     1.0  0.83847  0.61724  0.54229  1.0000
  H   H1133     1.0  0.75196  0.81973  0.80249  1.0000
  H   H1134     1.0  0.89852  0.76316  0.84035  1.0000
  H   H1135     1.0  0.80331  0.93261  0.78126  1.0000
  C   C1140     1.0  0.81805  0.69858  0.70843  1.0000
  H   H1136     1.0  0.80488  0.69654  0.72069  1.0000
  C   C1141     1.0  0.79585  0.93355  0.76612  1.0000
  C   C1142     1.0  0.91907  0.59048  0.68179  1.0000
  C   C1143     1.0  0.81909  0.54949  0.55817  1.0000
  H   H1137     1.0  0.98665  0.51492  0.62905  1.0000
  C   C1144     1.0  0.76482  0.78255  0.82221  1.0000
  H   H1138     1.0  0.98222  0.54695  0.65170  1.0000
  C   C1145     1.0  0.81433  0.54750  0.53692  1.0000
  H   H1139     1.0  0.90769  0.50443  0.58261  1.0000
  H   H1140     1.0  0.80438  0.90072  0.75947  1.0000
  C   C1146     1.0  0.77177  0.76112  0.82583  1.0000
  C   C1147     1.0  0.90736  0.49969  0.61742  1.0000
  H   H1141     1.0  0.76657  0.96784  0.73444  1.0000
  H   H1142     1.0  0.81790  0.76232  0.79337  1.0000
  C   C1148     1.0  0.86929  0.58177  0.50411  1.0000
  Fe  Fe192     1.0  0.75665  0.86964  0.75404  1.0000
  H   H1143     1.0  0.92178  0.49941  0.65952  1.0000
  C   C1149     1.0  0.99183  0.72015  0.78987  1.0000
  C   C1150     1.0  0.99188  0.59377  0.62221  1.0000
  H   H1144     1.0  0.90626  0.51669  0.61971  1.0000
  S   S384      1.0  0.75278  0.89125  0.78156  1.0000
  H   H1145     1.0  0.76798  0.95147  0.69789  1.0000
  H   H1146     1.0  0.85375  0.51360  0.64725  1.0000
  H   H1147     1.0  0.81177  0.56388  0.50540  1.0000
  C   C1151     1.0  0.85404  0.50029  0.63709  1.0000
  H   H1148     1.0  0.96163  0.60153  0.50277  1.0000
  H   H1149     1.0  0.74984  0.78811  0.83022  1.0000
  C   C1152     1.0  0.85126  0.50404  0.61502  1.0000
  H   H1150     1.0  0.89372  0.50594  0.65853  1.0000
  H   H1151     1.0  0.75048  0.99011  0.80734  1.0000
  H   H1152     1.0  0.74718  0.93652  0.71270  1.0000
