data_image0
_chemical_formula_structural       FeS2FeS2FeS2FeSFeS3FeS2FeS2FeS2FeSFeS3C2H3C2H3C6H5NC6H4CHC2H2SC4HC6H4CH2CHNCH3CH3C3HC2NC2HC3H2CNCH2FeC2H2C2H3C3H4CHC2H2CH4CN2C3H2CH4C2HCH3SH3NC5HCH2CSH2FeCHSCH2CHCFeS2FeS2FeSFeS3H2FeSHFeS2FeS2FeS2FeSFeS3FeS2CHC2H2SNCH4CSCSHC6H6CFeHC7H4C4HC6H4NHC2HCH2C5H2C2FeC2HCHNH6CHCNCH3C3HC2NHNH4FeC3HCHC5H3CHSCH3CSH4CH3CNCHFeS2FeS2FeS2FeSFeS3FeS2FeS2FeS2FeSFeS3HC4H2C7H5C8H4C4HC2H3C6H8CHCH2NH3CNC2H3C2H6C2NCHCH5C3H3CH5C2NHCNC4HCH4C2H2NC2H3C2HC2H2SH4CHCHC3H2C3SCH3C2FeS2FeS2FeS2FeSFeS3HC3HFe2S2FeS2FeS2FeSFeS3C2H4CH3C6H8CH2C6H5CHCHSHC4HC6H6CH2C2H4CH3C5H3CNH2C3HCHC3SNH2NHCHCHNCSC2FeNC3H2C2H6CSCHC2HC2HFeS2FeS2FeS2FeSFeS3FeS2FeS2FeS2FeSFeS3CHCH2C2H2C7H4FeHNHC6H4C3H2CHC7H5C2NC6H6CHCH3CHCH7CNC6H8CHCSH2CH2NC6H5CH2CNC2HCHNH3C4H3CHCHCH2C2SC5FeS2FeS2FeSFeS3FeS2CH3FeS2FeS2FeSFeS3C2H2CHFeS2HCH2FeNHC7H5C3H3NCH4CHCHC6H4C6H4C3H2NC2H4CSHC6H2CH3C2NCSHCHCH2C2H4CH2CSH2FeH3CHC3H2CHNCNSHCH2C2H3C2H3C2H2C2HC3HC6FeS2H2FeS2FeS2FeSFeS3FeS2FeS2FeS2FeSFeS3C2HCNHC5NH2C6H5CH3C6H4C3HC3SHC7H8CHCHC3NHCNC6HCH6CH2NCHCH2CSCH4C2H2CH8C2HCHC2H2C3H3CHCNH2SC2FeC2HCHSCFe2C2HFeS2FeS2FeS2FeSFeS3HC4Fe2S2FeS2FeS2FeSFeS3C3H3CHC6H5SC3H2C6H4CS2CHCH2C6H5C2HN2C6H9C2NCHCH4CH4C3HSHC4HNC5HNCHCSHC2H3CH8CH2C3HFeHC2HCSHC3H4FeS2FeS2FeS2FeSFeS3FeS2HFeS2FeS2FeSFeS3C3H2SC2H2C6H4C6H4CH4C5H3C6H4C3H2SNSH3C2HC3HCHCNHCH3CH4CH2C2H3CH6C2NCNC6H9C2H2NHC5NCH2CHC4HCHCHC2H2CFeSHC2FeCHFeS2FeS2FeSFeS3FeS2H3C3FeS2FeS2FeSFeS3FeS2HCHC3H2SH2CHCH2CHNC6H5CHCHC7H4C6H4C2SHCHCH2CHC4NCN2FeHCH6CHC2HCNC6H8NC6H8CHC3H2C3H3CHC3H2CHC3HC2HCH2SH5C3FeCH2CFeS2HFeC2H2CFeS2FeS2FeS2FeSFeS3FeS2FeS2FeS2FeSFeS3CH2C3H3C7H7C6H4CH3SHC3HC7H4CHC2NC6H9NCHCH2SH5CH2NC5H7NHCSC2HNCH2C2H2CHC4H2C2HCH3C2HC3HC2HNC2HCH2CFeS2FeS2FeS2FeSFeS3FeS2NCHC2FeS2FeS2FeSFeS3CHC3H2C7H5C2H3C7H4C3H2CHC2HSC7H4CHCSCH2CH4CH2CH3CN2C6H8NC6H9SH3C2HC4HNC5H4FeH3CH2CFeCHC3SH3FeS2FeS2FeS2FeSFeS3H2SFeS2FeS2FeS2FeSFeS3CNH4C2NC9H5CHCSC8H4CH2CH2C7H4C3HCNC6H9C3HCNC3HC2HNC2H4SH2CHCNH4FeH2CNC2H3C2H2CH2CH4CH5CHCHFeH2SC2FeS2FeS2FeSFeS3HCH2NHFeS2FeS2FeS2FeSFeS3FeS3H2CNCHCH2CH2C2HC6H4CHC2H5CH2C7H4CH2CHC2H3C6H3C2H2C2HC2FeHCH4CSC2HC2HFeHC2H2CNC4HNCNH2C3H6SCHC2SCHCH2CSCHFeC2HC3H2FeS2HFeS2FeS2FeS2FeSFeS3FeS2FeS2FeS2FeSFeS3CHCHCHC2NH3C6H4CH4C6H4C2NH3C3HC6H4C4HC2HC2H2NHC3H2CH2C4NHCH2NCHNH2CH5C3H2C2H3C2H3CH6C3HSC2H2NCHC2H2C2HC2H3CH4CFeS2FeS2FeS2FeSFeS3HC2FeS2FeS2FeS2FeSFeS3CHCH2CNCH2C6H5CHCHC7H4CHSHC2HC6H6C2H2NHNCH2SH2C5H3C3HCNHC3NCH4CHCNHCH2C2HC2HC2H3C3H2CHC5FeHCSH2CHCFeH5SH2CHC4
_chemical_formula_sum              "Fe192 S384 C1152 H1152 N96"
_cell_length_a       57.6508
_cell_length_b       57.6471
_cell_length_c       74.4712
_cell_angle_alpha    87.7289
_cell_angle_beta     87.794
_cell_angle_gamma    86.0079

_space_group_name_H-M_alt    "P 1"
_space_group_IT_number       1

loop_
  _space_group_symop_operation_xyz
  'x, y, z'

loop_
  _atom_site_type_symbol
  _atom_site_label
  _atom_site_symmetry_multiplicity
  _atom_site_fract_x
  _atom_site_fract_y
  _atom_site_fract_z
  _atom_site_occupancy
  Fe  Fe1       1.0  0.36575  0.11430  0.00697  1.0000
  S   S1        1.0  0.34599  0.13529  0.02905  1.0000
  S   S2        1.0  0.40207  0.09818  0.00995  1.0000
  Fe  Fe2       1.0  0.30175  0.11620  0.13816  1.0000
  S   S3        1.0  0.26939  0.09802  0.14671  1.0000
  S   S4        1.0  0.31918  0.10549  0.11094  1.0000
  Fe  Fe3       1.0  0.30835  0.13108  0.17788  1.0000
  S   S5        1.0  0.27758  0.11208  0.18814  1.0000
  S   S6        1.0  0.32876  0.15485  0.19494  1.0000
  Fe  Fe4       1.0  0.28995  0.08279  0.16996  1.0000
  S   S7        1.0  0.29982  0.04367  0.17534  1.0000
  Fe  Fe5       1.0  0.25975  0.12918  0.16392  1.0000
  S   S8        1.0  0.22375  0.14710  0.17116  1.0000
  S   S9        1.0  0.32227  0.10088  0.16145  1.0000
  S   S10       1.0  0.29056  0.14846  0.15374  1.0000
  Fe  Fe6       1.0  0.10638  0.37173  0.01411  1.0000
  S   S11       1.0  0.12242  0.34942  0.03740  1.0000
  S   S12       1.0  0.09177  0.40889  0.01521  1.0000
  Fe  Fe7       1.0  0.13454  0.26572  0.15688  1.0000
  S   S13       1.0  0.14072  0.30336  0.16166  1.0000
  S   S14       1.0  0.16613  0.24200  0.14714  1.0000
  Fe  Fe8       1.0  0.08068  0.27498  0.16218  1.0000
  S   S15       1.0  0.08435  0.31244  0.16764  1.0000
  S   S16       1.0  0.04573  0.25870  0.15836  1.0000
  Fe  Fe9       1.0  0.11010  0.31242  0.14394  1.0000
  S   S17       1.0  0.10538  0.34300  0.12322  1.0000
  Fe  Fe10      1.0  0.11468  0.30006  0.18487  1.0000
  S   S18       1.0  0.11625  0.31259  0.21394  1.0000
  S   S19       1.0  0.10543  0.27538  0.13785  1.0000
  S   S20       1.0  0.10953  0.26198  0.18072  1.0000
  C   C1        1.0  0.00881  0.28430  0.17587  1.0000
  C   C2        1.0  0.01572  0.26701  0.16370  1.0000
  H   H1        1.0  0.04692  0.36348  0.19485  1.0000
  H   H2        1.0  0.02189  0.29350  0.18213  1.0000
  H   H3        1.0  0.29465  0.11656  0.03355  1.0000
  C   C3        1.0  0.15632  0.33482  0.22201  1.0000
  C   C4        1.0  0.13555  0.32562  0.22837  1.0000
  H   H4        1.0  0.99916  0.33422  0.00362  1.0000
  H   H5        1.0  0.16157  0.33350  0.20798  1.0000
  H   H6        1.0  0.16199  0.41027  0.00734  1.0000
  C   C5        1.0  0.11569  0.34690  0.06105  1.0000
  C   C6        1.0  0.12692  0.32870  0.07133  1.0000
  C   C7        1.0  0.12327  0.32669  0.09020  1.0000
  C   C8        1.0  0.10868  0.34323  0.09920  1.0000
  C   C9        1.0  0.09740  0.36144  0.08892  1.0000
  C   C10       1.0  0.10058  0.36308  0.06997  1.0000
  H   H7        1.0  0.13870  0.31609  0.06465  1.0000
  H   H8        1.0  0.13226  0.31271  0.09783  1.0000
  H   H9        1.0  0.08601  0.37431  0.09565  1.0000
  H   H10       1.0  0.09155  0.37699  0.06231  1.0000
  H   H11       1.0  0.31133  0.06458  0.13483  1.0000
  N   N1        1.0  0.29685  0.10849  0.00566  1.0000
  C   C11       1.0  0.20821  0.17368  0.16425  1.0000
  C   C12       1.0  0.18792  0.18125  0.17413  1.0000
  C   C13       1.0  0.17514  0.20231  0.16943  1.0000
  C   C14       1.0  0.18223  0.21593  0.15450  1.0000
  C   C15       1.0  0.20245  0.20831  0.14457  1.0000
  C   C16       1.0  0.21546  0.18746  0.14946  1.0000
  H   H12       1.0  0.18209  0.17077  0.18558  1.0000
  H   H13       1.0  0.15968  0.20785  0.17726  1.0000
  H   H14       1.0  0.20810  0.21859  0.13295  1.0000
  H   H15       1.0  0.23096  0.18192  0.14168  1.0000
  C   C17       1.0  0.33368  0.15701  0.21847  1.0000
  H   H16       1.0  0.13146  0.36404  0.14960  1.0000
  C   C18       1.0  0.29748  0.10137  0.02478  1.0000
  C   C19       1.0  0.26832  0.21189  0.17272  1.0000
  H   H17       1.0  0.31396  0.12826  0.22773  1.0000
  H   H18       1.0  0.08232  0.35591  0.21292  1.0000
  S   S21       1.0  0.02747  0.41259  0.99999  1.0000
  C   C20       1.0  0.28743  0.01615  0.17483  1.0000
  C   C21       1.0  0.26343  0.01395  0.17452  1.0000
  C   C22       1.0  0.28532  0.03061  0.13091  1.0000
  C   C23       1.0  0.11571  0.44509  0.05451  1.0000
  H   H19       1.0  0.25163  0.02938  0.17481  1.0000
  C   C24       1.0  0.33849  0.12659  0.05174  1.0000
  C   C25       1.0  0.32647  0.14281  0.06301  1.0000
  C   C26       1.0  0.32037  0.13677  0.08110  1.0000
  C   C27       1.0  0.32623  0.11437  0.08820  1.0000
  C   C28       1.0  0.33821  0.09816  0.07688  1.0000
  C   C29       1.0  0.34429  0.10417  0.05880  1.0000
  H   H20       1.0  0.32188  0.16022  0.05777  1.0000
  H   H21       1.0  0.31119  0.14947  0.08956  1.0000
  H   H22       1.0  0.34288  0.08078  0.08216  1.0000
  H   H23       1.0  0.35351  0.09142  0.05040  1.0000
  C   C30       1.0  0.27235  0.01103  0.13029  1.0000
  H   H24       1.0  0.00325  0.24166  0.14654  1.0000
  H   H25       1.0  0.05996  0.22820  0.12842  1.0000
  C   C31       1.0  0.22976  0.21677  0.18637  1.0000
  H   H26       1.0  0.29020  0.18367  0.18372  1.0000
  N   N2        1.0  0.30912  0.02822  0.13085  1.0000
  C   C32       1.0  0.32055  0.00669  0.12984  1.0000
  H   H27       1.0  0.18624  0.35301  0.22868  1.0000
  H   H28       1.0  0.27624  0.04764  0.13203  1.0000
  H   H29       1.0  0.22172  0.19140  0.20717  1.0000
  C   C33       1.0  0.12721  0.45526  0.03969  1.0000
  H   H30       1.0  0.09051  0.37716  0.14814  1.0000
  H   H31       1.0  0.13442  0.21477  0.09885  1.0000
  H   H32       1.0  0.24996  0.15160  0.20590  1.0000
  C   C34       1.0  0.39851  0.13402  0.05271  1.0000
  C   C35       1.0  0.45269  0.14389  0.02491  1.0000
  C   C36       1.0  0.07722  0.22124  0.13205  1.0000
  H   H33       1.0  0.15165  0.44952  0.01760  1.0000
  C   C37       1.0  0.06405  0.36533  0.18862  1.0000
  C   C38       1.0  0.01180  0.36859  0.00291  1.0000
  N   N3        1.0  0.11820  0.21571  0.12504  1.0000
  C   C39       1.0  0.09633  0.22361  0.12015  1.0000
  C   C40       1.0  0.12165  0.20542  0.14169  1.0000
  H   H34       1.0  0.28378  0.08924  0.02849  1.0000
  C   C41       1.0  0.10295  0.20298  0.15400  1.0000
  C   C42       1.0  0.14285  0.44149  0.02914  1.0000
  C   C43       1.0  0.13808  0.21965  0.11268  1.0000
  H   H35       1.0  0.44444  0.12475  0.04935  1.0000
  H   H36       1.0  0.24223  0.23837  0.16433  1.0000
  C   C44       1.0  0.17033  0.34590  0.23385  1.0000
  N   N4        1.0  0.14662  0.41818  0.03305  1.0000
  C   C45       1.0  0.30120  0.13078  0.00022  1.0000
  H   H37       1.0  0.15836  0.38549  0.02219  1.0000
  H   H38       1.0  0.09279  0.46345  0.00652  1.0000
  Fe  Fe11      1.0  0.38901  0.06809  0.99601  1.0000
  C   C46       1.0  0.08061  0.21098  0.14911  1.0000
  C   C47       1.0  0.40535  0.15615  0.02442  1.0000
  H   H39       1.0  0.23600  0.99025  0.17421  1.0000
  H   H40       1.0  0.13898  0.19942  0.14567  1.0000
  C   C48       1.0  0.16283  0.40401  0.02166  1.0000
  C   C49       1.0  0.00607  0.39243  0.00038  1.0000
  H   H41       1.0  0.39191  0.11738  0.04875  1.0000
  H   H42       1.0  0.15411  0.20932  0.11694  1.0000
  H   H43       1.0  0.30445  0.14352  0.01001  1.0000
  C   C50       1.0  0.30241  0.99574  0.17465  1.0000
  C   C51       1.0  0.10205  0.47830  0.00173  1.0000
  C   C52       1.0  0.23509  0.19745  0.19782  1.0000
  H   H44       1.0  0.40737  0.13108  0.06567  1.0000
  H   H45       1.0  0.12382  0.47362  0.03619  1.0000
  H   H46       1.0  0.32100  0.99718  0.17495  1.0000
  H   H47       1.0  0.06598  0.20988  0.15868  1.0000
  C   C53       1.0  0.38095  0.01072  0.00121  1.0000
  H   H48       1.0  0.09367  0.23246  0.10719  1.0000
  C   C54       1.0  0.29348  0.09228  0.99325  1.0000
  C   C55       1.0  0.32263  0.04873  0.13180  1.0000
  H   H49       1.0  0.18086  0.40488  0.02617  1.0000
  H   H50       1.0  0.38679  0.16059  0.02388  1.0000
  C   C56       1.0  0.42000  0.16390  0.01035  1.0000
  H   H51       1.0  0.45530  0.16337  0.99969  1.0000
  H   H52       1.0  0.10585  0.19539  0.16736  1.0000
  H   H53       1.0  0.14185  0.23833  0.11256  1.0000
  H   H54       1.0  0.47110  0.13843  0.02487  1.0000
  C   C57       1.0  0.13606  0.40823  0.04792  1.0000
  N   N5        1.0  0.41424  0.14275  0.03846  1.0000
  N   N6        1.0  0.25659  0.18585  0.19686  1.0000
  C   C58       1.0  0.34733  0.17461  0.22404  1.0000
  C   C59       1.0  0.26147  0.16554  0.20893  1.0000
  C   C60       1.0  0.13134  0.36920  0.16385  1.0000
  H   H55       1.0  0.21253  0.22565  0.18692  1.0000
  H   H56       1.0  0.10325  0.45550  0.06262  1.0000
  C   C61       1.0  0.25462  0.99168  0.17417  1.0000
  H   H57       1.0  0.28139  0.21706  0.16277  1.0000
  H   H58       1.0  0.12112  0.35920  0.19840  1.0000
  H   H59       1.0  0.14421  0.35695  0.17072  1.0000
  H   H60       1.0  0.33940  0.00485  0.12991  1.0000
  C   C62       1.0  0.24645  0.22387  0.17365  1.0000
  C   C63       1.0  0.32439  0.14196  0.23166  1.0000
  H   H61       1.0  0.33509  0.04628  0.14285  1.0000
  C   C64       1.0  0.27317  0.19289  0.18457  1.0000
  H   H62       1.0  0.13951  0.38986  0.05131  1.0000
  H   H63       1.0  0.05124  0.37435  0.16222  1.0000
  H   H64       1.0  0.13700  0.38716  0.16428  1.0000
  S   S22       1.0  0.39972  0.03201  0.00631  1.0000
  H   H65       1.0  0.27982  0.15834  0.20739  1.0000
  H   H66       1.0  0.35472  0.18633  0.21403  1.0000
  H   H67       1.0  0.25846  0.17030  0.22316  1.0000
  N   N7        1.0  0.10809  0.36797  0.17238  1.0000
  C   C65       1.0  0.08877  0.37280  0.16242  1.0000
  C   C66       1.0  0.10585  0.36280  0.19042  1.0000
  C   C67       1.0  0.06647  0.37140  0.17034  1.0000
  C   C68       1.0  0.08384  0.36116  0.19877  1.0000
  C   C69       1.0  0.12032  0.42147  0.05880  1.0000
  H   H68       1.0  0.33212  0.05213  0.11880  1.0000
  C   C70       1.0  0.99826  0.25514  0.15590  1.0000
  H   H69       1.0  0.38333  0.14665  0.05512  1.0000
  H   H70       1.0  0.41291  0.17390  0.99894  1.0000
  C   C71       1.0  0.44383  0.15794  0.01076  1.0000
  S   S23       1.0  0.07747  0.36017  0.99782  1.0000
  H   H71       1.0  0.02939  0.36239  0.00571  1.0000
  H   H72       1.0  0.11163  0.41335  0.07034  1.0000
  Fe  Fe12      1.0  0.06452  0.39779  0.99717  1.0000
  C   C72       1.0  0.43752  0.13621  0.03865  1.0000
  H   H73       1.0  0.31481  0.09263  0.02769  1.0000
  S   S24       1.0  0.35223  0.08312  0.99483  1.0000
  C   C73       1.0  0.99462  0.35268  0.00187  1.0000
  H   H74       1.0  0.45874  0.09634  0.00202  1.0000
  H   H75       1.0  0.29097  0.07437  0.99747  1.0000
  C   C74       1.0  0.47375  0.10423  0.99594  1.0000
  H   H76       1.0  0.25349  0.01291  0.13104  1.0000
  C   C75       1.0  0.28386  0.98897  0.12952  1.0000
  Fe  Fe13      1.0  0.36585  0.18588  0.29908  1.0000
  S   S25       1.0  0.38562  0.21809  0.29458  1.0000
  S   S26       1.0  0.34817  0.16352  0.27910  1.0000
  Fe  Fe14      1.0  0.36973  0.18766  0.34095  1.0000
  S   S27       1.0  0.38862  0.22075  0.33880  1.0000
  S   S28       1.0  0.36436  0.16194  0.36499  1.0000
  Fe  Fe15      1.0  0.36250  0.23260  0.31751  1.0000
  S   S29       1.0  0.34428  0.26861  0.31053  1.0000
  Fe  Fe16      1.0  0.41017  0.20395  0.31615  1.0000
  S   S30       1.0  0.45013  0.19543  0.31690  1.0000
  S   S31       1.0  0.34230  0.20065  0.32133  1.0000
  S   S32       1.0  0.39172  0.17062  0.31894  1.0000
  H   H77       1.0  0.18891  0.48044  0.28080  1.0000
  H   H78       1.0  0.24005  0.43232  0.25687  1.0000
  Fe  Fe17      1.0  0.42191  0.09412  0.48243  1.0000
  S   S33       1.0  0.45809  0.07833  0.47718  1.0000
  H   H79       1.0  0.30961  0.19434  0.28558  1.0000
  Fe  Fe18      1.0  0.38139  0.12680  0.47070  1.0000
  S   S34       1.0  0.37372  0.15751  0.45074  1.0000
  S   S35       1.0  0.39420  0.09088  0.46264  1.0000
  Fe  Fe19      1.0  0.22530  0.35729  0.32501  1.0000
  S   S36       1.0  0.19122  0.34241  0.31974  1.0000
  S   S37       1.0  0.25181  0.32916  0.33649  1.0000
  Fe  Fe20      1.0  0.20352  0.40831  0.31944  1.0000
  S   S38       1.0  0.16863  0.39512  0.31388  1.0000
  S   S39       1.0  0.19872  0.44844  0.32048  1.0000
  Fe  Fe21      1.0  0.17503  0.37040  0.33769  1.0000
  S   S40       1.0  0.14812  0.36229  0.36027  1.0000
  Fe  Fe22      1.0  0.18803  0.36850  0.29649  1.0000
  S   S41       1.0  0.18240  0.36258  0.26639  1.0000
  S   S42       1.0  0.20893  0.38425  0.34393  1.0000
  S   S43       1.0  0.22301  0.38268  0.30096  1.0000
  Fe  Fe23      1.0  0.11524  0.38924  0.46591  1.0000
  S   S44       1.0  0.07842  0.40432  0.46461  1.0000
  S   S45       1.0  0.14200  0.39328  0.44234  1.0000
  C   C76       1.0  0.39465  0.02208  0.44915  1.0000
  H   H80       1.0  0.33589  0.00137  0.47692  1.0000
  C   C77       1.0  0.17946  0.33478  0.40776  1.0000
  C   C78       1.0  0.01571  0.42627  0.47631  1.0000
  H   H81       1.0  0.40769  0.13356  0.35177  1.0000
  H   H82       1.0  0.16016  0.44627  0.48037  1.0000
  S   S46       1.0  0.03596  0.35748  0.47551  1.0000
  N   N8        1.0  0.42306  0.15353  0.37097  1.0000
  C   C79       1.0  0.21616  0.45854  0.26848  1.0000
  H   H83       1.0  0.16255  0.43142  0.45941  1.0000
  H   H84       1.0  0.20375  0.47582  0.35959  1.0000
  H   H85       1.0  0.22850  0.47197  0.26777  1.0000
  H   H86       1.0  0.13828  0.33952  0.27273  1.0000
  C   C80       1.0  0.32899  0.14433  0.25003  1.0000
  S   S47       1.0  0.41100  0.13086  0.48912  1.0000
  C   C81       1.0  0.47967  0.09822  0.47790  1.0000
  S   S48       1.0  0.12242  0.40936  0.49033  1.0000
  H   H87       1.0  0.24504  0.46349  0.30866  1.0000
  C   C82       1.0  0.14566  0.37268  0.38264  1.0000
  C   C83       1.0  0.12769  0.36522  0.39440  1.0000
  C   C84       1.0  0.12590  0.37177  0.41254  1.0000
  C   C85       1.0  0.14218  0.38583  0.41924  1.0000
  C   C86       1.0  0.15996  0.39355  0.40741  1.0000
  C   C87       1.0  0.16168  0.38710  0.38925  1.0000
  H   H88       1.0  0.11515  0.35410  0.38949  1.0000
  H   H89       1.0  0.11213  0.36563  0.42139  1.0000
  H   H90       1.0  0.17268  0.40442  0.41237  1.0000
  H   H91       1.0  0.17562  0.39298  0.38045  1.0000
  H   H92       1.0  0.43065  0.16740  0.34463  1.0000
  H   H93       1.0  0.34200  0.21317  0.27257  1.0000
  C   C88       1.0  0.19228  0.31165  0.36199  1.0000
  Fe  Fe24      1.0  0.06846  0.37469  0.48318  1.0000
  H   H94       1.0  0.45621  0.12869  0.47493  1.0000
  C   C89       1.0  0.21614  0.34826  0.39652  1.0000
  C   C90       1.0  0.31835  0.28493  0.31801  1.0000
  C   C91       1.0  0.30517  0.27841  0.33334  1.0000
  C   C92       1.0  0.28487  0.29206  0.33865  1.0000
  C   C93       1.0  0.27708  0.31214  0.32856  1.0000
  C   C94       1.0  0.28996  0.31833  0.31299  1.0000
  C   C95       1.0  0.31053  0.30499  0.30790  1.0000
  H   H95       1.0  0.31083  0.26310  0.34129  1.0000
  H   H96       1.0  0.27522  0.28707  0.35076  1.0000
  H   H97       1.0  0.28442  0.33376  0.30512  1.0000
  H   H98       1.0  0.32054  0.31032  0.29605  1.0000
  C   C96       1.0  0.47794  0.20766  0.31647  1.0000
  C   C97       1.0  0.19886  0.34734  0.41014  1.0000
  C   C98       1.0  0.14347  0.33830  0.25867  1.0000
  C   C99       1.0  0.20660  0.41924  0.26367  1.0000
  H   H99       1.0  0.46558  0.24312  0.31063  1.0000
  C   C100      1.0  0.36653  0.16146  0.38886  1.0000
  C   C101      1.0  0.36908  0.18151  0.39841  1.0000
  C   C102      1.0  0.37124  0.17995  0.41729  1.0000
  C   C103      1.0  0.37126  0.15835  0.42687  1.0000
  C   C104      1.0  0.36896  0.13830  0.41728  1.0000
  C   C105      1.0  0.36634  0.13991  0.39847  1.0000
  H   H100      1.0  0.36917  0.19823  0.39129  1.0000
  H   H101      1.0  0.37281  0.19563  0.42454  1.0000
  H   H102      1.0  0.36868  0.12160  0.42441  1.0000
  H   H103      1.0  0.36414  0.12430  0.39130  1.0000
  N   N9        1.0  0.31072  0.23122  0.28240  1.0000
  H   H104      1.0  0.25608  0.23491  0.31416  1.0000
  C   C106      1.0  0.34288  0.16174  0.25559  1.0000
  C   C107      1.0  0.12927  0.32755  0.24678  1.0000
  H   H105      1.0  0.17218  0.41096  0.27240  1.0000
  C   C108      1.0  0.35231  0.99803  0.48343  1.0000
  H   H106      1.0  0.15696  0.45950  0.29908  1.0000
  H   H107      1.0  0.43969  0.20579  0.35501  1.0000
  C   C109      1.0  0.28022  0.25410  0.29773  1.0000
  C   C110      1.0  0.28172  0.21220  0.30048  1.0000
  C   C111      1.0  0.19373  0.46324  0.27587  1.0000
  C   C112      1.0  0.43339  0.19650  0.38308  1.0000
  C   C113      1.0  0.48071  0.23138  0.31302  1.0000
  H   H108      1.0  0.27235  0.27104  0.30130  1.0000
  H   H109      1.0  0.43679  0.21349  0.38774  1.0000
  C   C114      1.0  0.41739  0.13102  0.36443  1.0000
  C   C115      1.0  0.43489  0.19226  0.36474  1.0000
  Fe  Fe25      1.0  0.08465  0.42182  0.49008  1.0000
  C   C116      1.0  0.10467  0.47130  0.44868  1.0000
  C   C117      1.0  0.12340  0.45619  0.45397  1.0000
  H   H110      1.0  0.40565  0.12202  0.37417  1.0000
  C   C118      1.0  0.15525  0.45148  0.28589  1.0000
  H   H111      1.0  0.41713  0.14378  0.39864  1.0000
  N   N10       1.0  0.17836  0.44617  0.27754  1.0000
  H   H112      1.0  0.42565  0.18197  0.40964  1.0000
  H   H113      1.0  0.43354  0.11984  0.36191  1.0000
  H   H114      1.0  0.23116  0.35824  0.39808  1.0000
  H   H115      1.0  0.17639  0.31870  0.35508  1.0000
  H   H116      1.0  0.20013  0.35682  0.42233  1.0000
  H   H117      1.0  0.08834  0.46442  0.44550  1.0000
  C   C119      1.0  0.23328  0.47877  0.31034  1.0000
  H   H118      1.0  0.36412  0.01067  0.43712  1.0000
  C   C120      1.0  0.17756  0.32336  0.39171  1.0000
  N   N11       1.0  0.19469  0.32414  0.37851  1.0000
  C   C121      1.0  0.47381  0.12217  0.47735  1.0000
  H   H119      1.0  0.22726  0.33734  0.37016  1.0000
  H   H120      1.0  0.12138  0.43761  0.45458  1.0000
  H   H121      1.0  0.16555  0.33464  0.41801  1.0000
  C   C122      1.0  0.42969  0.17052  0.35891  1.0000
  C   C123      1.0  0.21379  0.33644  0.38070  1.0000
  C   C124      1.0  0.42727  0.17883  0.39535  1.0000
  H   H122      1.0  0.48612  0.15632  0.47996  1.0000
  C   C125      1.0  0.21008  0.47619  0.31581  1.0000
  C   C126      1.0  0.42238  0.15723  0.38903  1.0000
  N   N12       1.0  0.14380  0.46472  0.45868  1.0000
  H   H123      1.0  0.16199  0.31441  0.38964  1.0000
  N   N13       1.0  0.41505  0.01549  0.45732  1.0000
  H   H124      1.0  0.19090  0.29283  0.36520  1.0000
  H   H125      1.0  0.32193  0.13234  0.26001  1.0000
  H   H126      1.0  0.20744  0.31346  0.35245  1.0000
  H   H127      1.0  0.14477  0.46367  0.27700  1.0000
  Fe  Fe26      1.0  0.37333  0.07802  0.48667  1.0000
  C   C127      1.0  0.42910  0.03340  0.46389  1.0000
  C   C128      1.0  0.33170  0.23004  0.27063  1.0000
  C   C129      1.0  0.22263  0.43633  0.26242  1.0000
  H   H128      1.0  0.21140  0.40184  0.25906  1.0000
  C   C130      1.0  0.16412  0.34769  0.25229  1.0000
  H   H129      1.0  0.14571  0.43552  0.28861  1.0000
  C   C131      1.0  0.42166  0.99241  0.46020  1.0000
  C   C132      1.0  0.36449  0.01686  0.48862  1.0000
  C   C133      1.0  0.18440  0.42449  0.27130  1.0000
  C   C134      1.0  0.30146  0.21122  0.28893  1.0000
  C   C135      1.0  0.30010  0.25245  0.28634  1.0000
  H   H130      1.0  0.30749  0.26831  0.28120  1.0000
  H   H131      1.0  0.38886  0.04036  0.44765  1.0000
  H   H132      1.0  0.34328  0.24389  0.27378  1.0000
  C   C136      1.0  0.27115  0.23382  0.30498  1.0000
  H   H133      1.0  0.44700  0.02645  0.46708  1.0000
  S   S49       1.0  0.35299  0.04581  0.48397  1.0000
  C   C137      1.0  0.16255  0.44871  0.46555  1.0000
  H   H134      1.0  0.27493  0.19627  0.30607  1.0000
  H   H135      1.0  0.32689  0.23202  0.25634  1.0000
  H   H136      1.0  0.11328  0.32058  0.25194  1.0000
  C   C138      1.0  0.38056  0.00535  0.44319  1.0000
  S   S50       1.0  0.10526  0.35796  0.48299  1.0000
  H   H137      1.0  0.43092  0.04774  0.45360  1.0000
  H   H138      1.0  0.02031  0.40710  0.45196  1.0000
  H   H139      1.0  0.03421  0.42579  0.47847  1.0000
  H   H140      1.0  0.17986  0.45550  0.46240  1.0000
  C   C139      1.0  0.00793  0.41597  0.46116  1.0000
  H   H141      1.0  0.42075  0.04084  0.47625  1.0000
  H   H142      1.0  0.36281  0.19033  0.24629  1.0000
  H   H143      1.0  0.99149  0.34856  0.46193  1.0000
  C   C140      1.0  0.00707  0.36522  0.48344  1.0000
  N   N14       1.0  0.00017  0.43593  0.48869  1.0000
  C   C141      1.0  0.35192  0.17699  0.24241  1.0000
  H   H144      1.0  0.45111  0.15655  0.50709  1.0000
  Fe  Fe27      1.0  0.38884  0.11569  0.51152  1.0000
  S   S51       1.0  0.39537  0.12414  0.54084  1.0000
  S   S52       1.0  0.40205  0.07882  0.50583  1.0000
  Fe  Fe28      1.0  0.36486  0.19561  0.63298  1.0000
  S   S53       1.0  0.38597  0.22618  0.63777  1.0000
  S   S54       1.0  0.35388  0.18962  0.60412  1.0000
  Fe  Fe29      1.0  0.35717  0.18581  0.67438  1.0000
  S   S55       1.0  0.37853  0.21531  0.68120  1.0000
  S   S56       1.0  0.33488  0.16393  0.69407  1.0000
  Fe  Fe30      1.0  0.35864  0.23572  0.65937  1.0000
  S   S57       1.0  0.34207  0.27255  0.66414  1.0000
  Fe  Fe31      1.0  0.40392  0.20305  0.65898  1.0000
  S   S58       1.0  0.44377  0.19423  0.65845  1.0000
  S   S59       1.0  0.33663  0.20682  0.65341  1.0000
  S   S60       1.0  0.38348  0.17198  0.65335  1.0000
  Fe  Fe32      1.0  0.11008  0.37930  0.50747  1.0000
  S   S61       1.0  0.07244  0.39326  0.50873  1.0000
  S   S62       1.0  0.13093  0.36298  0.53127  1.0000
  Fe  Fe33      1.0  0.17602  0.38143  0.63471  1.0000
  S   S63       1.0  0.21459  0.38603  0.63472  1.0000
  S   S64       1.0  0.15195  0.39195  0.61112  1.0000
  Fe  Fe34      1.0  0.17425  0.36930  0.67622  1.0000
  S   S65       1.0  0.21257  0.37361  0.67847  1.0000
  S   S66       1.0  0.14725  0.36242  0.69921  1.0000
  Fe  Fe35      1.0  0.20672  0.40588  0.66014  1.0000
  S   S67       1.0  0.22279  0.44040  0.66593  1.0000
  Fe  Fe36      1.0  0.21728  0.35347  0.65293  1.0000
  S   S68       1.0  0.24072  0.31996  0.64754  1.0000
  S   S69       1.0  0.16829  0.40262  0.65946  1.0000
  S   S70       1.0  0.17879  0.34792  0.65145  1.0000
  H   H145      1.0  0.43571  0.14950  0.52798  1.0000
  C   C142      1.0  0.29161  0.21561  0.69834  1.0000
  C   C143      1.0  0.09946  0.36459  0.60338  1.0000
  C   C144      1.0  0.16831  0.33795  0.72834  1.0000
  C   C145      1.0  0.14782  0.34802  0.72100  1.0000
  H   H146      1.0  0.09818  0.32832  0.54681  1.0000
  H   H147      1.0  0.18450  0.33821  0.72052  1.0000
  C   C146      1.0  0.16488  0.40354  0.72376  1.0000
  C   C147      1.0  0.13901  0.37324  0.55241  1.0000
  C   C148      1.0  0.12857  0.39353  0.55979  1.0000
  C   C149      1.0  0.13353  0.39942  0.57745  1.0000
  C   C150      1.0  0.14913  0.38530  0.58801  1.0000
  C   C151      1.0  0.16026  0.36549  0.58036  1.0000
  C   C152      1.0  0.15513  0.35948  0.56276  1.0000
  H   H148      1.0  0.11617  0.40437  0.55210  1.0000
  H   H149      1.0  0.12481  0.41481  0.58313  1.0000
  H   H150      1.0  0.17230  0.35442  0.58820  1.0000
  H   H151      1.0  0.16349  0.34383  0.55722  1.0000
  H   H152      1.0  0.37410  0.04499  0.54457  1.0000
  C   C153      1.0  0.47240  0.22690  0.67138  1.0000
  C   C154      1.0  0.29702  0.25606  0.69869  1.0000
  C   C155      1.0  0.31325  0.28482  0.66048  1.0000
  C   C156      1.0  0.30707  0.30774  0.66566  1.0000
  C   C157      1.0  0.28484  0.31863  0.66226  1.0000
  C   C158      1.0  0.26845  0.30676  0.65350  1.0000
  C   C159      1.0  0.27448  0.28367  0.64865  1.0000
  C   C160      1.0  0.29664  0.27271  0.65217  1.0000
  H   H153      1.0  0.31970  0.31732  0.67215  1.0000
  H   H154      1.0  0.28056  0.33638  0.66609  1.0000
  H   H155      1.0  0.26194  0.27422  0.64197  1.0000
  H   H156      1.0  0.30096  0.25503  0.64821  1.0000
  C   C161      1.0  0.14198  0.42684  0.70173  1.0000
  C   C162      1.0  0.47067  0.20459  0.66497  1.0000
  C   C163      1.0  0.39460  0.98914  0.50012  1.0000
  C   C164      1.0  0.08952  0.35545  0.57339  1.0000
  H   H157      1.0  0.45679  0.23812  0.67354  1.0000
  C   C165      1.0  0.33148  0.15993  0.71800  1.0000
  C   C166      1.0  0.31389  0.14607  0.72517  1.0000
  H   H158      1.0  0.47495  0.17404  0.62688  1.0000
  H   H159      1.0  0.30295  0.13794  0.71611  1.0000
  H   H160      1.0  0.35924  0.18069  0.72482  1.0000
  C   C167      1.0  0.38369  0.14294  0.55804  1.0000
  C   C168      1.0  0.39404  0.14159  0.57493  1.0000
  C   C169      1.0  0.38533  0.15572  0.58911  1.0000
  C   C170      1.0  0.36597  0.17144  0.58665  1.0000
  C   C171      1.0  0.35562  0.17279  0.56975  1.0000
  C   C172      1.0  0.36441  0.15873  0.55553  1.0000
  H   H161      1.0  0.40890  0.12943  0.57713  1.0000
  H   H162      1.0  0.39347  0.15433  0.60199  1.0000
  H   H163      1.0  0.34068  0.18486  0.56762  1.0000
  H   H164      1.0  0.35623  0.16014  0.54267  1.0000
  H   H165      1.0  0.25673  0.46957  0.67699  1.0000
  H   H166      1.0  0.29794  0.19765  0.70090  1.0000
  H   H167      1.0  0.32508  0.32408  0.60726  1.0000
  H   H168      1.0  0.09854  0.37639  0.61444  1.0000
  C   C173      1.0  0.33483  0.25076  0.61088  1.0000
  H   H169      1.0  0.22320  0.39795  0.72968  1.0000
  C   C174      1.0  0.34549  0.17018  0.72999  1.0000
  H   H170      1.0  0.47813  0.18049  0.60291  1.0000
  H   H171      1.0  0.46017  0.16697  0.52812  1.0000
  N   N15       1.0  0.30523  0.23342  0.70153  1.0000
  H   H172      1.0  0.34041  0.24162  0.70438  1.0000
  H   H173      1.0  0.13203  0.43901  0.71082  1.0000
  H   H174      1.0  0.31342  0.22587  0.60022  1.0000
  C   C175      1.0  0.20590  0.42061  0.70993  1.0000
  N   N16       1.0  0.10429  0.33581  0.57418  1.0000
  C   C176      1.0  0.47443  0.08923  0.52398  1.0000
  C   C177      1.0  0.31883  0.31362  0.61907  1.0000
  H   H175      1.0  0.29261  0.07665  0.51612  1.0000
  H   H176      1.0  0.45647  0.19639  0.61650  1.0000
  H   H177      1.0  0.35179  0.27881  0.62171  1.0000
  C   C178      1.0  0.11650  0.33014  0.58932  1.0000
  C   C179      1.0  0.08684  0.37009  0.58798  1.0000
  H   H178      1.0  0.28215  0.29527  0.60584  1.0000
  H   H179      1.0  0.11099  0.35524  0.72610  1.0000
  H   H180      1.0  0.22183  0.42737  0.70426  1.0000
  H   H181      1.0  0.12610  0.31854  0.55459  1.0000
  H   H182      1.0  0.27929  0.25464  0.59689  1.0000
  H   H183      1.0  0.99535  0.44738  0.51567  1.0000
  C   C180      1.0  0.26095  0.24332  0.68849  1.0000
  C   C181      1.0  0.18447  0.42801  0.70270  1.0000
  N   N17       1.0  0.16437  0.41916  0.70945  1.0000
  C   C182      1.0  0.20664  0.40415  0.72419  1.0000
  H   H184      1.0  0.18413  0.44064  0.69150  1.0000
  C   C183      1.0  0.31438  0.24379  0.60402  1.0000
  H   H185      1.0  0.10071  0.30342  0.56226  1.0000
  H   H186      1.0  0.30789  0.27018  0.70112  1.0000
  H   H187      1.0  0.14892  0.39653  0.72911  1.0000
  H   H188      1.0  0.12491  0.34064  0.61576  1.0000
  H   H189      1.0  0.34969  0.23831  0.61229  1.0000
  C   C184      1.0  0.27474  0.26135  0.69222  1.0000
  C   C185      1.0  0.11434  0.34447  0.60411  1.0000
  C   C186      1.0  0.32823  0.22827  0.70900  1.0000
  H   H190      1.0  0.33097  0.31469  0.63023  1.0000
  H   H191      1.0  0.14430  0.43563  0.68828  1.0000
  H   H192      1.0  0.08038  0.36034  0.56120  1.0000
  C   C187      1.0  0.10737  0.32070  0.55876  1.0000
  H   H193      1.0  0.07582  0.38609  0.58707  1.0000
  H   H194      1.0  0.32677  0.22750  0.72392  1.0000
  H   H195      1.0  0.44123  0.10826  0.52185  1.0000
  H   H196      1.0  0.01687  0.38295  0.50656  1.0000
  H   H197      1.0  0.12862  0.31490  0.58977  1.0000
  C   C188      1.0  0.00255  0.37803  0.49889  1.0000
  C   C189      1.0  0.22164  0.47144  0.66796  1.0000
  N   N18       1.0  0.46868  0.13094  0.52366  1.0000
  H   H198      1.0  0.30164  0.32142  0.62395  1.0000
  C   C190      1.0  0.29533  0.25991  0.60214  1.0000
  N   N19       1.0  0.32733  0.07299  0.52520  1.0000
  C   C191      1.0  0.32716  0.09385  0.53338  1.0000
  C   C192      1.0  0.34393  0.05556  0.52913  1.0000
  C   C193      1.0  0.34362  0.09752  0.54609  1.0000
  C   C194      1.0  0.36078  0.05871  0.54168  1.0000
  H   H199      1.0  0.34442  0.03917  0.52239  1.0000
  C   C195      1.0  0.31027  0.06991  0.51154  1.0000
  H   H200      1.0  0.31443  0.10790  0.52992  1.0000
  H   H201      1.0  0.46736  0.07241  0.52293  1.0000
  H   H202      1.0  0.24381  0.24725  0.68312  1.0000
  H   H203      1.0  0.39494  0.02649  0.50157  1.0000
  C   C196      1.0  0.36055  0.07984  0.55022  1.0000
  C   C197      1.0  0.45318  0.15206  0.52161  1.0000
  H   H204      1.0  0.31537  0.07928  0.49881  1.0000
  H   H205      1.0  0.21248  0.47717  0.61850  1.0000
  N   N20       1.0  0.31716  0.28942  0.61417  1.0000
  C   C198      1.0  0.33595  0.27373  0.61598  1.0000
  C   C199      1.0  0.29710  0.28286  0.60717  1.0000
  H   H206      1.0  0.37376  0.08280  0.55974  1.0000
  H   H207      1.0  0.26844  0.27934  0.68970  1.0000
  H   H208      1.0  0.25883  0.20604  0.68881  1.0000
  C   C200      1.0  0.11080  0.47292  0.49868  1.0000
  C   C201      1.0  0.45976  0.10960  0.52320  1.0000
  H   H209      1.0  0.30935  0.05126  0.50849  1.0000
  C   C202      1.0  0.12699  0.34749  0.73154  1.0000
  C   C203      1.0  0.26937  0.22027  0.69160  1.0000
  H   H210      1.0  0.33607  0.21124  0.70449  1.0000
  H   H211      1.0  0.34366  0.11415  0.55243  1.0000
  S   S71       1.0  0.35795  0.11396  0.49375  1.0000
  H   H212      1.0  0.13164  0.41158  0.69979  1.0000
  H   H213      1.0  0.25274  0.47783  0.62904  1.0000
  H   H214      1.0  0.14499  0.48480  0.50189  1.0000
  H   H215      1.0  0.46625  0.23152  0.62770  1.0000
  C   C204      1.0  0.47452  0.18815  0.61625  1.0000
  H   H216      1.0  0.01507  0.46349  0.50116  1.0000
  C   C205      1.0  0.18600  0.39559  0.73122  1.0000
  H   H217      1.0  0.02383  0.43484  0.51000  1.0000
  C   C206      1.0  0.00890  0.44599  0.50468  1.0000
  C   C207      1.0  0.20223  0.48677  0.66389  1.0000
  C   C208      1.0  0.24165  0.48097  0.67373  1.0000
  H   H218      1.0  0.11620  0.45494  0.50154  1.0000
  H   H219      1.0  0.18659  0.47981  0.65942  1.0000
  C   C209      1.0  0.08775  0.47932  0.49454  1.0000
  C   C210      1.0  0.38555  0.01227  0.49720  1.0000
  C   C211      1.0  0.48463  0.22655  0.62555  1.0000
  S   S72       1.0  0.06787  0.45814  0.49179  1.0000
  C   C212      1.0  0.14873  0.28898  0.90893  1.0000
  H   H220      1.0  0.21569  0.21240  0.80065  1.0000
  H   H221      1.0  0.21815  0.23943  0.82313  1.0000
  H   H222      1.0  0.40124  0.02650  0.95877  1.0000
  C   C213      1.0  0.17178  0.22840  0.77277  1.0000
  C   C214      1.0  0.40449  0.00777  0.96028  1.0000
  Fe  Fe37      1.0  0.36310  0.09827  0.96749  1.0000
  S   S73       1.0  0.33885  0.09131  0.94461  1.0000
  S   S74       1.0  0.39919  0.08058  0.96816  1.0000
  Fe  Fe38      1.0  0.29235  0.12258  0.84198  1.0000
  S   S75       1.0  0.25995  0.10289  0.84068  1.0000
  S   S76       1.0  0.31240  0.13365  0.86618  1.0000
  Fe  Fe39      1.0  0.29702  0.12910  0.80002  1.0000
  S   S77       1.0  0.26549  0.10906  0.79621  1.0000
  S   S78       1.0  0.32140  0.14815  0.77986  1.0000
  Fe  Fe40      1.0  0.24875  0.13007  0.81913  1.0000
  S   S79       1.0  0.21214  0.14770  0.81429  1.0000
  Fe  Fe41      1.0  0.27883  0.08336  0.81796  1.0000
  S   S80       1.0  0.28820  0.04350  0.81804  1.0000
  S   S81       1.0  0.27985  0.15084  0.82196  1.0000
  S   S82       1.0  0.31159  0.10232  0.82026  1.0000
  H   H223      1.0  0.99418  0.33192  0.96021  1.0000
  C   C215      1.0  0.19018  0.21484  0.78033  1.0000
  C   C216      1.0  0.20175  0.22334  0.79461  1.0000
  C   C217      1.0  0.16442  0.33335  0.90503  1.0000
  H   H224      1.0  0.37916  0.09024  0.86124  1.0000
  Fe  Fe42      1.0  0.40957  0.11211  0.98192  1.0000
  Fe  Fe43      1.0  0.09870  0.36944  0.97274  1.0000
  S   S83       1.0  0.09810  0.34245  0.95065  1.0000
  S   S84       1.0  0.08351  0.40646  0.97117  1.0000
  Fe  Fe44      1.0  0.12529  0.26513  0.83156  1.0000
  S   S85       1.0  0.14224  0.29892  0.82804  1.0000
  S   S86       1.0  0.15264  0.23811  0.84308  1.0000
  Fe  Fe45      1.0  0.07733  0.28983  0.82216  1.0000
  S   S87       1.0  0.09321  0.32460  0.81767  1.0000
  S   S88       1.0  0.03701  0.29435  0.82261  1.0000
  Fe  Fe46      1.0  0.12261  0.30498  0.80251  1.0000
  S   S89       1.0  0.14777  0.31321  0.77845  1.0000
  Fe  Fe47      1.0  0.11150  0.31521  0.84349  1.0000
  S   S90       1.0  0.11695  0.34151  0.86520  1.0000
  S   S91       1.0  0.10614  0.27046  0.80555  1.0000
  S   S92       1.0  0.09522  0.28129  0.84842  1.0000
  C   C218      1.0  0.14701  0.32684  0.75637  1.0000
  C   C219      1.0  0.99922  0.38997  0.95439  1.0000
  H   H225      1.0  0.19397  0.26002  0.82675  1.0000
  H   H226      1.0  0.17201  0.27517  0.79892  1.0000
  H   H227      1.0  0.02239  0.25137  0.80746  1.0000
  H   H228      1.0  0.99068  0.31568  0.82667  1.0000
  C   C220      1.0  0.00941  0.28439  0.81758  1.0000
  H   H229      1.0  0.19516  0.19759  0.77553  1.0000
  H   H230      1.0  0.18386  0.31974  0.75131  1.0000
  H   H231      1.0  0.00672  0.24702  0.84785  1.0000
  C   C221      1.0  0.10103  0.34372  0.92664  1.0000
  C   C222      1.0  0.09614  0.32410  0.91709  1.0000
  C   C223      1.0  0.09996  0.32343  0.89824  1.0000
  C   C224      1.0  0.10891  0.34239  0.88863  1.0000
  C   C225      1.0  0.11325  0.36222  0.89813  1.0000
  C   C226      1.0  0.10929  0.36295  0.91697  1.0000
  H   H232      1.0  0.08977  0.30908  0.92438  1.0000
  H   H233      1.0  0.09649  0.30805  0.89120  1.0000
  H   H234      1.0  0.12015  0.37702  0.89088  1.0000
  H   H235      1.0  0.11317  0.37819  0.92402  1.0000
  H   H236      1.0  0.16601  0.28688  0.86593  1.0000
  H   H237      1.0  0.99236  0.23078  0.86581  1.0000
  H   H238      1.0  0.15221  0.26520  0.87953  1.0000
  H   H239      1.0  0.35171  0.14464  0.84319  1.0000
  C   C227      1.0  0.00701  0.26251  0.81063  1.0000
  H   H240      1.0  0.13505  0.28997  0.87041  1.0000
  H   H241      1.0  0.03165  0.40652  0.95448  1.0000
  C   C228      1.0  0.19590  0.17283  0.82264  1.0000
  C   C229      1.0  0.20357  0.18569  0.83655  1.0000
  C   C230      1.0  0.18999  0.20539  0.84268  1.0000
  C   C231      1.0  0.16887  0.21298  0.83470  1.0000
  C   C232      1.0  0.16130  0.20029  0.82066  1.0000
  C   C233      1.0  0.17458  0.18021  0.81487  1.0000
  H   H242      1.0  0.21979  0.18019  0.84280  1.0000
  H   H243      1.0  0.19595  0.21482  0.85369  1.0000
  H   H244      1.0  0.14502  0.20566  0.81449  1.0000
  H   H245      1.0  0.16833  0.17034  0.80420  1.0000
  H   H246      1.0  0.15814  0.33553  0.93368  1.0000
  C   C234      1.0  0.32450  0.15247  0.75594  1.0000
  H   H247      1.0  0.05383  0.32892  0.97228  1.0000
  C   C235      1.0  0.02334  0.39016  0.95515  1.0000
  H   H248      1.0  0.35311  0.17433  0.75783  1.0000
  S   S93       1.0  0.12886  0.37837  0.98906  1.0000
  H   H249      1.0  0.29736  0.02429  0.85474  1.0000
  C   C236      1.0  0.27667  0.01597  0.81443  1.0000
  C   C237      1.0  0.25319  0.01368  0.81115  1.0000
  C   C238      1.0  0.03667  0.36912  0.95745  1.0000
  C   C239      1.0  0.34201  0.16645  0.74877  1.0000
  H   H250      1.0  0.24141  0.02908  0.81009  1.0000
  C   C240      1.0  0.33219  0.10328  0.92270  1.0000
  C   C241      1.0  0.34064  0.12414  0.91581  1.0000
  C   C242      1.0  0.33422  0.13316  0.89862  1.0000
  C   C243      1.0  0.31941  0.12145  0.88796  1.0000
  C   C244      1.0  0.31113  0.10049  0.89477  1.0000
  C   C245      1.0  0.31736  0.09159  0.91204  1.0000
  H   H251      1.0  0.35200  0.13343  0.92376  1.0000
  H   H252      1.0  0.34078  0.14938  0.89356  1.0000
  H   H253      1.0  0.29974  0.09123  0.88682  1.0000
  H   H254      1.0  0.31063  0.07548  0.91717  1.0000
  H   H255      1.0  0.21783  0.26765  0.81158  1.0000
  H   H256      1.0  0.03031  0.31215  0.96669  1.0000
  C   C246      1.0  0.42327  0.99829  0.97015  1.0000
  H   H257      1.0  0.14187  0.27195  0.91052  1.0000
  H   H258      1.0  0.16247  0.22194  0.76182  1.0000
  C   C247      1.0  0.17719  0.25817  0.79379  1.0000
  C   C248      1.0  0.30210  0.13738  0.98194  1.0000
  H   H259      1.0  0.16959  0.35105  0.90321  1.0000
  H   H260      1.0  0.36671  0.12836  0.78809  1.0000
  H   H261      1.0  0.16652  0.32695  0.87678  1.0000
  H   H262      1.0  0.37908  0.08781  0.79775  1.0000
  C   C249      1.0  0.20693  0.25338  0.81640  1.0000
  H   H263      1.0  0.05540  0.36937  0.95802  1.0000
  H   H264      1.0  0.27934  0.02376  0.87528  1.0000
  H   H265      1.0  0.34772  0.09411  0.86053  1.0000
  C   C250      1.0  0.16532  0.25029  0.77944  1.0000
  C   C251      1.0  0.15796  0.32465  0.92211  1.0000
  C   C252      1.0  0.34713  0.99873  0.98646  1.0000
  C   C253      1.0  0.24486  0.99138  0.80923  1.0000
  C   C254      1.0  0.12654  0.33698  0.74904  1.0000
  H   H266      1.0  0.26674  0.02954  0.85354  1.0000
  H   H267      1.0  0.15115  0.26117  0.77364  1.0000
  H   H268      1.0  0.11034  0.33672  0.75685  1.0000
  C   C255      1.0  0.00261  0.34814  0.95840  1.0000
  N   N21       1.0  0.19494  0.24461  0.80132  1.0000
  H   H269      1.0  0.14427  0.29580  0.93728  1.0000
  H   H270      1.0  0.24299  0.99794  0.85193  1.0000
  C   C256      1.0  0.16276  0.31957  0.89014  1.0000
  C   C257      1.0  0.29159  0.99555  0.81572  1.0000
  C   C258      1.0  0.12138  0.47514  0.98992  1.0000
  H   H271      1.0  0.33181  0.00310  0.97874  1.0000
  C   C259      1.0  0.15198  0.28422  0.87630  1.0000
  H   H272      1.0  0.05026  0.32234  0.94916  1.0000
  C   C260      1.0  0.15012  0.30231  0.92412  1.0000
  C   C261      1.0  0.36682  0.12328  0.80229  1.0000
  C   C262      1.0  0.29413  0.09833  0.97486  1.0000
  S   S94       1.0  0.44295  0.12922  0.97331  1.0000
  N   N22       1.0  0.15516  0.29763  0.89224  1.0000
  H   H273      1.0  0.37786  0.07623  0.83016  1.0000
  H   H274      1.0  0.35253  0.15669  0.81090  1.0000
  N   N23       1.0  0.27847  0.99406  0.85940  1.0000
  H   H275      1.0  0.30978  0.99696  0.81821  1.0000
  C   C263      1.0  0.36427  0.10259  0.85764  1.0000
  H   H276      1.0  0.00322  0.28358  0.86219  1.0000
  C   C264      1.0  0.29848  0.12102  0.96921  1.0000
  H   H277      1.0  0.36444  0.11764  0.86652  1.0000
  N   N24       1.0  0.02625  0.34853  0.95934  1.0000
  C   C265      1.0  0.28054  0.01910  0.86094  1.0000
  S   S95       1.0  0.37393  0.13106  0.97958  1.0000
  C   C266      1.0  0.16788  0.32748  0.74587  1.0000
  C   C267      1.0  0.35901  0.13927  0.81514  1.0000
  Fe  Fe48      1.0  0.11185  0.41495  0.98923  1.0000
  N   N25       1.0  0.36577  0.11002  0.83860  1.0000
  C   C268      1.0  0.37302  0.09411  0.82606  1.0000
  C   C269      1.0  0.35851  0.13230  0.83335  1.0000
  C   C270      1.0  0.37377  0.10052  0.80773  1.0000
  H   H278      1.0  0.30611  0.15489  0.97764  1.0000
  H   H279      1.0  0.43437  0.01002  0.97622  1.0000
  C   C271      1.0  0.47095  0.12007  0.98133  1.0000
  C   C272      1.0  0.04075  0.32683  0.96196  1.0000
  H   H280      1.0  0.22667  0.98996  0.80670  1.0000
  H   H281      1.0  0.29689  0.13152  0.74915  1.0000
  H   H282      1.0  0.29230  0.08531  0.96496  1.0000
  H   H283      1.0  0.37396  0.00013  0.94640  1.0000
  H   H284      1.0  0.29982  0.12564  0.95493  1.0000
  H   H285      1.0  0.35635  0.03423  0.98740  1.0000
  C   C273      1.0  0.38917  0.99297  0.95337  1.0000
  S   S96       1.0  0.13244  0.44690  0.98368  1.0000
  C   C274      1.0  0.31039  0.14237  0.74396  1.0000
  H   H286      1.0  0.48880  0.14241  0.96232  1.0000
  C   C275      1.0  0.36094  0.01638  0.99145  1.0000
  C   C276      1.0  0.98909  0.29863  0.82145  1.0000
  H   H287      1.0  0.18629  0.38258  0.74218  1.0000
  C   C277      1.0  0.98955  0.24219  0.85363  1.0000
  C   C278      1.0  0.01411  0.70549  0.11927  1.0000
  H   H288      1.0  0.33449  0.90137  0.19779  1.0000
  Fe  Fe49      1.0  0.35905  0.87164  0.00840  1.0000
  S   S97       1.0  0.34870  0.85055  0.03399  1.0000
  S   S98       1.0  0.37651  0.90498  0.00951  1.0000
  Fe  Fe50      1.0  0.29976  0.86116  0.17960  1.0000
  S   S99       1.0  0.26327  0.87519  0.18672  1.0000
  S   S100      1.0  0.32633  0.84508  0.19974  1.0000
  Fe  Fe51      1.0  0.29525  0.87535  0.13912  1.0000
  S   S101      1.0  0.25830  0.88940  0.14427  1.0000
  S   S102      1.0  0.31012  0.88592  0.11102  1.0000
  Fe  Fe52      1.0  0.27124  0.90611  0.16836  1.0000
  S   S103      1.0  0.25729  0.94370  0.17371  1.0000
  Fe  Fe53      1.0  0.25337  0.85723  0.16189  1.0000
  S   S104      1.0  0.21798  0.84109  0.16012  1.0000
  S   S105      1.0  0.30833  0.89330  0.16280  1.0000
  S   S106      1.0  0.28971  0.84189  0.15527  1.0000
  Fe  Fe54      1.0  0.11707  0.63148  0.00940  1.0000
  S   S107      1.0  0.13567  0.64916  0.03132  1.0000
  S   S108      1.0  0.08519  0.61211  0.01540  1.0000
  Fe  Fe55      1.0  0.13982  0.72267  0.15734  1.0000
  S   S109      1.0  0.14855  0.68428  0.15347  1.0000
  S   S110      1.0  0.17396  0.74172  0.15629  1.0000
  Fe  Fe56      1.0  0.08802  0.71312  0.16582  1.0000
  S   S111      1.0  0.09502  0.67455  0.16365  1.0000
  S   S112      1.0  0.05117  0.73051  0.17063  1.0000
  Fe  Fe57      1.0  0.12740  0.67854  0.17917  1.0000
  S   S113      1.0  0.14601  0.65248  0.19904  1.0000
  Fe  Fe58      1.0  0.11564  0.68378  0.13821  1.0000
  S   S114      1.0  0.10481  0.66371  0.11398  1.0000
  S   S115      1.0  0.11909  0.71670  0.18327  1.0000
  S   S116      1.0  0.10809  0.72253  0.14015  1.0000
  C   C279      1.0  0.14920  0.65075  0.22287  1.0000
  H   H289      1.0  0.08036  0.50282  0.01721  1.0000
  C   C280      1.0  0.16566  0.63412  0.23020  1.0000
  H   H290      1.0  0.34327  0.76356  0.22506  1.0000
  H   H291      1.0  0.17566  0.62247  0.22134  1.0000
  C   C281      1.0  0.02019  0.69674  0.16394  1.0000
  C   C282      1.0  0.02307  0.71959  0.16871  1.0000
  H   H292      1.0  0.29701  0.92479  0.19453  1.0000
  H   H293      1.0  0.03531  0.68474  0.16214  1.0000
  C   C283      1.0  0.17399  0.70790  0.23650  1.0000
  C   C284      1.0  0.12579  0.65498  0.05382  1.0000
  C   C285      1.0  0.10451  0.64789  0.06099  1.0000
  C   C286      1.0  0.09828  0.65115  0.07930  1.0000
  C   C287      1.0  0.11303  0.66178  0.09069  1.0000
  C   C288      1.0  0.13408  0.66933  0.08343  1.0000
  C   C289      1.0  0.14042  0.66585  0.06515  1.0000
  H   H294      1.0  0.09307  0.63948  0.05252  1.0000
  H   H295      1.0  0.08197  0.64519  0.08474  1.0000
  H   H296      1.0  0.14566  0.67748  0.09196  1.0000
  H   H297      1.0  0.15690  0.67148  0.05979  1.0000
  Fe  Fe59      1.0  0.10263  0.58390  0.99837  1.0000
  H   H298      1.0  0.25539  0.93837  0.23280  1.0000
  N   N26       1.0  0.28697  0.92111  0.22227  1.0000
  H   H299      1.0  0.48299  0.92164  0.99419  1.0000
  C   C290      1.0  0.20619  0.81312  0.15973  1.0000
  C   C291      1.0  0.18189  0.81200  0.15895  1.0000
  C   C292      1.0  0.17166  0.79046  0.15812  1.0000
  C   C293      1.0  0.18562  0.76960  0.15783  1.0000
  C   C294      1.0  0.20994  0.77072  0.15858  1.0000
  C   C295      1.0  0.22015  0.79224  0.15964  1.0000
  H   H300      1.0  0.17082  0.82795  0.15904  1.0000
  H   H301      1.0  0.15297  0.79003  0.15754  1.0000
  H   H302      1.0  0.22099  0.75478  0.15839  1.0000
  H   H303      1.0  0.23881  0.79261  0.16038  1.0000
  C   C296      1.0  0.32569  0.83870  0.22346  1.0000
  C   C297      1.0  0.34603  0.82889  0.23148  1.0000
  C   C298      1.0  0.30590  0.84359  0.23453  1.0000
  H   H304      1.0  0.36148  0.82502  0.22312  1.0000
  H   H305      1.0  0.29010  0.85110  0.22864  1.0000
  C   C299      1.0  0.17482  0.71341  0.20420  1.0000
  H   H306      1.0  0.30549  0.95816  0.17354  1.0000
  C   C300      1.0  0.26460  0.93435  0.21981  1.0000
  C   C301      1.0  0.33787  0.86073  0.05530  1.0000
  C   C302      1.0  0.33283  0.84444  0.06928  1.0000
  C   C303      1.0  0.32446  0.85169  0.08641  1.0000
  C   C304      1.0  0.32101  0.87542  0.08982  1.0000
  C   C305      1.0  0.32614  0.89168  0.07585  1.0000
  C   C306      1.0  0.33451  0.88444  0.05873  1.0000
  H   H307      1.0  0.33544  0.82605  0.06684  1.0000
  H   H308      1.0  0.32094  0.83890  0.09700  1.0000
  H   H309      1.0  0.32357  0.91009  0.07826  1.0000
  H   H310      1.0  0.33823  0.89724  0.04818  1.0000
  H   H311      1.0  0.39169  0.82867  0.04925  1.0000
  C   C307      1.0  0.29364  0.97351  0.17391  1.0000
  C   C308      1.0  0.99462  0.60697  0.02979  1.0000
  N   N27       1.0  0.15052  0.59598  0.04955  1.0000
  C   C309      1.0  0.14757  0.60369  0.06669  1.0000
  C   C310      1.0  0.13445  0.58270  0.04266  1.0000
  C   C311      1.0  0.12777  0.59875  0.07722  1.0000
  C   C312      1.0  0.11436  0.57758  0.05275  1.0000
  C   C313      1.0  0.11098  0.58579  0.07010  1.0000
  C   C314      1.0  0.17146  0.60123  0.03877  1.0000
  H   H312      1.0  0.16013  0.61447  0.07210  1.0000
  H   H313      1.0  0.13687  0.57623  0.02918  1.0000
  H   H314      1.0  0.12511  0.60571  0.09055  1.0000
  H   H315      1.0  0.10143  0.56754  0.04698  1.0000
  H   H316      1.0  0.09527  0.58236  0.07796  1.0000
  H   H317      1.0  0.17780  0.61816  0.04243  1.0000
  C   C315      1.0  0.03682  0.73647  0.12641  1.0000
  H   H318      1.0  0.16759  0.60327  0.02426  1.0000
  C   C316      1.0  0.26961  0.97131  0.17377  1.0000
  H   H319      1.0  0.00495  0.75239  0.17504  1.0000
  H   H320      1.0  0.47211  0.86668  0.02707  1.0000
  H   H321      1.0  0.18681  0.67076  0.18143  1.0000
  C   C317      1.0  0.00414  0.62821  0.02568  1.0000
  H   H322      1.0  0.21572  0.68013  0.18428  1.0000
  C   C318      1.0  0.30812  0.98674  0.12916  1.0000
  H   H323      1.0  0.05354  0.74274  0.12937  1.0000
  H   H324      1.0  0.25318  0.92431  0.21176  1.0000
  H   H325      1.0  0.06206  0.69324  0.13463  1.0000
  H   H326      1.0  0.37867  0.95200  0.00416  1.0000
  H   H327      1.0  0.01281  0.68734  0.11642  1.0000
  H   H328      1.0  0.26727  0.95117  0.21242  1.0000
  H   H329      1.0  0.99726  0.66362  0.01648  1.0000
  C   C319      1.0  0.05650  0.69838  0.12084  1.0000
  N   N28       1.0  0.24240  0.84093  0.11292  1.0000
  C   C320      1.0  0.25945  0.85296  0.10427  1.0000
  C   C321      1.0  0.22046  0.85120  0.11547  1.0000
  C   C322      1.0  0.25454  0.87565  0.09743  1.0000
  C   C323      1.0  0.21504  0.87399  0.10905  1.0000
  C   C324      1.0  0.23221  0.88623  0.09991  1.0000
  C   C325      1.0  0.24802  0.81745  0.12051  1.0000
  H   H330      1.0  0.27708  0.84522  0.10280  1.0000
  H   H331      1.0  0.20712  0.84195  0.12285  1.0000
  H   H332      1.0  0.26818  0.88514  0.09066  1.0000
  H   H333      1.0  0.19774  0.88218  0.11145  1.0000
  H   H334      1.0  0.22836  0.90401  0.09503  1.0000
  H   H335      1.0  0.26191  0.80803  0.11234  1.0000
  H   H336      1.0  0.25392  0.81861  0.13445  1.0000
  H   H337      1.0  0.23253  0.80693  0.12104  1.0000
  C   C326      1.0  0.00301  0.73471  0.17126  1.0000
  H   H338      1.0  0.07089  0.70711  0.11357  1.0000
  C   C327      1.0  0.13632  0.66554  0.23457  1.0000
  S   S117      1.0  0.09845  0.54763  0.01107  1.0000
  H   H339      1.0  0.18536  0.58717  0.04074  1.0000
  H   H340      1.0  0.20705  0.66491  0.21619  1.0000
  C   C328      1.0  0.32304  0.90468  0.20945  1.0000
  H   H341      1.0  0.16905  0.72338  0.19235  1.0000
  H   H342      1.0  0.02287  0.62946  0.02544  1.0000
  N   N29       1.0  0.41824  0.84919  0.03772  1.0000
  C   C329      1.0  0.44125  0.84785  0.03230  1.0000
  C   C330      1.0  0.40716  0.87014  0.04195  1.0000
  C   C331      1.0  0.45391  0.86773  0.03151  1.0000
  C   C332      1.0  0.41921  0.89042  0.04100  1.0000
  C   C333      1.0  0.44273  0.88916  0.03571  1.0000
  C   C334      1.0  0.40501  0.82836  0.03801  1.0000
  H   H343      1.0  0.44991  0.83144  0.02837  1.0000
  H   H344      1.0  0.38878  0.87133  0.04581  1.0000
  H   H345      1.0  0.30963  0.79100  0.23293  1.0000
  H   H346      1.0  0.41020  0.90707  0.04392  1.0000
  H   H347      1.0  0.45213  0.90483  0.03433  1.0000
  C   C335      1.0  0.38700  0.98746  0.00605  1.0000
  H   H348      1.0  0.39579  0.82770  0.02521  1.0000
  H   H349      1.0  0.41642  0.81219  0.03985  1.0000
  C   C336      1.0  0.37348  0.96984  0.00076  1.0000
  N   N30       1.0  0.18943  0.69380  0.20255  1.0000
  C   C337      1.0  0.19634  0.68101  0.21752  1.0000
  C   C338      1.0  0.19690  0.68568  0.18470  1.0000
  H   H350      1.0  0.40249  0.98302  0.01355  1.0000
  C   C339      1.0  0.10671  0.52027  0.00165  1.0000
  H   H351      1.0  0.19403  0.69958  0.17406  1.0000
  N   N31       1.0  0.03532  0.71391  0.12179  1.0000
  H   H352      1.0  0.43889  0.95746  0.99662  1.0000
  H   H353      1.0  0.12353  0.67835  0.22924  1.0000
  H   H354      1.0  0.05399  0.68230  0.11361  1.0000
  C   C340      1.0  0.99770  0.68941  0.16129  1.0000
  C   C341      1.0  0.33516  0.76276  0.23845  1.0000
  C   C342      1.0  0.30178  0.91768  0.20768  1.0000
  C   C343      1.0  0.09501  0.50067  0.00776  1.0000
  H   H355      1.0  0.27399  0.97357  0.12967  1.0000
  H   H356      1.0  0.99584  0.67178  0.15738  1.0000
  H   H357      1.0  0.01802  0.76898  0.13266  1.0000
  C   C344      1.0  0.01676  0.75138  0.12835  1.0000
  H   H358      1.0  0.15487  0.73601  0.22234  1.0000
  C   C345      1.0  0.32912  0.89525  0.22629  1.0000
  H   H359      1.0  0.31719  0.96961  0.12879  1.0000
  C   C346      1.0  0.16683  0.72073  0.22117  1.0000
  H   H360      1.0  0.34529  0.88459  0.22771  1.0000
  H   H361      1.0  0.00590  0.59162  0.03296  1.0000
  C   C347      1.0  0.18897  0.68801  0.23471  1.0000
  C   C348      1.0  0.99367  0.71991  0.12113  1.0000
  S   S118      1.0  0.13551  0.60247  0.99354  1.0000
  C   C349      1.0  0.29266  0.91164  0.23881  1.0000
  C   C350      1.0  0.48584  0.90308  0.99267  1.0000
  C   C351      1.0  0.31388  0.89870  0.24109  1.0000
  C   C352      1.0  0.99506  0.74300  0.12568  1.0000
  C   C353      1.0  0.98951  0.64755  0.02062  1.0000
  Fe  Fe60      1.0  0.35304  0.80275  0.30325  1.0000
  S   S119      1.0  0.37484  0.77207  0.29293  1.0000
  S   S120      1.0  0.32668  0.82351  0.28514  1.0000
  Fe  Fe61      1.0  0.36991  0.79308  0.34242  1.0000
  S   S121      1.0  0.39169  0.76096  0.33380  1.0000
  S   S122      1.0  0.37697  0.79934  0.37213  1.0000
  Fe  Fe62      1.0  0.40347  0.78309  0.31014  1.0000
  S   S123      1.0  0.44087  0.79047  0.30048  1.0000
  Fe  Fe63      1.0  0.36093  0.75273  0.31767  1.0000
  S   S124      1.0  0.34791  0.71639  0.31347  1.0000
  S   S125      1.0  0.38232  0.81540  0.31891  1.0000
  S   S126      1.0  0.33844  0.78320  0.32777  1.0000
  Fe  Fe64      1.0  0.37066  0.87090  0.46280  1.0000
  S   S127      1.0  0.40226  0.89173  0.46270  1.0000
  S   S128      1.0  0.35133  0.86817  0.43672  1.0000
  C   C354      1.0  0.02533  0.54710  0.48134  1.0000
  H   H362      1.0  0.12961  0.67504  0.26219  1.0000
  H   H363      1.0  0.24254  0.48995  0.35185  1.0000
  H   H364      1.0  0.46268  0.83443  0.31905  1.0000
  Fe  Fe65      1.0  0.23123  0.63639  0.32239  1.0000
  S   S129      1.0  0.19297  0.64443  0.32876  1.0000
  S   S130      1.0  0.25182  0.66733  0.33028  1.0000
  Fe  Fe66      1.0  0.22117  0.58569  0.31276  1.0000
  S   S131      1.0  0.18274  0.59180  0.31829  1.0000
  S   S132      1.0  0.23814  0.54935  0.30654  1.0000
  Fe  Fe67      1.0  0.18665  0.62636  0.30311  1.0000
  S   S133      1.0  0.16037  0.64599  0.28436  1.0000
  Fe  Fe68      1.0  0.19261  0.60944  0.34320  1.0000
  S   S134      1.0  0.18294  0.59617  0.37191  1.0000
  S   S135      1.0  0.22487  0.61949  0.29621  1.0000
  S   S136      1.0  0.23110  0.60214  0.33806  1.0000
  C   C355      1.0  0.40795  0.97522  0.45445  1.0000
  C   C356      1.0  0.18439  0.65747  0.42226  1.0000
  H   H365      1.0  0.30623  0.84802  0.45994  1.0000
  H   H366      1.0  0.45058  0.89053  0.48799  1.0000
  C   C357      1.0  0.18133  0.67590  0.40967  1.0000
  H   H367      1.0  0.19398  0.67749  0.24654  1.0000
  Fe  Fe69      1.0  0.12007  0.61501  0.46942  1.0000
  S   S137      1.0  0.12670  0.63370  0.44204  1.0000
  S   S138      1.0  0.09919  0.58337  0.47212  1.0000
  H   H368      1.0  0.06278  0.50788  0.48879  1.0000
  C   C358      1.0  0.32665  0.82716  0.47886  1.0000
  H   H369      1.0  0.29929  0.77930  0.29551  1.0000
  H   H370      1.0  0.16966  0.69088  0.41283  1.0000
  Fe  Fe70      1.0  0.38759  0.90558  0.48896  1.0000
  N   N32       1.0  0.32351  0.81837  0.44777  1.0000
  H   H371      1.0  0.09238  0.50723  0.44452  1.0000
  C   C359      1.0  0.46240  0.77565  0.36571  1.0000
  C   C360      1.0  0.16552  0.60633  0.39071  1.0000
  C   C361      1.0  0.16569  0.59269  0.40683  1.0000
  C   C362      1.0  0.15334  0.60042  0.42248  1.0000
  C   C363      1.0  0.14057  0.62198  0.42221  1.0000
  C   C364      1.0  0.13998  0.63541  0.40598  1.0000
  C   C365      1.0  0.15241  0.62770  0.39033  1.0000
  H   H372      1.0  0.17575  0.57613  0.40733  1.0000
  H   H373      1.0  0.15406  0.58992  0.43483  1.0000
  H   H374      1.0  0.13013  0.65208  0.40557  1.0000
  H   H375      1.0  0.15198  0.63838  0.37806  1.0000
  H   H376      1.0  0.31697  0.75370  0.30118  1.0000
  C   C366      1.0  0.20323  0.51883  0.31476  1.0000
  C   C367      1.0  0.22653  0.52145  0.30960  1.0000
  C   C368      1.0  0.24140  0.50123  0.30724  1.0000
  H   H377      1.0  0.48477  0.80969  0.29165  1.0000
  H   H378      1.0  0.19151  0.53412  0.31656  1.0000
  H   H379      1.0  0.25943  0.50299  0.30315  1.0000
  N   N33       1.0  0.00645  0.56046  0.47210  1.0000
  C   C369      1.0  0.15646  0.64715  0.26061  1.0000
  H   H380      1.0  0.21236  0.66769  0.36123  1.0000
  H   H381      1.0  0.35833  0.73438  0.24817  1.0000
  H   H382      1.0  0.35986  0.77815  0.46859  1.0000
  H   H383      1.0  0.16748  0.71296  0.24975  1.0000
  C   C370      1.0  0.47440  0.86137  0.48133  1.0000
  H   H384      1.0  0.36250  0.81652  0.25611  1.0000
  C   C371      1.0  0.21292  0.54154  0.35763  1.0000
  H   H385      1.0  0.02787  0.63490  0.48197  1.0000
  C   C372      1.0  0.32065  0.70354  0.31774  1.0000
  C   C373      1.0  0.31736  0.68174  0.31062  1.0000
  C   C374      1.0  0.29637  0.67061  0.31393  1.0000
  C   C375      1.0  0.27833  0.68101  0.32462  1.0000
  C   C376      1.0  0.28157  0.70291  0.33162  1.0000
  C   C377      1.0  0.30243  0.71416  0.32813  1.0000
  H   H386      1.0  0.33126  0.67324  0.30261  1.0000
  H   H387      1.0  0.29435  0.65380  0.30846  1.0000
  H   H388      1.0  0.26786  0.71118  0.33994  1.0000
  H   H389      1.0  0.30459  0.73081  0.33383  1.0000
  C   C378      1.0  0.37037  0.81969  0.38941  1.0000
  C   C379      1.0  0.38137  0.81597  0.40596  1.0000
  C   C380      1.0  0.37645  0.83111  0.42029  1.0000
  C   C381      1.0  0.36022  0.85017  0.41835  1.0000
  C   C382      1.0  0.34927  0.85398  0.40178  1.0000
  C   C383      1.0  0.35435  0.83893  0.38738  1.0000
  H   H390      1.0  0.39379  0.80117  0.40772  1.0000
  H   H391      1.0  0.38493  0.82778  0.43293  1.0000
  H   H392      1.0  0.33659  0.86857  0.40010  1.0000
  H   H393      1.0  0.34568  0.84207  0.37480  1.0000
  C   C384      1.0  0.48114  0.89287  0.44324  1.0000
  C   C385      1.0  0.46983  0.78156  0.30702  1.0000
  C   C386      1.0  0.47490  0.76217  0.31847  1.0000
  H   H394      1.0  0.34334  0.78811  0.43882  1.0000
  H   H395      1.0  0.46102  0.75166  0.32339  1.0000
  N   N34       1.0  0.45356  0.81367  0.34224  1.0000
  C   C387      1.0  0.32703  0.82926  0.26135  1.0000
  C   C388      1.0  0.30666  0.83907  0.25333  1.0000
  H   H396      1.0  0.42498  0.77492  0.36847  1.0000
  H   H397      1.0  0.29128  0.84308  0.26172  1.0000
  H   H398      1.0  0.25325  0.55208  0.34396  1.0000
  H   H399      1.0  0.17028  0.50431  0.36602  1.0000
  C   C389      1.0  0.33844  0.79906  0.45006  1.0000
  S   S139      1.0  0.38714  0.84014  0.47795  1.0000
  H   H400      1.0  0.12952  0.52244  0.45323  1.0000
  C   C390      1.0  0.34780  0.79330  0.46686  1.0000
  C   C391      1.0  0.47604  0.80634  0.34590  1.0000
  C   C392      1.0  0.19888  0.63796  0.41788  1.0000
  C   C393      1.0  0.43542  0.80288  0.35053  1.0000
  C   C394      1.0  0.33320  0.74608  0.26866  1.0000
  C   C395      1.0  0.19289  0.67455  0.39281  1.0000
  H   H401      1.0  0.29224  0.79000  0.26383  1.0000
  H   H402      1.0  0.02594  0.52854  0.47782  1.0000
  C   C396      1.0  0.48081  0.78717  0.35761  1.0000
  H   H403      1.0  0.43234  0.83230  0.32293  1.0000
  H   H404      1.0  0.33986  0.73332  0.27860  1.0000
  H   H405      1.0  0.21527  0.56004  0.35693  1.0000
  C   C397      1.0  0.22815  0.50244  0.35501  1.0000
  C   C398      1.0  0.21904  0.65390  0.37096  1.0000
  N   N35       1.0  0.23118  0.52579  0.35394  1.0000
  C   C399      1.0  0.43954  0.78364  0.36228  1.0000
  S   S140      1.0  0.35443  0.88673  0.48825  1.0000
  H   H406      1.0  0.32391  0.81622  0.41914  1.0000
  C   C400      1.0  0.18746  0.51032  0.36294  1.0000
  H   H407      1.0  0.20069  0.62322  0.42736  1.0000
  C   C401      1.0  0.01093  0.57967  0.46147  1.0000
  H   H408      1.0  0.47130  0.86007  0.43411  1.0000
  H   H409      1.0  0.17705  0.49470  0.32184  1.0000
  C   C402      1.0  0.36148  0.97485  0.48621  1.0000
  C   C403      1.0  0.34670  0.82409  0.25024  1.0000
  H   H410      1.0  0.31824  0.89081  0.25412  1.0000
  H   H411      1.0  0.17484  0.65787  0.43513  1.0000
  H   H412      1.0  0.41759  0.80890  0.34791  1.0000
  H   H413      1.0  0.37619  0.96860  0.44183  1.0000
  C   C404      1.0  0.30646  0.77748  0.26033  1.0000
  H   H414      1.0  0.29558  0.81562  0.43041  1.0000
  H   H415      1.0  0.28915  0.75074  0.29172  1.0000
  C   C405      1.0  0.30452  0.76136  0.29122  1.0000
  S   S141      1.0  0.45285  0.84432  0.47432  1.0000
  H   H416      1.0  0.22067  0.62158  0.39732  1.0000
  H   H417      1.0  0.28074  0.91386  0.25032  1.0000
  Fe  Fe71      1.0  0.41747  0.86182  0.47945  1.0000
  H   H418      1.0  0.35216  0.96054  0.48185  1.0000
  H   H419      1.0  0.41275  0.95695  0.45739  1.0000
  H   H420      1.0  0.23797  0.65577  0.37220  1.0000
  C   C406      1.0  0.31268  0.82333  0.43041  1.0000
  H   H421      1.0  0.31018  0.84243  0.42760  1.0000
  C   C407      1.0  0.10694  0.49526  0.44813  1.0000
  C   C408      1.0  0.13984  0.66363  0.25329  1.0000
  C   C409      1.0  0.44889  0.83374  0.32989  1.0000
  H   H422      1.0  0.46332  0.89990  0.44527  1.0000
  H   H423      1.0  0.19027  0.68885  0.38303  1.0000
  C   C410      1.0  0.21005  0.63712  0.40087  1.0000
  H   H424      1.0  0.18218  0.61960  0.25423  1.0000
  N   N36       1.0  0.20692  0.65525  0.38859  1.0000
  C   C411      1.0  0.12783  0.50381  0.45285  1.0000
  N   N37       1.0  0.31521  0.76182  0.27304  1.0000
  S   S142      1.0  0.14818  0.60077  0.48782  1.0000
  H   H425      1.0  0.44781  0.85007  0.33735  1.0000
  C   C412      1.0  0.46854  0.88372  0.48743  1.0000
  H   H426      1.0  0.21660  0.63692  0.36503  1.0000
  H   H427      1.0  0.26500  0.53280  0.36163  1.0000
  C   C413      1.0  0.19079  0.53408  0.36207  1.0000
  C   C414      1.0  0.25436  0.53384  0.34949  1.0000
  H   H428      1.0  0.46585  0.76040  0.37445  1.0000
  H   H429      1.0  0.26329  0.52325  0.33878  1.0000
  H   H430      1.0  0.02845  0.58543  0.45994  1.0000
  C   C415      1.0  0.31761  0.83240  0.46188  1.0000
  C   C416      1.0  0.16942  0.63244  0.24888  1.0000
  H   H431      1.0  0.04261  0.55386  0.47781  1.0000
  H   H432      1.0  0.17633  0.54678  0.36465  1.0000
  H   H433      1.0  0.99623  0.60873  0.44543  1.0000
  C   C417      1.0  0.38732  0.98178  0.44584  1.0000
  C   C418      1.0  0.48834  0.79481  0.30067  1.0000
  H   H434      1.0  0.32235  0.83852  0.48997  1.0000
  H   H435      1.0  0.16177  0.49513  0.46295  1.0000
  C   C419      1.0  0.34167  0.80737  0.48136  1.0000
  C   C420      1.0  0.99280  0.59294  0.45320  1.0000
  H   H436      1.0  0.43722  0.98713  0.46746  1.0000
  C   C421      1.0  0.01274  0.62645  0.48724  1.0000
  C   C422      1.0  0.34364  0.74649  0.25139  1.0000
  C   C423      1.0  0.48563  0.87048  0.43693  1.0000
  H   H437      1.0  0.09144  0.53796  0.48961  1.0000
  C   C424      1.0  0.19508  0.49638  0.31774  1.0000
  C   C425      1.0  0.99022  0.63515  0.48240  1.0000
  C   C426      1.0  0.20626  0.49433  0.35949  1.0000
  C   C427      1.0  0.31625  0.77816  0.24285  1.0000
  C   C428      1.0  0.14612  0.48821  0.45829  1.0000
  C   C429      1.0  0.08066  0.50287  0.49173  1.0000
  Fe  Fe72      1.0  0.37398  0.85715  0.50354  1.0000
  S   S143      1.0  0.40581  0.87682  0.50576  1.0000
  S   S144      1.0  0.36215  0.83057  0.52526  1.0000
  H   H438      1.0  0.38219  0.81191  0.70473  1.0000
  H   H439      1.0  0.47734  0.85841  0.52233  1.0000
  Fe  Fe73      1.0  0.35063  0.80334  0.67868  1.0000
  S   S145      1.0  0.37230  0.77008  0.68457  1.0000
  S   S146      1.0  0.32969  0.82756  0.69828  1.0000
  Fe  Fe74      1.0  0.36396  0.80221  0.63739  1.0000
  S   S147      1.0  0.38633  0.76888  0.64110  1.0000
  S   S148      1.0  0.36107  0.82610  0.61174  1.0000
  Fe  Fe75      1.0  0.35652  0.75713  0.65962  1.0000
  S   S149      1.0  0.34371  0.72016  0.65761  1.0000
  Fe  Fe76      1.0  0.40014  0.78450  0.66568  1.0000
  S   S150      1.0  0.43711  0.79302  0.67349  1.0000
  S   S151      1.0  0.33366  0.78986  0.65461  1.0000
  S   S152      1.0  0.37882  0.81834  0.66105  1.0000
  Fe  Fe77      1.0  0.12626  0.61617  0.51076  1.0000
  S   S153      1.0  0.14097  0.63673  0.53312  1.0000
  S   S154      1.0  0.10608  0.58466  0.51594  1.0000
  Fe  Fe78      1.0  0.22408  0.64051  0.65867  1.0000
  S   S155      1.0  0.18591  0.65059  0.65456  1.0000
  S   S156      1.0  0.24482  0.67375  0.65823  1.0000
  Fe  Fe79      1.0  0.21244  0.58887  0.66689  1.0000
  S   S157      1.0  0.17416  0.59747  0.66453  1.0000
  S   S158      1.0  0.22778  0.55120  0.67205  1.0000
  Fe  Fe80      1.0  0.18439  0.61780  0.63916  1.0000
  S   S159      1.0  0.16553  0.60607  0.61455  1.0000
  Fe  Fe81      1.0  0.17933  0.62946  0.68019  1.0000
  S   S160      1.0  0.15390  0.64753  0.70085  1.0000
  S   S161      1.0  0.22293  0.60889  0.64145  1.0000
  S   S162      1.0  0.21718  0.61960  0.68445  1.0000
  C   C430      1.0  0.15484  0.65202  0.72439  1.0000
  C   C431      1.0  0.33680  0.81447  0.73447  1.0000
  H   H440      1.0  0.43571  0.88115  0.55737  1.0000
  C   C432      1.0  0.47420  0.76159  0.66293  1.0000
  N   N38       1.0  0.30892  0.77797  0.61225  1.0000
  H   H441      1.0  0.27259  0.77270  0.61466  1.0000
  C   C433      1.0  0.21104  0.68041  0.69782  1.0000
  C   C434      1.0  0.16988  0.63865  0.73563  1.0000
  C   C435      1.0  0.20329  0.51132  0.66529  1.0000
  C   C436      1.0  0.22369  0.52065  0.67092  1.0000
  C   C437      1.0  0.24262  0.50511  0.67526  1.0000
  N   N39       1.0  0.21463  0.53525  0.62285  1.0000
  H   H442      1.0  0.18846  0.52298  0.66192  1.0000
  H   H443      1.0  0.25844  0.51185  0.67964  1.0000
  C   C438      1.0  0.14917  0.62731  0.55532  1.0000
  C   C439      1.0  0.15857  0.64323  0.56647  1.0000
  C   C440      1.0  0.16416  0.63700  0.58444  1.0000
  C   C441      1.0  0.16013  0.61477  0.59165  1.0000
  C   C442      1.0  0.15073  0.59887  0.58050  1.0000
  C   C443      1.0  0.14546  0.60498  0.56245  1.0000
  H   H444      1.0  0.16154  0.66056  0.56117  1.0000
  H   H445      1.0  0.17130  0.64949  0.59278  1.0000
  H   H446      1.0  0.14748  0.58164  0.58586  1.0000
  H   H447      1.0  0.13823  0.59251  0.55414  1.0000
  H   H448      1.0  0.12735  0.67935  0.72363  1.0000
  C   C444      1.0  0.12703  0.48987  0.49908  1.0000
  H   H449      1.0  0.30062  0.85943  0.71948  1.0000
  H   H450      1.0  0.40114  0.83357  0.69588  1.0000
  H   H451      1.0  0.26831  0.51564  0.63576  1.0000
  C   C445      1.0  0.31596  0.70758  0.65891  1.0000
  C   C446      1.0  0.31519  0.68334  0.65732  1.0000
  C   C447      1.0  0.29378  0.67265  0.65730  1.0000
  C   C448      1.0  0.27262  0.68607  0.65870  1.0000
  C   C449      1.0  0.27338  0.71033  0.66028  1.0000
  C   C450      1.0  0.29479  0.72099  0.66049  1.0000
  H   H452      1.0  0.33134  0.67269  0.65604  1.0000
  H   H453      1.0  0.29369  0.65403  0.65605  1.0000
  H   H454      1.0  0.25723  0.72100  0.66141  1.0000
  H   H455      1.0  0.29492  0.73962  0.66172  1.0000
  C   C451      1.0  0.46709  0.78262  0.67094  1.0000
  C   C452      1.0  0.01549  0.60675  0.49875  1.0000
  C   C453      1.0  0.09068  0.62374  0.56878  1.0000
  H   H456      1.0  0.46124  0.75067  0.65841  1.0000
  C   C454      1.0  0.48441  0.79636  0.67688  1.0000
  C   C455      1.0  0.31591  0.73003  0.61759  1.0000
  C   C456      1.0  0.32495  0.82944  0.72212  1.0000
  S   S163      1.0  0.04318  0.59382  0.50457  1.0000
  H   H457      1.0  0.19648  0.67170  0.69221  1.0000
  C   C457      1.0  0.24229  0.49402  0.62681  1.0000
  C   C458      1.0  0.36349  0.82973  0.54926  1.0000
  C   C459      1.0  0.36333  0.84989  0.55915  1.0000
  C   C460      1.0  0.36292  0.84833  0.57817  1.0000
  C   C461      1.0  0.36318  0.82665  0.58764  1.0000
  C   C462      1.0  0.36414  0.80645  0.57769  1.0000
  C   C463      1.0  0.36394  0.80803  0.55870  1.0000
  H   H458      1.0  0.36272  0.86675  0.55219  1.0000
  H   H459      1.0  0.36210  0.86412  0.58563  1.0000
  H   H460      1.0  0.36471  0.78959  0.58455  1.0000
  H   H461      1.0  0.36409  0.79228  0.55126  1.0000
  H   H462      1.0  0.18401  0.55528  0.61406  1.0000
  H   H463      1.0  0.34586  0.77846  0.61181  1.0000
  H   H464      1.0  0.17758  0.70912  0.71139  1.0000
  H   H465      1.0  0.44083  0.79736  0.51511  1.0000
  C   C464      1.0  0.42624  0.84363  0.54116  1.0000
  H   H466      1.0  0.27858  0.72996  0.61952  1.0000
  C   C465      1.0  0.29338  0.74051  0.61724  1.0000
  H   H467      1.0  0.46982  0.80013  0.63247  1.0000
  C   C466      1.0  0.42452  0.82213  0.53340  1.0000
  C   C467      1.0  0.39102  0.83354  0.73995  1.0000
  C   C468      1.0  0.48747  0.80569  0.63177  1.0000
  N   N40       1.0  0.38661  0.83901  0.72230  1.0000
  H   H468      1.0  0.31869  0.71139  0.62022  1.0000
  C   C469      1.0  0.33489  0.74374  0.61555  1.0000
  N   N41       1.0  0.08051  0.64726  0.54250  1.0000
  C   C470      1.0  0.06713  0.63034  0.53701  1.0000
  C   C471      1.0  0.09226  0.64414  0.55812  1.0000
  C   C472      1.0  0.06519  0.60970  0.54732  1.0000
  C   C473      1.0  0.30556  0.80332  0.60959  1.0000
  C   C474      1.0  0.48607  0.89761  0.49232  1.0000
  C   C475      1.0  0.08334  0.66838  0.53123  1.0000
  H   H469      1.0  0.05814  0.63251  0.52445  1.0000
  C   C476      1.0  0.18818  0.70031  0.72165  1.0000
  H   H470      1.0  0.35242  0.73580  0.61674  1.0000
  H   H471      1.0  0.34826  0.80023  0.72965  1.0000
  H   H472      1.0  0.10371  0.65708  0.56206  1.0000
  H   H473      1.0  0.10078  0.66725  0.52427  1.0000
  H   H474      1.0  0.06993  0.67082  0.52086  1.0000
  H   H475      1.0  0.08191  0.68400  0.53957  1.0000
  C   C477      1.0  0.20591  0.51456  0.61910  1.0000
  H   H476      1.0  0.31152  0.81205  0.62148  1.0000
  H   H477      1.0  0.02262  0.54848  0.49614  1.0000
  N   N42       1.0  0.44515  0.85631  0.53732  1.0000
  C   C478      1.0  0.46263  0.84812  0.52581  1.0000
  H   H478      1.0  0.20921  0.57129  0.61551  1.0000
  C   C479      1.0  0.46152  0.82662  0.51791  1.0000
  H   H479      1.0  0.18203  0.62554  0.72993  1.0000
  H   H480      1.0  0.47843  0.83718  0.64578  1.0000
  C   C480      1.0  0.39584  0.82349  0.70821  1.0000
  S   S164      1.0  0.39638  0.94177  0.49712  1.0000
  C   C481      1.0  0.13909  0.66890  0.73217  1.0000
  H   H481      1.0  0.22729  0.66918  0.69561  1.0000
  H   H482      1.0  0.99748  0.58097  0.51453  1.0000
  H   H483      1.0  0.41204  0.85034  0.54989  1.0000
  H   H484      1.0  0.28707  0.80923  0.60756  1.0000
  C   C482      1.0  0.99559  0.59609  0.50549  1.0000
  C   C483      1.0  0.25104  0.51520  0.63054  1.0000
  H   H485      1.0  0.40928  0.81236  0.53617  1.0000
  H   H486      1.0  0.07628  0.59021  0.57115  1.0000
  C   C484      1.0  0.37202  0.85791  0.71778  1.0000
  H   H487      1.0  0.09807  0.63161  0.72475  1.0000
  H   H488      1.0  0.05489  0.59618  0.54270  1.0000
  H   H489      1.0  0.10060  0.62113  0.58089  1.0000
  H   H490      1.0  0.21336  0.69700  0.69004  1.0000
  H   H491      1.0  0.36744  0.86143  0.70388  1.0000
  H   H492      1.0  0.41104  0.98581  0.50661  1.0000
  H   H493      1.0  0.24337  0.55206  0.63230  1.0000
  H   H494      1.0  0.31594  0.80926  0.59760  1.0000
  C   C485      1.0  0.44223  0.81369  0.52162  1.0000
  C   C486      1.0  0.19971  0.55687  0.62201  1.0000
  H   H495      1.0  0.47512  0.82046  0.50843  1.0000
  C   C487      1.0  0.29017  0.76468  0.61460  1.0000
  H   H496      1.0  0.19393  0.56187  0.63583  1.0000
  C   C488      1.0  0.21962  0.49365  0.62096  1.0000
  C   C489      1.0  0.07715  0.60637  0.56326  1.0000
  H   H497      1.0  0.41143  0.81250  0.71248  1.0000
  H   H498      1.0  0.34897  0.80330  0.49445  1.0000
  C   C490      1.0  0.33105  0.76783  0.61289  1.0000
  C   C491      1.0  0.23686  0.53577  0.62853  1.0000
  C   C492      1.0  0.30994  0.84772  0.72883  1.0000
  H   H499      1.0  0.47926  0.81259  0.68318  1.0000
  H   H500      1.0  0.48160  0.91511  0.49668  1.0000
  H   H501      1.0  0.18809  0.51407  0.61505  1.0000
  C   C493      1.0  0.21896  0.67286  0.72982  1.0000
  H   H502      1.0  0.23289  0.66015  0.72608  1.0000
  C   C494      1.0  0.09923  0.63117  0.73928  1.0000
  N   N43       1.0  0.20612  0.68472  0.71690  1.0000
  H   H503      1.0  0.46409  0.88349  0.54702  1.0000
  H   H504      1.0  0.43860  0.89286  0.53458  1.0000
  S   S165      1.0  0.09949  0.63331  0.49205  1.0000
  C   C495      1.0  0.44592  0.87959  0.54445  1.0000
  C   C496      1.0  0.18295  0.70471  0.73976  1.0000
  Fe  Fe82      1.0  0.08068  0.60043  0.49584  1.0000
  C   C497      1.0  0.36162  0.87207  0.73109  1.0000
  C   C498      1.0  0.38283  0.97030  0.49443  1.0000
  H   H505      1.0  0.34926  0.88640  0.72752  1.0000
  C   C499      1.0  0.12021  0.51329  0.49540  1.0000
  H   H506      1.0  0.12722  0.60439  0.73961  1.0000
  S   S166      1.0  0.14146  0.53361  0.49286  1.0000
  C   C500      1.0  0.09687  0.51988  0.49219  1.0000
  Fe  Fe83      1.0  0.12588  0.57042  0.49194  1.0000
  Fe  Fe84      1.0  0.40196  0.89102  0.98820  1.0000
  C   C501      1.0  0.10367  0.63207  0.77619  1.0000
  C   C502      1.0  0.28326  0.97326  0.81385  1.0000
  H   H507      1.0  0.19166  0.69555  0.76716  1.0000
  Fe  Fe85      1.0  0.36259  0.87227  0.96665  1.0000
  S   S167      1.0  0.35490  0.85273  0.94136  1.0000
  S   S168      1.0  0.38060  0.90561  0.96516  1.0000
  Fe  Fe86      1.0  0.29161  0.87771  0.84295  1.0000
  S   S169      1.0  0.25356  0.88815  0.84022  1.0000
  S   S170      1.0  0.30374  0.89040  0.86983  1.0000
  Fe  Fe87      1.0  0.29500  0.86269  0.80306  1.0000
  S   S171      1.0  0.25715  0.87356  0.79851  1.0000
  S   S172      1.0  0.32054  0.84325  0.78316  1.0000
  Fe  Fe88      1.0  0.26392  0.90568  0.81394  1.0000
  S   S173      1.0  0.24784  0.94313  0.80914  1.0000
  Fe  Fe89      1.0  0.25034  0.85524  0.82542  1.0000
  S   S174      1.0  0.22179  0.83148  0.83623  1.0000
  S   S175      1.0  0.30203  0.89594  0.81675  1.0000
  S   S176      1.0  0.28791  0.84359  0.82979  1.0000
  H   H508      1.0  0.34410  0.80698  0.76246  1.0000
  C   C503      1.0  0.13307  0.49473  0.98377  1.0000
  C   C504      1.0  0.12562  0.51722  0.98942  1.0000
  C   C505      1.0  0.99353  0.63194  0.97865  1.0000
  C   C506      1.0  0.39292  0.96896  0.95622  1.0000
  Fe  Fe90      1.0  0.35439  0.91722  0.98646  1.0000
  Fe  Fe91      1.0  0.11835  0.61956  0.96894  1.0000
  S   S177      1.0  0.13499  0.62106  0.94040  1.0000
  S   S178      1.0  0.08688  0.59857  0.97286  1.0000
  Fe  Fe92      1.0  0.13007  0.68626  0.80430  1.0000
  S   S179      1.0  0.10963  0.71767  0.79322  1.0000
  S   S180      1.0  0.15115  0.66045  0.78609  1.0000
  Fe  Fe93      1.0  0.11560  0.69809  0.84393  1.0000
  S   S181      1.0  0.09500  0.73086  0.83444  1.0000
  S   S182      1.0  0.11007  0.69232  0.87463  1.0000
  Fe  Fe94      1.0  0.08083  0.70888  0.81350  1.0000
  S   S183      1.0  0.04333  0.69884  0.80861  1.0000
  Fe  Fe95      1.0  0.12585  0.73671  0.81530  1.0000
  S   S184      1.0  0.14359  0.77047  0.80663  1.0000
  S   S185      1.0  0.10084  0.67612  0.82344  1.0000
  S   S186      1.0  0.14706  0.70525  0.82585  1.0000
  C   C507      1.0  0.00534  0.73221  0.80919  1.0000
  C   C508      1.0  0.01309  0.70867  0.80868  1.0000
  C   C509      1.0  0.25556  0.96205  0.85370  1.0000
  H   H509      1.0  0.01791  0.74528  0.80938  1.0000
  H   H510      1.0  0.07302  0.65906  0.74305  1.0000
  H   H511      1.0  0.08262  0.68047  0.77855  1.0000
  C   C510      1.0  0.15277  0.65842  0.76220  1.0000
  H   H512      1.0  0.12578  0.68511  0.75662  1.0000
  C   C511      1.0  0.12995  0.64240  0.92268  1.0000
  C   C512      1.0  0.13977  0.63826  0.90538  1.0000
  C   C513      1.0  0.13446  0.65356  0.89056  1.0000
  C   C514      1.0  0.11960  0.67354  0.89294  1.0000
  C   C515      1.0  0.11064  0.67821  0.91040  1.0000
  C   C516      1.0  0.11556  0.66268  0.92513  1.0000
  H   H513      1.0  0.15116  0.62280  0.90334  1.0000
  H   H514      1.0  0.14170  0.64979  0.87729  1.0000
  H   H515      1.0  0.09932  0.69371  0.91248  1.0000
  H   H516      1.0  0.10805  0.66630  0.93834  1.0000
  H   H517      1.0  0.14805  0.49250  0.97464  1.0000
  S   S187      1.0  0.03689  0.64498  0.98501  1.0000
  C   C517      1.0  0.44603  0.96480  0.98369  1.0000
  C   C518      1.0  0.06096  0.63606  0.93617  1.0000
  C   C519      1.0  0.27470  0.94651  0.85691  1.0000
  H   H518      1.0  0.13213  0.83271  0.79010  1.0000
  H   H519      1.0  0.10637  0.63308  0.79048  1.0000
  C   C520      1.0  0.20333  0.81125  0.82723  1.0000
  C   C521      1.0  0.19960  0.81029  0.80880  1.0000
  C   C522      1.0  0.18216  0.79668  0.80265  1.0000
  C   C523      1.0  0.16853  0.78332  0.81471  1.0000
  C   C524      1.0  0.17311  0.78336  0.83305  1.0000
  C   C525      1.0  0.19019  0.79735  0.83923  1.0000
  H   H520      1.0  0.20954  0.82064  0.79929  1.0000
  H   H521      1.0  0.17884  0.79692  0.78845  1.0000
  H   H522      1.0  0.16274  0.77345  0.84258  1.0000
  H   H523      1.0  0.19281  0.79782  0.85351  1.0000
  C   C526      1.0  0.31985  0.83701  0.75980  1.0000
  S   S188      1.0  0.10316  0.65008  0.98433  1.0000
  S   S189      1.0  0.33467  0.88487  0.98668  1.0000
  C   C527      1.0  0.11785  0.61622  0.76621  1.0000
  H   H524      1.0  0.05605  0.66812  0.77291  1.0000
  C   C528      1.0  0.25975  0.97095  0.81063  1.0000
  H   H525      1.0  0.29502  0.95785  0.81497  1.0000
  H   H526      1.0  0.01216  0.70075  0.85165  1.0000
  C   C529      1.0  0.34238  0.86415  0.92098  1.0000
  C   C530      1.0  0.33199  0.88678  0.91943  1.0000
  C   C531      1.0  0.32067  0.89450  0.90357  1.0000
  C   C532      1.0  0.31950  0.87980  0.88901  1.0000
  C   C533      1.0  0.33005  0.85722  0.89047  1.0000
  C   C534      1.0  0.34142  0.84949  0.90634  1.0000
  H   H527      1.0  0.33242  0.89824  0.93056  1.0000
  H   H528      1.0  0.31258  0.91199  0.90266  1.0000
  H   H529      1.0  0.32939  0.84568  0.87942  1.0000
  H   H530      1.0  0.34939  0.83196  0.90734  1.0000
  H   H531      1.0  0.13128  0.60518  0.77275  1.0000
  C   C535      1.0  0.07519  0.61978  0.92665  1.0000
  C   C536      1.0  0.09562  0.60632  0.89920  1.0000
  H   H532      1.0  0.07698  0.64707  0.88593  1.0000
  N   N44       1.0  0.42689  0.97470  0.97278  1.0000
  N   N45       1.0  0.28466  0.83619  0.91280  1.0000
  C   C537      1.0  0.28787  0.81578  0.90397  1.0000
  C   C538      1.0  0.27277  0.85510  0.90499  1.0000
  C   C539      1.0  0.27923  0.81400  0.88678  1.0000
  C   C540      1.0  0.26392  0.85392  0.88783  1.0000
  C   C541      1.0  0.26713  0.83321  0.87871  1.0000
  C   C542      1.0  0.29302  0.83736  0.93109  1.0000
  H   H533      1.0  0.29730  0.80079  0.91015  1.0000
  H   H534      1.0  0.27060  0.87144  0.91180  1.0000
  H   H535      1.0  0.28196  0.79788  0.87970  1.0000
  H   H536      1.0  0.25515  0.86916  0.88145  1.0000
  H   H537      1.0  0.26035  0.83210  0.86537  1.0000
  H   H538      1.0  0.28017  0.83044  0.94103  1.0000
  H   H539      1.0  0.31004  0.82721  0.93254  1.0000
  H   H540      1.0  0.29607  0.85553  0.93440  1.0000
  H   H541      1.0  0.14071  0.83059  0.84711  1.0000
  C   C543      1.0  0.29565  0.95487  0.86162  1.0000
  C   C544      1.0  0.38091  0.84734  0.75361  1.0000
  N   N46       1.0  0.08744  0.64685  0.76792  1.0000
  C   C545      1.0  0.21412  0.67675  0.74807  1.0000
  H   H542      1.0  0.41462  0.94142  0.96849  1.0000
  C   C546      1.0  0.35355  0.97538  0.99091  1.0000
  H   H543      1.0  0.10420  0.61412  0.88700  1.0000
  H   H544      1.0  0.45636  0.85513  0.98652  1.0000
  H   H545      1.0  0.45596  0.95052  0.97651  1.0000
  H   H546      1.0  0.16848  0.71681  0.74354  1.0000
  C   C547      1.0  0.13812  0.67219  0.75090  1.0000
  H   H547      1.0  0.31058  0.94274  0.86408  1.0000
  H   H548      1.0  0.12055  0.81806  0.82062  1.0000
  H   H549      1.0  0.20431  0.86461  0.80534  1.0000
  H   H550      1.0  0.16395  0.85949  0.78621  1.0000
  C   C548      1.0  0.05799  0.66031  0.90911  1.0000
  C   C549      1.0  0.36606  0.86666  0.74912  1.0000
  C   C550      1.0  0.16307  0.85267  0.83122  1.0000
  H   H551      1.0  0.22407  0.66710  0.75833  1.0000
  S   S190      1.0  0.33722  0.95337  0.98324  1.0000
  H   H552      1.0  0.38359  0.84249  0.76765  1.0000
  C   C551      1.0  0.33433  0.81832  0.75313  1.0000
  C   C552      1.0  0.18937  0.87502  0.81156  1.0000
  C   C553      1.0  0.16871  0.64173  0.75440  1.0000
  C   C554      1.0  0.13367  0.83069  0.81893  1.0000
  H   H553      1.0  0.07071  0.65780  0.79262  1.0000
  N   N47       1.0  0.16948  0.86057  0.81430  1.0000
  C   C555      1.0  0.07214  0.64358  0.89996  1.0000
  C   C556      1.0  0.99416  0.70759  0.85295  1.0000
  C   C557      1.0  0.14027  0.83887  0.80174  1.0000
  C   C558      1.0  0.99626  0.69207  0.80824  1.0000
  C   C559      1.0  0.05244  0.65650  0.92736  1.0000
  H   H554      1.0  0.29623  0.86598  0.75229  1.0000
  N   N48       1.0  0.08079  0.62378  0.90884  1.0000
  C   C560      1.0  0.29723  0.97887  0.86287  1.0000
  H   H555      1.0  0.35714  0.87674  0.75965  1.0000
  C   C561      1.0  0.14504  0.83769  0.83379  1.0000
  S   S191      1.0  0.38608  0.85633  0.98844  1.0000
  H   H556      1.0  0.04187  0.66945  0.93479  1.0000
  C   C562      1.0  0.02175  0.60090  0.98745  1.0000
  C   C563      1.0  0.15834  0.85388  0.79965  1.0000
  H   H557      1.0  0.18012  0.63094  0.76297  1.0000
  H   H558      1.0  0.08511  0.59207  0.89524  1.0000
  H   H559      1.0  0.05689  0.63305  0.95037  1.0000
  C   C564      1.0  0.07357  0.66411  0.77845  1.0000
  H   H560      1.0  0.00192  0.67381  0.80773  1.0000
  H   H561      1.0  0.05208  0.67644  0.90221  1.0000
  H   H562      1.0  0.27345  0.92803  0.85546  1.0000
  H   H563      1.0  0.19527  0.88128  0.82445  1.0000
  H   H564      1.0  0.18487  0.89050  0.80268  1.0000
  H   H565      1.0  0.10984  0.59894  0.90788  1.0000
  H   H566      1.0  0.17265  0.85697  0.84276  1.0000
  H   H567      1.0  0.08226  0.60420  0.93368  1.0000
  C   C565      1.0  0.01623  0.62442  0.98317  1.0000
  H   H568      1.0  0.23946  0.95568  0.84939  1.0000
  H   H569      1.0  0.00276  0.74338  0.85228  1.0000
  C   C566      1.0  0.41203  0.96007  0.96597  1.0000
  C   C567      1.0  0.30733  0.85145  0.74749  1.0000
  C   C568      1.0  0.19600  0.69281  0.75303  1.0000
  H   H570      1.0  0.13492  0.53208  0.98470  1.0000
  Fe  Fe96      1.0  0.07268  0.62828  0.98937  1.0000
  H   H571      1.0  0.38060  0.95736  0.95151  1.0000
  C   C569      1.0  0.00434  0.58504  0.98781  1.0000
  C   C570      1.0  0.08525  0.64672  0.74969  1.0000
  H   H572      1.0  0.40179  0.81803  0.74361  1.0000
  C   C571      1.0  0.11563  0.61585  0.74763  1.0000
  S   S192      1.0  0.43839  0.90392  0.99054  1.0000
  H   H573      1.0  0.31364  0.98530  0.86637  1.0000
  C   C572      1.0  0.46678  0.88969  0.99025  1.0000
  C   C573      1.0  0.47083  0.86566  0.98842  1.0000
  C   C574      1.0  0.25774  0.98593  0.85504  1.0000
  H   H574      1.0  0.03923  0.59501  0.99107  1.0000
  H   H575      1.0  0.45837  0.97799  0.98667  1.0000
  H   H576      1.0  0.98929  0.65010  0.97518  1.0000
  H   H577      1.0  0.00852  0.56695  0.99155  1.0000
  Fe  Fe97      1.0  0.62514  0.11939  0.01219  1.0000
  S   S193      1.0  0.63843  0.13819  0.03593  1.0000
  S   S194      1.0  0.60453  0.08789  0.01490  1.0000
  Fe  Fe98      1.0  0.68393  0.13154  0.17696  1.0000
  S   S195      1.0  0.72089  0.11851  0.18179  1.0000
  S   S196      1.0  0.66314  0.15707  0.19551  1.0000
  Fe  Fe99      1.0  0.68648  0.11252  0.13775  1.0000
  S   S197      1.0  0.72407  0.09962  0.14047  1.0000
  S   S198      1.0  0.66640  0.09917  0.11448  1.0000
  Fe  Fe100     1.0  0.71234  0.08578  0.16787  1.0000
  S   S199      1.0  0.71693  0.04848  0.18021  1.0000
  Fe  Fe101     1.0  0.72919  0.13360  0.15403  1.0000
  S   S200      1.0  0.75294  0.16371  0.14684  1.0000
  S   S201      1.0  0.67476  0.09824  0.16503  1.0000
  S   S202      1.0  0.69209  0.14707  0.14934  1.0000
  Fe  Fe102     1.0  0.87083  0.36774  0.01461  1.0000
  S   S203      1.0  0.90342  0.38699  0.01109  1.0000
  S   S204      1.0  0.85593  0.36576  0.04362  1.0000
  H   H578      1.0  0.56271  0.10745  0.04086  1.0000
  Fe  Fe103     1.0  0.85804  0.24697  0.16626  1.0000
  S   S205      1.0  0.83614  0.27771  0.15545  1.0000
  S   S206      1.0  0.84429  0.21049  0.17101  1.0000
  Fe  Fe104     1.0  0.90161  0.27631  0.16933  1.0000
  S   S207      1.0  0.88149  0.30848  0.15854  1.0000
  S   S208      1.0  0.93759  0.28375  0.17957  1.0000
  Fe  Fe105     1.0  0.85195  0.29750  0.17723  1.0000
  S   S209      1.0  0.83164  0.32392  0.19539  1.0000
  Fe  Fe106     1.0  0.86785  0.28571  0.13800  1.0000
  S   S210      1.0  0.87078  0.28808  0.10704  1.0000
  S   S211      1.0  0.87242  0.26637  0.18879  1.0000
  S   S212      1.0  0.88934  0.25382  0.14803  1.0000
  C   C575      1.0  0.96746  0.27735  0.17261  1.0000
  C   C576      1.0  0.90754  0.35693  0.08470  1.0000
  C   C577      1.0  0.97435  0.26038  0.16017  1.0000
  H   H579      1.0  0.60323  0.01011  0.02577  1.0000
  H   H580      1.0  0.96130  0.25091  0.15413  1.0000
  S   S213      1.0  0.88390  0.33792  0.99756  1.0000
  C   C578      1.0  0.82651  0.32372  0.21928  1.0000
  C   C579      1.0  0.81302  0.34238  0.22699  1.0000
  H   H581      1.0  0.84689  0.29184  0.22517  1.0000
  H   H582      1.0  0.80515  0.35595  0.21828  1.0000
  C   C580      1.0  0.85915  0.34351  0.06090  1.0000
  C   C581      1.0  0.86933  0.32127  0.05754  1.0000
  C   C582      1.0  0.87225  0.30451  0.07178  1.0000
  C   C583      1.0  0.86535  0.30974  0.08961  1.0000
  C   C584      1.0  0.85497  0.33190  0.09296  1.0000
  C   C585      1.0  0.85176  0.34857  0.07867  1.0000
  H   H583      1.0  0.87481  0.31694  0.04396  1.0000
  H   H584      1.0  0.88015  0.28741  0.06897  1.0000
  H   H585      1.0  0.84941  0.33621  0.10653  1.0000
  H   H586      1.0  0.84372  0.36564  0.08144  1.0000
  C   C586      1.0  0.77799  0.17649  0.15452  1.0000
  C   C587      1.0  0.79441  0.16430  0.16532  1.0000
  C   C588      1.0  0.81440  0.17506  0.17034  1.0000
  C   C589      1.0  0.81814  0.19826  0.16494  1.0000
  C   C590      1.0  0.80140  0.21065  0.15454  1.0000
  C   C591      1.0  0.78168  0.19973  0.14919  1.0000
  H   H587      1.0  0.79196  0.14642  0.16953  1.0000
  H   H588      1.0  0.82717  0.16524  0.17841  1.0000
  H   H589      1.0  0.80389  0.22850  0.15028  1.0000
  H   H590      1.0  0.76913  0.20941  0.14085  1.0000
  C   C592      1.0  0.65739  0.15698  0.21926  1.0000
  H   H591      1.0  0.97858  0.41883  0.99530  1.0000
  H   H592      1.0  0.88489  0.31606  0.19728  1.0000
  H   H593      1.0  0.97996  0.30233  0.19008  1.0000
  H   H594      1.0  0.64560  0.19333  0.21880  1.0000
  C   C593      1.0  0.65880  0.03188  0.16706  1.0000
  C   C594      1.0  0.71087  0.00126  0.18159  1.0000
  C   C595      1.0  0.71829  0.02027  0.17088  1.0000
  C   C596      1.0  0.72714  0.01611  0.15345  1.0000
  C   C597      1.0  0.74415  0.16641  0.20979  1.0000
  H   H595      1.0  0.64002  0.03739  0.16632  1.0000
  H   H596      1.0  0.70422  0.00416  0.19517  1.0000
  H   H597      1.0  0.73320  0.03040  0.14509  1.0000
  C   C598      1.0  0.64820  0.12640  0.05706  1.0000
  C   C599      1.0  0.64598  0.10310  0.06245  1.0000
  C   C600      1.0  0.65200  0.09506  0.07995  1.0000
  C   C601      1.0  0.66067  0.11005  0.09221  1.0000
  C   C602      1.0  0.66332  0.13323  0.08669  1.0000
  C   C603      1.0  0.65699  0.14135  0.06928  1.0000
  H   H598      1.0  0.63918  0.09140  0.05327  1.0000
  H   H599      1.0  0.64982  0.07712  0.08404  1.0000
  H   H600      1.0  0.66987  0.14501  0.09593  1.0000
  H   H601      1.0  0.65877  0.15941  0.06530  1.0000
  C   C604      1.0  0.57814  0.09884  0.06627  1.0000
  C   C605      1.0  0.59172  0.14408  0.06427  1.0000
  C   C606      1.0  0.70790  0.19912  0.17522  1.0000
  H   H602      1.0  0.94035  0.32293  0.03488  1.0000
  H   H603      1.0  0.57306  0.08106  0.06671  1.0000
  S   S214      1.0  0.54292  0.10318  0.00573  1.0000
  N   N49       1.0  0.92401  0.33773  0.05864  1.0000
  S   S215      1.0  0.60017  0.13872  0.99326  1.0000
  H   H604      1.0  0.66119  0.01727  0.17716  1.0000
  H   H605      1.0  0.66762  0.12082  0.22448  1.0000
  H   H606      1.0  0.64579  0.01324  0.02365  1.0000
  C   C607      1.0  0.92972  0.31818  0.06902  1.0000
  C   C608      1.0  0.92856  0.33794  0.03914  1.0000
  H   H607      1.0  0.87098  0.35650  0.20469  1.0000
  C   C609      1.0  0.91289  0.35689  0.06621  1.0000
  C   C610      1.0  0.91337  0.33712  0.09540  1.0000
  C   C611      1.0  0.64839  0.17769  0.22718  1.0000
  H   H608      1.0  0.90846  0.33652  0.10963  1.0000
  C   C612      1.0  0.67434  0.04232  0.13699  1.0000
  H   H609      1.0  0.69302  0.00853  0.10223  1.0000
  C   C613      1.0  0.92451  0.31759  0.08754  1.0000
  N   N50       1.0  0.66827  0.02534  0.14928  1.0000
  H   H610      1.0  0.93787  0.30273  0.06296  1.0000
  C   C614      1.0  0.87429  0.35134  0.21858  1.0000
  H   H611      1.0  0.94325  0.45226  0.99719  1.0000
  H   H612      1.0  0.91193  0.33735  0.03217  1.0000
  H   H613      1.0  0.78151  0.20679  0.19523  1.0000
  C   C615      1.0  0.89095  0.32428  0.24013  1.0000
  H   H614      1.0  0.74296  0.15128  0.21884  1.0000
  H   H615      1.0  0.91336  0.32512  0.20197  1.0000
  H   H616      1.0  0.68824  0.05024  0.11033  1.0000
  H   H617      1.0  0.90730  0.37194  0.05783  1.0000
  C   C616      1.0  0.76566  0.19765  0.19663  1.0000
  H   H618      1.0  0.69119  0.19251  0.18047  1.0000
  H   H619      1.0  0.94838  0.39072  0.99287  1.0000
  C   C617      1.0  0.61467  0.99435  0.02608  1.0000
  C   C618      1.0  0.68322  0.03658  0.11988  1.0000
  H   H620      1.0  0.89801  0.37186  0.09054  1.0000
  H   H621      1.0  0.70518  0.21833  0.17358  1.0000
  H   H622      1.0  0.70994  0.16419  0.19999  1.0000
  C   C619      1.0  0.74669  0.20442  0.18599  1.0000
  H   H623      1.0  0.60813  0.13574  0.08954  1.0000
  H   H624      1.0  0.59796  0.16143  0.06322  1.0000
  H   H625      1.0  0.74812  0.21885  0.17631  1.0000
  H   H626      1.0  0.58962  0.15892  0.02933  1.0000
  H   H627      1.0  0.71207  0.19168  0.16183  1.0000
  H   H628      1.0  0.92830  0.30184  0.09569  1.0000
  C   C620      1.0  0.72548  0.17378  0.19903  1.0000
  C   C621      1.0  0.59754  0.12963  0.07918  1.0000
  N   N51       1.0  0.72694  0.19253  0.18730  1.0000
  C   C622      1.0  0.57352  0.15175  0.03534  1.0000
  N   N52       1.0  0.84629  0.20685  0.12081  1.0000
  C   C623      1.0  0.84799  0.22957  0.11516  1.0000
  C   C624      1.0  0.82688  0.19557  0.11745  1.0000
  C   C625      1.0  0.82961  0.24185  0.10644  1.0000
  C   C626      1.0  0.80819  0.20730  0.10871  1.0000
  C   C627      1.0  0.80957  0.23063  0.10327  1.0000
  C   C628      1.0  0.86585  0.19415  0.12969  1.0000
  H   H629      1.0  0.86355  0.23843  0.11742  1.0000
  H   H630      1.0  0.82545  0.17758  0.12200  1.0000
  H   H631      1.0  0.83099  0.25999  0.10222  1.0000
  H   H632      1.0  0.79259  0.19842  0.10652  1.0000
  H   H633      1.0  0.79514  0.24003  0.09663  1.0000
  H   H634      1.0  0.85962  0.18060  0.13944  1.0000
  H   H635      1.0  0.87800  0.18587  0.11955  1.0000
  H   H636      1.0  0.87542  0.20598  0.13772  1.0000
  H   H637      1.0  0.93703  0.35397  0.03450  1.0000
  C   C629      1.0  0.66083  0.13692  0.23030  1.0000
  C   C630      1.0  0.92391  0.48022  0.01084  1.0000
  H   H638      1.0  0.90280  0.29905  0.21253  1.0000
  H   H639      1.0  0.59595  0.09526  0.09133  1.0000
  N   N53       1.0  0.57937  0.13610  0.05074  1.0000
  H   H640      1.0  0.66812  0.04643  0.17212  1.0000
  C   C631      1.0  0.59082  0.10682  0.08010  1.0000
  C   C632      1.0  0.57241  0.11385  0.05163  1.0000
  C   C633      1.0  0.72880  0.99329  0.14699  1.0000
  C   C634      1.0  0.98493  0.28925  0.18038  1.0000
  C   C635      1.0  0.76439  0.17840  0.20850  1.0000
  N   N54       1.0  0.88733  0.33119  0.22260  1.0000
  C   C636      1.0  0.83652  0.30634  0.23079  1.0000
  H   H641      1.0  0.67256  0.06047  0.14041  1.0000
  H   H642      1.0  0.85282  0.38029  0.22906  1.0000
  C   C637      1.0  0.89766  0.31722  0.20794  1.0000
  H   H643      1.0  0.73604  0.99034  0.13359  1.0000
  C   C638      1.0  0.67022  0.00246  0.14482  1.0000
  C   C639      1.0  0.68574  0.01327  0.11534  1.0000
  C   C640      1.0  0.96589  0.38449  0.99606  1.0000
  C   C641      1.0  0.86390  0.47266  0.99430  1.0000
  H   H644      1.0  0.77920  0.17262  0.21649  1.0000
  C   C642      1.0  0.63875  0.99624  0.02495  1.0000
  H   H645      1.0  0.85584  0.45764  0.00023  1.0000
  C   C643      1.0  0.98302  0.40039  0.99729  1.0000
  H   H646      1.0  0.56129  0.16633  0.03969  1.0000
  C   C644      1.0  0.97175  0.36061  0.99818  1.0000
  C   C645      1.0  0.67911  0.99605  0.12783  1.0000
  H   H647      1.0  0.91211  0.46859  0.01762  1.0000
  H   H648      1.0  0.56527  0.14260  0.02461  1.0000
  C   C646      1.0  0.94155  0.47084  0.99929  1.0000
  Fe  Fe107     1.0  0.91540  0.35837  0.99278  1.0000
  S   S216      1.0  0.95103  0.34052  0.99502  1.0000
  H   H649      1.0  0.49782  0.08704  0.01448  1.0000
  C   C647      1.0  0.49596  0.09900  0.00299  1.0000
  C   C648      1.0  0.86398  0.36487  0.23231  1.0000
  Fe  Fe108     1.0  0.58036  0.10623  0.99488  1.0000
  C   C649      1.0  0.51576  0.10904  0.99527  1.0000
  H   H650      1.0  0.66563  0.98891  0.15458  1.0000
  Fe  Fe109     1.0  0.61497  0.18660  0.34236  1.0000
  S   S217      1.0  0.60875  0.22563  0.34059  1.0000
  S   S218      1.0  0.60243  0.16484  0.36692  1.0000
  Fe  Fe110     1.0  0.62620  0.18460  0.30101  1.0000
  S   S219      1.0  0.61947  0.22335  0.29692  1.0000
  S   S220      1.0  0.63709  0.15725  0.28009  1.0000
  Fe  Fe111     1.0  0.64057  0.22604  0.32175  1.0000
  S   S221      1.0  0.67430  0.24561  0.32269  1.0000
  Fe  Fe112     1.0  0.58821  0.21943  0.31619  1.0000
  S   S222      1.0  0.55129  0.23683  0.31328  1.0000
  S   S223      1.0  0.64803  0.18698  0.32523  1.0000
  S   S224      1.0  0.59366  0.18073  0.31837  1.0000
  Fe  Fe113     1.0  0.61634  0.12701  0.47052  1.0000
  S   S225      1.0  0.58373  0.10875  0.46768  1.0000
  S   S226      1.0  0.63728  0.14224  0.44669  1.0000
  H   H651      1.0  0.85837  0.36745  0.26099  1.0000
  H   H652      1.0  0.68509  0.27717  0.28665  1.0000
  H   H653      1.0  0.97779  0.40724  0.44728  1.0000
  C   C650      1.0  0.81525  0.41653  0.43478  1.0000
  C   C651      1.0  0.79615  0.40288  0.43451  1.0000
  C   C652      1.0  0.61100  0.07353  0.41971  1.0000
  Fe  Fe114     1.0  0.77974  0.40313  0.31215  1.0000
  S   S227      1.0  0.81477  0.38368  0.31473  1.0000
  S   S228      1.0  0.77837  0.44096  0.30069  1.0000
  Fe  Fe115     1.0  0.75457  0.35865  0.32378  1.0000
  S   S229      1.0  0.78843  0.33750  0.32802  1.0000
  S   S230      1.0  0.71779  0.34512  0.32645  1.0000
  Fe  Fe116     1.0  0.80019  0.36928  0.34116  1.0000
  S   S231      1.0  0.82488  0.37398  0.36424  1.0000
  Fe  Fe117     1.0  0.79996  0.35391  0.30128  1.0000
  S   S232      1.0  0.81955  0.32909  0.28131  1.0000
  S   S233      1.0  0.76545  0.38956  0.33881  1.0000
  S   S234      1.0  0.76583  0.37417  0.29679  1.0000
  Fe  Fe118     1.0  0.85638  0.36923  0.46885  1.0000
  S   S235      1.0  0.88282  0.39593  0.46369  1.0000
  S   S236      1.0  0.84146  0.34773  0.44723  1.0000
  H   H654      1.0  0.79013  0.39393  0.44675  1.0000
  C   C653      1.0  0.77480  0.47142  0.32925  1.0000
  H   H655      1.0  0.85246  0.44352  0.40659  1.0000
  C   C654      1.0  0.86678  0.47438  0.46917  1.0000
  C   C655      1.0  0.64280  0.17836  0.24582  1.0000
  C   C656      1.0  0.51376  0.12951  0.48300  1.0000
  H   H656      1.0  0.63023  0.09650  0.40192  1.0000
  H   H657      1.0  0.57688  0.05868  0.44978  1.0000
  S   S237      1.0  0.84564  0.45467  0.46611  1.0000
  H   H658      1.0  0.78736  0.48634  0.28561  1.0000
  H   H659      1.0  0.51243  0.19188  0.27847  1.0000
  C   C657      1.0  0.82063  0.32697  0.25737  1.0000
  H   H660      1.0  0.70665  0.25386  0.28965  1.0000
  C   C658      1.0  0.60066  0.01824  0.48703  1.0000
  H   H661      1.0  0.84179  0.29462  0.25835  1.0000
  H   H662      1.0  0.76877  0.32913  0.27929  1.0000
  C   C659      1.0  0.77933  0.46850  0.31084  1.0000
  H   H663      1.0  0.77116  0.45647  0.33788  1.0000
  N   N55       1.0  0.82364  0.42700  0.41930  1.0000
  C   C660      1.0  0.82767  0.36776  0.38771  1.0000
  C   C661      1.0  0.84596  0.37711  0.39645  1.0000
  C   C662      1.0  0.84967  0.37206  0.41486  1.0000
  C   C663      1.0  0.83542  0.35715  0.42473  1.0000
  C   C664      1.0  0.81713  0.34777  0.41601  1.0000
  C   C665      1.0  0.81306  0.35327  0.39768  1.0000
  H   H664      1.0  0.85747  0.38821  0.38887  1.0000
  H   H665      1.0  0.86403  0.37912  0.42127  1.0000
  H   H666      1.0  0.80610  0.33607  0.42347  1.0000
  H   H667      1.0  0.79897  0.34590  0.39118  1.0000
  H   H668      1.0  0.95069  0.36054  0.47156  1.0000
  C   C666      1.0  0.50317  0.23996  0.31237  1.0000
  H   H669      1.0  0.94975  0.42598  0.46943  1.0000
  C   C667      1.0  0.62559  0.06621  0.44894  1.0000
  H   H670      1.0  0.62398  0.05834  0.46236  1.0000
  C   C668      1.0  0.59002  0.04855  0.44137  1.0000
  C   C669      1.0  0.68575  0.27344  0.32498  1.0000
  C   C670      1.0  0.71007  0.27470  0.32563  1.0000
  C   C671      1.0  0.72019  0.29631  0.32628  1.0000
  C   C672      1.0  0.70611  0.31712  0.32640  1.0000
  C   C673      1.0  0.68181  0.31584  0.32589  1.0000
  C   C674      1.0  0.67169  0.29423  0.32513  1.0000
  H   H671      1.0  0.72119  0.25879  0.32552  1.0000
  H   H672      1.0  0.73888  0.29688  0.32666  1.0000
  H   H673      1.0  0.67068  0.33175  0.32598  1.0000
  H   H674      1.0  0.65302  0.29371  0.32457  1.0000
  C   C675      1.0  0.62702  0.14901  0.42473  1.0000
  C   C676      1.0  0.60622  0.14105  0.41906  1.0000
  C   C677      1.0  0.59936  0.14562  0.40122  1.0000
  C   C678      1.0  0.61277  0.15882  0.38895  1.0000
  C   C679      1.0  0.63343  0.16702  0.39466  1.0000
  C   C680      1.0  0.64059  0.16194  0.41240  1.0000
  H   H675      1.0  0.59564  0.13101  0.42834  1.0000
  H   H676      1.0  0.58338  0.13914  0.39693  1.0000
  H   H677      1.0  0.64400  0.17710  0.38538  1.0000
  H   H678      1.0  0.65678  0.16808  0.41659  1.0000
  C   C681      1.0  0.52047  0.20141  0.31898  1.0000
  C   C682      1.0  0.52326  0.22509  0.31526  1.0000
  S   S238      1.0  0.82965  0.39369  0.48195  1.0000
  H   H679      1.0  0.53563  0.18965  0.32117  1.0000
  C   C683      1.0  0.83356  0.30797  0.24965  1.0000
  H   H680      1.0  0.90123  0.30828  0.24331  1.0000
  C   C684      1.0  0.64574  0.15815  0.25678  1.0000
  H   H681      1.0  0.59790  0.18751  0.26877  1.0000
  H   H682      1.0  0.72740  0.34330  0.28502  1.0000
  C   C685      1.0  0.88077  0.33734  0.25419  1.0000
  H   H683      1.0  0.65966  0.10251  0.42446  1.0000
  C   C686      1.0  0.79368  0.41156  0.40265  1.0000
  C   C687      1.0  0.54277  0.21143  0.27405  1.0000
  C   C688      1.0  0.71458  0.30920  0.28308  1.0000
  C   C689      1.0  0.75511  0.31708  0.27970  1.0000
  N   N56       1.0  0.60954  0.06280  0.43641  1.0000
  C   C690      1.0  0.84379  0.44106  0.42004  1.0000
  N   N57       1.0  0.72023  0.28600  0.28089  1.0000
  N   N58       1.0  0.56755  0.16842  0.27209  1.0000
  Fe  Fe119     1.0  0.85656  0.41951  0.47812  1.0000
  H   H684      1.0  0.65714  0.12171  0.25716  1.0000
  C   C691      1.0  0.54391  0.16949  0.27500  1.0000
  H   H685      1.0  0.57611  0.22599  0.27069  1.0000
  H   H686      1.0  0.65641  0.08348  0.45481  1.0000
  H   H687      1.0  0.78580  0.40925  0.38987  1.0000
  H   H688      1.0  0.56836  0.00145  0.48759  1.0000
  H   H689      1.0  0.59791  0.07146  0.40995  1.0000
  H   H690      1.0  0.59500  0.14611  0.26101  1.0000
  C   C692      1.0  0.51989  0.10561  0.48267  1.0000
  H   H691      1.0  0.59610  0.03269  0.44932  1.0000
  C   C693      1.0  0.64401  0.08028  0.44474  1.0000
  C   C694      1.0  0.70194  0.26953  0.28099  1.0000
  H   H692      1.0  0.85696  0.43243  0.42910  1.0000
  C   C695      1.0  0.96502  0.36536  0.47926  1.0000
  N   N59       1.0  0.56374  0.20779  0.38172  1.0000
  C   C696      1.0  0.58304  0.21814  0.38671  1.0000
  C   C697      1.0  0.55308  0.19256  0.39336  1.0000
  C   C698      1.0  0.59193  0.21362  0.40381  1.0000
  C   C699      1.0  0.56129  0.18793  0.41069  1.0000
  C   C700      1.0  0.58092  0.19846  0.41588  1.0000
  C   C701      1.0  0.55538  0.21173  0.36340  1.0000
  H   H693      1.0  0.59198  0.22962  0.37735  1.0000
  H   H694      1.0  0.53841  0.18360  0.38917  1.0000
  H   H695      1.0  0.60765  0.22130  0.40750  1.0000
  H   H696      1.0  0.55305  0.17560  0.41983  1.0000
  H   H697      1.0  0.58804  0.19427  0.42900  1.0000
  H   H698      1.0  0.55908  0.22933  0.35782  1.0000
  H   H699      1.0  0.56410  0.19854  0.35445  1.0000
  H   H700      1.0  0.53626  0.21047  0.36301  1.0000
  N   N60       1.0  0.85632  0.30693  0.40156  1.0000
  C   C702      1.0  0.86884  0.32071  0.38999  1.0000
  C   C703      1.0  0.83731  0.29676  0.39580  1.0000
  C   C704      1.0  0.86205  0.32512  0.37227  1.0000
  C   C705      1.0  0.82997  0.30088  0.37818  1.0000
  C   C706      1.0  0.84238  0.31527  0.36640  1.0000
  C   C707      1.0  0.86369  0.30235  0.42007  1.0000
  H   H701      1.0  0.88377  0.32898  0.39457  1.0000
  H   H702      1.0  0.82740  0.28582  0.40498  1.0000
  H   H703      1.0  0.87129  0.33695  0.36334  1.0000
  H   H704      1.0  0.81447  0.29342  0.37379  1.0000
  H   H705      1.0  0.83642  0.31938  0.35291  1.0000
  H   H706      1.0  0.84835  0.30157  0.42957  1.0000
  H   H707      1.0  0.87450  0.28569  0.42109  1.0000
  H   H708      1.0  0.87380  0.31661  0.42469  1.0000
  C   C708      1.0  0.64588  0.09093  0.42766  1.0000
  H   H709      1.0  0.50498  0.25831  0.30946  1.0000
  C   C709      1.0  0.78534  0.40038  0.41832  1.0000
  C   C710      1.0  0.76073  0.29346  0.27739  1.0000
  C   C711      1.0  0.58713  0.99889  0.48669  1.0000
  H   H710      1.0  0.56979  0.13155  0.26863  1.0000
  H   H711      1.0  0.58151  0.04268  0.42938  1.0000
  C   C712      1.0  0.86713  0.35770  0.25021  1.0000
  C   C713      1.0  0.62928  0.08761  0.41504  1.0000
  C   C714      1.0  0.73192  0.32505  0.28265  1.0000
  H   H712      1.0  0.82358  0.41843  0.44738  1.0000
  H   H713      1.0  0.77881  0.28726  0.27521  1.0000
  H   H714      1.0  0.53755  0.09905  0.48513  1.0000
  C   C715      1.0  0.53114  0.19100  0.27588  1.0000
  H   H715      1.0  0.83821  0.45834  0.42547  1.0000
  C   C716      1.0  0.81293  0.42495  0.40339  1.0000
  C   C717      1.0  0.56690  0.21017  0.27148  1.0000
  C   C718      1.0  0.90394  0.48305  0.48059  1.0000
  H   H716      1.0  0.74743  0.25967  0.27633  1.0000
  H   H717      1.0  0.77084  0.38942  0.41783  1.0000
  C   C719      1.0  0.50285  0.08998  0.48007  1.0000
  H   H718      1.0  0.81957  0.43312  0.39105  1.0000
  C   C720      1.0  0.74295  0.27805  0.27804  1.0000
  C   C721      1.0  0.58086  0.14582  0.27162  1.0000
  C   C722      1.0  0.96836  0.42657  0.47096  1.0000
  H   H719      1.0  0.50751  0.07146  0.48042  1.0000
  C   C723      1.0  0.49803  0.19281  0.31949  1.0000
  C   C724      1.0  0.98409  0.41603  0.45856  1.0000
  H   H720      1.0  0.69925  0.26416  0.26712  1.0000
  C   C725      1.0  0.63543  0.99193  0.48406  1.0000
  H   H721      1.0  0.53319  0.22823  0.27531  1.0000
  H   H722      1.0  0.63595  0.19444  0.25161  1.0000
  S   S239      1.0  0.58608  0.04640  0.48809  1.0000
  H   H723      1.0  0.49623  0.17442  0.32216  1.0000
  H   H724      1.0  0.69666  0.31555  0.28573  1.0000
  H   H725      1.0  0.58904  0.14182  0.28478  1.0000
  H   H726      1.0  0.63563  0.02927  0.48631  1.0000
  H   H727      1.0  0.80008  0.35877  0.25148  1.0000
  C   C726      1.0  0.62493  0.01464  0.48585  1.0000
  C   C727      1.0  0.81007  0.34402  0.24587  1.0000
  C   C728      1.0  0.57910  0.18839  0.27053  1.0000
  Fe  Fe120     1.0  0.89530  0.38578  0.49150  1.0000
  C   C729      1.0  0.65482  0.13749  0.24887  1.0000
  H   H728      1.0  0.88275  0.33134  0.26808  1.0000
  H   H729      1.0  0.53477  0.15370  0.27680  1.0000
  C   C730      1.0  0.88804  0.46680  0.47662  1.0000
  Fe  Fe121     1.0  0.59674  0.08371  0.48970  1.0000
  S   S240      1.0  0.63095  0.10024  0.49097  1.0000
  S   S241      1.0  0.53400  0.14892  0.48888  1.0000
  H   H730      1.0  0.89205  0.44849  0.47962  1.0000
  Fe  Fe122     1.0  0.56959  0.13074  0.49022  1.0000
  C   C731      1.0  0.49081  0.13782  0.47997  1.0000
  C   C732      1.0  0.97676  0.43656  0.48603  1.0000
  H   H731      1.0  0.92017  0.47722  0.48667  1.0000
  H   H732      1.0  0.65419  0.98931  0.48299  1.0000
  C   C733      1.0  0.98817  0.35865  0.47381  1.0000
  Fe  Fe123     1.0  0.61289  0.12309  0.51217  1.0000
  S   S242      1.0  0.57975  0.10472  0.51214  1.0000
  S   S243      1.0  0.63153  0.13106  0.53770  1.0000
  Fe  Fe124     1.0  0.60267  0.18966  0.63496  1.0000
  S   S244      1.0  0.59526  0.22805  0.63862  1.0000
  S   S245      1.0  0.58787  0.17803  0.60887  1.0000
  Fe  Fe125     1.0  0.61970  0.18269  0.67415  1.0000
  S   S246      1.0  0.61256  0.22055  0.67998  1.0000
  S   S247      1.0  0.63554  0.15461  0.69366  1.0000
  Fe  Fe126     1.0  0.57895  0.21743  0.66540  1.0000
  S   S248      1.0  0.54264  0.23248  0.67451  1.0000
  Fe  Fe127     1.0  0.62949  0.22760  0.65253  1.0000
  S   S249      1.0  0.66015  0.24934  0.64289  1.0000
  S   S250      1.0  0.58521  0.17923  0.66139  1.0000
  S   S251      1.0  0.63781  0.18953  0.64717  1.0000
  Fe  Fe128     1.0  0.84565  0.38367  0.50854  1.0000
  S   S252      1.0  0.87050  0.41200  0.50548  1.0000
  S   S253      1.0  0.81828  0.38106  0.53178  1.0000
  Fe  Fe129     1.0  0.79328  0.36697  0.64078  1.0000
  S   S254      1.0  0.75707  0.38443  0.64084  1.0000
  S   S255      1.0  0.82034  0.36400  0.61739  1.0000
  Fe  Fe130     1.0  0.79162  0.35835  0.68234  1.0000
  S   S256      1.0  0.75576  0.37638  0.68460  1.0000
  S   S257      1.0  0.80889  0.33438  0.70439  1.0000
  Fe  Fe131     1.0  0.74705  0.35577  0.66084  1.0000
  S   S258      1.0  0.71230  0.33837  0.66586  1.0000
  Fe  Fe132     1.0  0.76860  0.40357  0.66451  1.0000
  S   S259      1.0  0.75669  0.44271  0.66454  1.0000
  S   S260      1.0  0.78257  0.33707  0.65907  1.0000
  S   S261      1.0  0.80518  0.38696  0.66388  1.0000
  C   C734      1.0  0.76983  0.46999  0.66318  1.0000
  H   H733      1.0  0.49947  0.14952  0.52400  1.0000
  H   H734      1.0  0.80402  0.45665  0.67066  1.0000
  C   C735      1.0  0.55763  0.19053  0.70759  1.0000
  C   C736      1.0  0.81726  0.33365  0.72736  1.0000
  C   C737      1.0  0.81651  0.35356  0.73760  1.0000
  H   H735      1.0  0.84707  0.40783  0.61109  1.0000
  H   H736      1.0  0.82585  0.29663  0.72778  1.0000
  H   H737      1.0  0.52064  0.18076  0.61394  1.0000
  C   C738      1.0  0.76929  0.43474  0.59807  1.0000
  C   C739      1.0  0.81940  0.37554  0.55550  1.0000
  C   C740      1.0  0.79836  0.37506  0.56578  1.0000
  C   C741      1.0  0.79823  0.37120  0.58464  1.0000
  C   C742      1.0  0.81921  0.36773  0.59353  1.0000
  C   C743      1.0  0.84023  0.36809  0.58326  1.0000
  C   C744      1.0  0.84037  0.37204  0.56440  1.0000
  H   H738      1.0  0.78202  0.37761  0.55906  1.0000
  H   H739      1.0  0.78190  0.37092  0.59229  1.0000
  H   H740      1.0  0.85659  0.36531  0.58993  1.0000
  H   H741      1.0  0.85669  0.37224  0.55674  1.0000
  H   H742      1.0  0.78640  0.42714  0.57246  1.0000
  H   H743      1.0  0.53746  0.24697  0.63216  1.0000
  H   H744      1.0  0.83426  0.40990  0.63305  1.0000
  C   C745      1.0  0.67416  0.27435  0.64945  1.0000
  C   C746      1.0  0.66510  0.28872  0.66312  1.0000
  C   C747      1.0  0.67677  0.30840  0.66761  1.0000
  C   C748      1.0  0.69785  0.31394  0.65873  1.0000
  C   C749      1.0  0.70702  0.29947  0.64515  1.0000
  C   C750      1.0  0.69519  0.27995  0.64051  1.0000
  H   H745      1.0  0.64893  0.28487  0.67008  1.0000
  H   H746      1.0  0.66939  0.31942  0.67809  1.0000
  H   H747      1.0  0.72316  0.30337  0.63816  1.0000
  H   H748      1.0  0.70241  0.26910  0.62987  1.0000
  C   C751      1.0  0.64076  0.15510  0.71707  1.0000
  H   H749      1.0  0.72756  0.47284  0.70001  1.0000
  H   H750      1.0  0.72998  0.14240  0.71836  1.0000
  H   H751      1.0  0.70047  0.15349  0.71535  1.0000
  S   S262      1.0  0.60124  0.15091  0.49178  1.0000
  H   H752      1.0  0.62391  0.18900  0.72135  1.0000
  C   C752      1.0  0.51512  0.22092  0.67140  1.0000
  C   C753      1.0  0.51334  0.19844  0.66537  1.0000
  C   C754      1.0  0.49130  0.19032  0.66235  1.0000
  H   H753      1.0  0.52894  0.18736  0.66285  1.0000
  C   C755      1.0  0.53170  0.21331  0.62224  1.0000
  C   C756      1.0  0.61861  0.14247  0.55788  1.0000
  C   C757      1.0  0.63249  0.14408  0.57290  1.0000
  C   C758      1.0  0.62339  0.15459  0.58872  1.0000
  C   C759      1.0  0.60021  0.16354  0.58973  1.0000
  C   C760      1.0  0.58628  0.16171  0.57479  1.0000
  C   C761      1.0  0.59540  0.15131  0.55896  1.0000
  H   H754      1.0  0.65045  0.13726  0.57223  1.0000
  H   H755      1.0  0.63432  0.15581  0.60009  1.0000
  H   H756      1.0  0.56834  0.16857  0.57540  1.0000
  H   H757      1.0  0.58455  0.15032  0.54751  1.0000
  C   C762      1.0  0.79302  0.47210  0.66740  1.0000
  H   H758      1.0  0.51004  0.07521  0.52532  1.0000
  C   C763      1.0  0.76305  0.47237  0.70805  1.0000
  C   C764      1.0  0.83587  0.41952  0.61986  1.0000
  N   N61       1.0  0.64655  0.19952  0.56498  1.0000
  C   C765      1.0  0.66596  0.19962  0.57500  1.0000
  C   C766      1.0  0.62556  0.20883  0.57150  1.0000
  C   C767      1.0  0.66459  0.20901  0.59210  1.0000
  C   C768      1.0  0.62357  0.21827  0.58857  1.0000
  C   C769      1.0  0.64324  0.21838  0.59889  1.0000
  C   C770      1.0  0.64861  0.19018  0.54690  1.0000
  H   H759      1.0  0.68260  0.19229  0.56981  1.0000
  H   H760      1.0  0.61006  0.20842  0.56374  1.0000
  H   H761      1.0  0.67992  0.20901  0.60012  1.0000
  H   H762      1.0  0.60677  0.22496  0.59394  1.0000
  H   H763      1.0  0.64195  0.22563  0.61217  1.0000
  H   H764      1.0  0.63141  0.18620  0.54194  1.0000
  H   H765      1.0  0.65651  0.20284  0.53728  1.0000
  H   H766      1.0  0.65949  0.17345  0.54693  1.0000
  H   H767      1.0  0.96433  0.44392  0.49591  1.0000
  N   N62       1.0  0.49172  0.20485  0.61978  1.0000
  C   C771      1.0  0.97943  0.38442  0.50449  1.0000
  H   H768      1.0  0.84970  0.46278  0.50683  1.0000
  C   C772      1.0  0.58978  0.13515  0.72321  1.0000
  H   H769      1.0  0.55078  0.18324  0.69541  1.0000
  H   H770      1.0  0.88099  0.48369  0.51945  1.0000
  S   S263      1.0  0.87083  0.35664  0.49586  1.0000
  H   H771      1.0  0.75216  0.43808  0.59260  1.0000
  H   H772      1.0  0.79637  0.43213  0.63779  1.0000
  H   H773      1.0  0.81245  0.48418  0.49918  1.0000
  H   H774      1.0  0.59869  0.11991  0.71732  1.0000
  H   H775      1.0  0.70619  0.12762  0.72923  1.0000
  C   C773      1.0  0.71260  0.14490  0.72525  1.0000
  H   H776      1.0  0.78039  0.30210  0.69133  1.0000
  H   H777      1.0  0.49028  0.17292  0.65765  1.0000
  N   N63       1.0  0.74390  0.30139  0.69719  1.0000
  C   C774      1.0  0.72400  0.29068  0.69434  1.0000
  C   C775      1.0  0.76456  0.29372  0.68906  1.0000
  C   C776      1.0  0.72438  0.27197  0.68289  1.0000
  C   C777      1.0  0.76551  0.27531  0.67730  1.0000
  C   C778      1.0  0.74523  0.26448  0.67415  1.0000
  H   H778      1.0  0.49529  0.25899  0.63501  1.0000
  H   H779      1.0  0.70751  0.29722  0.70034  1.0000
  H   H780      1.0  0.57940  0.15032  0.69777  1.0000
  H   H781      1.0  0.70837  0.26409  0.68016  1.0000
  H   H782      1.0  0.78182  0.26985  0.67047  1.0000
  H   H783      1.0  0.74553  0.25059  0.66471  1.0000
  H   H784      1.0  0.65828  0.12080  0.71753  1.0000
  N   N64       1.0  0.56836  0.17220  0.71941  1.0000
  H   H785      1.0  0.57062  0.20316  0.70324  1.0000
  C   C779      1.0  0.57887  0.15250  0.71219  1.0000
  S   S264      1.0  0.93204  0.38918  0.50146  1.0000
  C   C780      1.0  0.77223  0.43620  0.61649  1.0000
  C   C781      1.0  0.79430  0.43118  0.62342  1.0000
  H   H786      1.0  0.84450  0.43585  0.62159  1.0000
  N   N65       1.0  0.81290  0.42475  0.61231  1.0000
  C   C782      1.0  0.78846  0.42874  0.58678  1.0000
  H   H787      1.0  0.49553  0.25226  0.67947  1.0000
  H   H788      1.0  0.75745  0.44083  0.62544  1.0000
  C   C783      1.0  0.81032  0.42399  0.59415  1.0000
  C   C784      1.0  0.74272  0.32134  0.70887  1.0000
  H   H789      1.0  0.55005  0.20771  0.62137  1.0000
  H   H790      1.0  0.75985  0.32893  0.70962  1.0000
  C   C785      1.0  0.49835  0.09081  0.52531  1.0000
  H   H791      1.0  0.82501  0.41881  0.58530  1.0000
  C   C786      1.0  0.51493  0.19813  0.61810  1.0000
  C   C787      1.0  0.65226  0.13548  0.72550  1.0000
  C   C788      1.0  0.52464  0.23542  0.62816  1.0000
  C   C789      1.0  0.50730  0.11264  0.52575  1.0000
  H   H792      1.0  0.81052  0.37021  0.73164  1.0000
  H   H793      1.0  0.97614  0.39436  0.51646  1.0000
  C   C790      1.0  0.82519  0.31219  0.73549  1.0000
  C   C791      1.0  0.50096  0.24218  0.62975  1.0000
  H   H794      1.0  0.73699  0.31600  0.72272  1.0000
  C   C792      1.0  0.49446  0.23490  0.67469  1.0000
  H   H795      1.0  0.76542  0.45350  0.70869  1.0000
  H   H796      1.0  0.73026  0.33528  0.70349  1.0000
  H   H797      1.0  0.54264  0.20013  0.71445  1.0000
  C   C793      1.0  0.63286  0.17383  0.72758  1.0000
  C   C794      1.0  0.84676  0.48107  0.50977  1.0000
  H   H798      1.0  0.52596  0.11414  0.52594  1.0000
  C   C795      1.0  0.78155  0.48584  0.71126  1.0000
  C   C796      1.0  0.56906  0.17552  0.73747  1.0000
  C   C797      1.0  0.96054  0.37843  0.49461  1.0000
  H   H799      1.0  0.79838  0.47751  0.71455  1.0000
  C   C798      1.0  0.49216  0.13265  0.52470  1.0000
  C   C799      1.0  0.74174  0.48326  0.70317  1.0000
  H   H800      1.0  0.68257  0.17944  0.73609  1.0000
  N   N66       1.0  0.71387  0.15869  0.74127  1.0000
  C   C800      1.0  0.59035  0.13826  0.74167  1.0000
  C   C801      1.0  0.91396  0.28590  0.76653  1.0000
  H   H801      1.0  0.98149  0.23225  0.84328  1.0000
  C   C802      1.0  0.83229  0.31058  0.75351  1.0000
  H   H802      1.0  0.94802  0.25207  0.77145  1.0000
  H   H803      1.0  0.83810  0.29389  0.75949  1.0000
  C   C803      1.0  0.62406  0.01851  0.98455  1.0000
  Fe  Fe133     1.0  0.62136  0.12177  0.97042  1.0000
  S   S265      1.0  0.63784  0.14084  0.94603  1.0000
  S   S266      1.0  0.59966  0.09068  0.97064  1.0000
  Fe  Fe134     1.0  0.67376  0.13102  0.79851  1.0000
  S   S267      1.0  0.71170  0.12063  0.79361  1.0000
  S   S268      1.0  0.65068  0.15262  0.77845  1.0000
  Fe  Fe135     1.0  0.67674  0.11762  0.83952  1.0000
  S   S269      1.0  0.71527  0.10773  0.83683  1.0000
  S   S270      1.0  0.65395  0.10933  0.86471  1.0000
  Fe  Fe136     1.0  0.71794  0.14001  0.81856  1.0000
  S   S271      1.0  0.74044  0.17186  0.81548  1.0000
  Fe  Fe137     1.0  0.70572  0.08916  0.81214  1.0000
  S   S272      1.0  0.72239  0.05243  0.80660  1.0000
  S   S273      1.0  0.67990  0.15099  0.82315  1.0000
  S   S274      1.0  0.66727  0.09834  0.81523  1.0000
  Fe  Fe138     1.0  0.86997  0.35922  0.97368  1.0000
  S   S275      1.0  0.90268  0.37737  0.96788  1.0000
  S   S276      1.0  0.84962  0.34408  0.95148  1.0000
  N   N67       1.0  0.97463  0.26290  0.85823  1.0000
  C   C804      1.0  0.95406  0.26896  0.76600  1.0000
  H   H804      1.0  0.85374  0.42567  0.95895  1.0000
  C   C805      1.0  0.93646  0.28132  0.86360  1.0000
  C   C806      1.0  0.87497  0.41812  0.93537  1.0000
  Fe  Fe139     1.0  0.89941  0.27157  0.81769  1.0000
  S   S277      1.0  0.88840  0.30916  0.82097  1.0000
  S   S278      1.0  0.93665  0.25749  0.80990  1.0000
  Fe  Fe140     1.0  0.84978  0.25653  0.82857  1.0000
  S   S279      1.0  0.83637  0.29380  0.83334  1.0000
  S   S280      1.0  0.83077  0.22314  0.83594  1.0000
  Fe  Fe141     1.0  0.85567  0.30203  0.80694  1.0000
  S   S281      1.0  0.84160  0.32996  0.78628  1.0000
  Fe  Fe142     1.0  0.87028  0.29793  0.84699  1.0000
  S   S282      1.0  0.88272  0.31728  0.87109  1.0000
  S   S283      1.0  0.86792  0.26477  0.80181  1.0000
  S   S284      1.0  0.88244  0.26026  0.84393  1.0000
  C   C807      1.0  0.83187  0.33055  0.76367  1.0000
  H   H805      1.0  0.65151  0.99163  0.98071  1.0000
  C   C808      1.0  0.51306  0.12447  0.98040  1.0000
  C   C809      1.0  0.96435  0.26869  0.81266  1.0000
  C   C810      1.0  0.96672  0.29084  0.81911  1.0000
  H   H806      1.0  0.89267  0.40673  0.91090  1.0000
  H   H807      1.0  0.95134  0.30186  0.82251  1.0000
  C   C811      1.0  0.94338  0.30776  0.77768  1.0000
  C   C812      1.0  0.85962  0.33546  0.92954  1.0000
  C   C813      1.0  0.84410  0.32562  0.91831  1.0000
  C   C814      1.0  0.85088  0.31957  0.90054  1.0000
  C   C815      1.0  0.87325  0.32351  0.89366  1.0000
  C   C816      1.0  0.88874  0.33343  0.90489  1.0000
  C   C817      1.0  0.88207  0.33921  0.92271  1.0000
  H   H808      1.0  0.82668  0.32264  0.92338  1.0000
  H   H809      1.0  0.83870  0.31205  0.89213  1.0000
  H   H810      1.0  0.90607  0.33664  0.89976  1.0000
  H   H811      1.0  0.89420  0.34681  0.93110  1.0000
  H   H812      1.0  0.63089  0.04418  0.94800  1.0000
  C   C818      1.0  0.95096  0.26198  0.85867  1.0000
  C   C819      1.0  0.94623  0.30170  0.86797  1.0000
  H   H813      1.0  0.62951  0.18711  0.75437  1.0000
  H   H814      1.0  0.56623  0.00988  0.98565  1.0000
  H   H815      1.0  0.81542  0.41436  0.96414  1.0000
  C   C820      1.0  0.88309  0.46958  0.98235  1.0000
  C   C821      1.0  0.76709  0.18461  0.81969  1.0000
  C   C822      1.0  0.77075  0.20707  0.81240  1.0000
  C   C823      1.0  0.79055  0.21878  0.81654  1.0000
  C   C824      1.0  0.80701  0.20823  0.82818  1.0000
  C   C825      1.0  0.80364  0.18551  0.83508  1.0000
  C   C826      1.0  0.78393  0.17375  0.83084  1.0000
  H   H816      1.0  0.75795  0.21572  0.80373  1.0000
  H   H817      1.0  0.79277  0.23620  0.81112  1.0000
  H   H818      1.0  0.81624  0.17708  0.84403  1.0000
  H   H819      1.0  0.78159  0.15646  0.83648  1.0000
  C   C827      1.0  0.65577  0.13448  0.74419  1.0000
  C   C828      1.0  0.68753  0.02095  0.81177  1.0000
  C   C829      1.0  0.71123  0.02416  0.80867  1.0000
  H   H820      1.0  0.88896  0.42828  0.93936  1.0000
  H   H821      1.0  0.96138  0.30929  0.78095  1.0000
  C   C830      1.0  0.89719  0.30408  0.76987  1.0000
  H   H822      1.0  0.67537  0.03598  0.81326  1.0000
  C   C831      1.0  0.60002  0.02370  0.98569  1.0000
  C   C832      1.0  0.64746  0.15300  0.75477  1.0000
  H   H823      1.0  0.59956  0.12535  0.75028  1.0000
  S   S285      1.0  0.64782  0.10546  0.98935  1.0000
  C   C833      1.0  0.90378  0.32436  0.77726  1.0000
  C   C834      1.0  0.64141  0.13252  0.92324  1.0000
  C   C835      1.0  0.65837  0.14276  0.91197  1.0000
  C   C836      1.0  0.66232  0.13620  0.89397  1.0000
  C   C837      1.0  0.64897  0.11961  0.88688  1.0000
  C   C838      1.0  0.63159  0.10987  0.89802  1.0000
  C   C839      1.0  0.62800  0.11603  0.91613  1.0000
  H   H824      1.0  0.66866  0.15573  0.91728  1.0000
  H   H825      1.0  0.67563  0.14396  0.88558  1.0000
  H   H826      1.0  0.62100  0.09718  0.89266  1.0000
  H   H827      1.0  0.61471  0.10819  0.92452  1.0000
  C   C840      1.0  0.63290  0.99566  0.98168  1.0000
  H   H828      1.0  0.91771  0.28061  0.86393  1.0000
  C   C841      1.0  0.57998  0.15858  0.74889  1.0000
  S   S286      1.0  0.89551  0.44161  0.97666  1.0000
  C   C842      1.0  0.72667  0.00426  0.80672  1.0000
  H   H829      1.0  0.74644  0.16164  0.77790  1.0000
  H   H830      1.0  0.95689  0.26818  0.75120  1.0000
  C   C843      1.0  0.98444  0.28272  0.86280  1.0000
  H   H831      1.0  0.81797  0.38354  0.96060  1.0000
  H   H832      1.0  0.87911  0.30240  0.76694  1.0000
  H   H833      1.0  0.68260  0.20020  0.76449  1.0000
  H   H834      1.0  0.86074  0.38271  0.90263  1.0000
  C   C844      1.0  0.64270  0.05333  0.93897  1.0000
  H   H835      1.0  0.98863  0.40621  0.95316  1.0000
  H   H836      1.0  0.97033  0.47861  0.98121  1.0000
  C   C845      1.0  0.82387  0.35200  0.75555  1.0000
  H   H837      1.0  0.59308  0.04133  0.98790  1.0000
  H   H838      1.0  0.63225  0.03752  0.91511  1.0000
  H   H839      1.0  0.89078  0.33843  0.78009  1.0000
  C   C846      1.0  0.71485  0.18271  0.77285  1.0000
  N   N68       1.0  0.93674  0.28794  0.77036  1.0000
  N   N69       1.0  0.74345  0.19353  0.86159  1.0000
  C   C847      1.0  0.76323  0.19142  0.87129  1.0000
  C   C848      1.0  0.73792  0.21355  0.85171  1.0000
  C   C849      1.0  0.77823  0.20953  0.87106  1.0000
  C   C850      1.0  0.75247  0.23204  0.85126  1.0000
  C   C851      1.0  0.77282  0.22990  0.86091  1.0000
  C   C852      1.0  0.72861  0.17387  0.86154  1.0000
  H   H840      1.0  0.76787  0.17538  0.87880  1.0000
  H   H841      1.0  0.72265  0.21498  0.84355  1.0000
  H   H842      1.0  0.79443  0.20748  0.87810  1.0000
  H   H843      1.0  0.74852  0.24753  0.84290  1.0000
  H   H844      1.0  0.78488  0.24361  0.85999  1.0000
  H   H845      1.0  0.73874  0.15836  0.85616  1.0000
  H   H846      1.0  0.72181  0.16970  0.87536  1.0000
  H   H847      1.0  0.71353  0.17754  0.85274  1.0000
  N   N70       1.0  0.67172  0.08119  0.93450  1.0000
  C   C853      1.0  0.67316  0.07711  0.91650  1.0000
  C   C854      1.0  0.65705  0.06926  0.94574  1.0000
  C   C855      1.0  0.65903  0.06133  0.90923  1.0000
  C   C856      1.0  0.58485  0.00589  0.98449  1.0000
  C   C857      1.0  0.64361  0.04950  0.92057  1.0000
  C   C858      1.0  0.68662  0.09771  0.94198  1.0000
  H   H848      1.0  0.68460  0.08671  0.90750  1.0000
  H   H849      1.0  0.65624  0.07216  0.96003  1.0000
  H   H850      1.0  0.65952  0.05900  0.89482  1.0000
  H   H851      1.0  0.52805  0.13246  0.97438  1.0000
  H   H852      1.0  0.98310  0.23768  0.80300  1.0000
  H   H853      1.0  0.67728  0.10715  0.95315  1.0000
  H   H854      1.0  0.70262  0.08836  0.94714  1.0000
  H   H855      1.0  0.69138  0.11129  0.93176  1.0000
  H   H856      1.0  0.93220  0.34175  0.78737  1.0000
  S   S287      1.0  0.64328  0.03998  0.98800  1.0000
  H   H857      1.0  0.66449  0.11920  0.75048  1.0000
  H   H858      1.0  0.94310  0.24638  0.85489  1.0000
  H   H859      1.0  0.66106  0.99622  0.81490  1.0000
  C   C859      1.0  0.92699  0.32621  0.78132  1.0000
  C   C860      1.0  0.49074  0.13011  0.97360  1.0000
  H   H860      1.0  0.82340  0.36759  0.76322  1.0000
  C   C861      1.0  0.69682  0.18764  0.76106  1.0000
  C   C862      1.0  0.98465  0.25478  0.80815  1.0000
  C   C863      1.0  0.63601  0.17266  0.74633  1.0000
  C   C864      1.0  0.98875  0.36883  0.95586  1.0000
  H   H861      1.0  0.74503  0.00644  0.80428  1.0000
  N   N71       1.0  0.83738  0.40345  0.94169  1.0000
  C   C865      1.0  0.85494  0.41656  0.94644  1.0000
  C   C866      1.0  0.83929  0.39158  0.92610  1.0000
  C   C867      1.0  0.85907  0.39276  0.91471  1.0000
  C   C868      1.0  0.87704  0.40607  0.91943  1.0000
  C   C869      1.0  0.81686  0.40104  0.95370  1.0000
  H   H862      1.0  0.58099  0.16142  0.76316  1.0000
  H   H863      1.0  0.82589  0.38030  0.92276  1.0000
  H   H864      1.0  0.96994  0.36850  0.95588  1.0000
  H   H865      1.0  0.80071  0.40292  0.94595  1.0000
  Fe  Fe143     1.0  0.88761  0.40480  0.98664  1.0000
  H   H866      1.0  0.71493  0.19162  0.78542  1.0000
  H   H867      1.0  0.97822  0.31834  0.87071  1.0000
  H   H868      1.0  0.90862  0.27008  0.76099  1.0000
  C   C870      1.0  0.67947  0.99829  0.81267  1.0000
  H   H869      1.0  0.93498  0.31684  0.87157  1.0000
  H   H870      1.0  0.90817  0.48721  0.96555  1.0000
  C   C871      1.0  0.97040  0.30248  0.86756  1.0000
  Fe  Fe144     1.0  0.62512  0.07546  0.99065  1.0000
  C   C872      1.0  0.73252  0.16582  0.76864  1.0000
  H   H871      1.0  0.97101  0.27118  0.77213  1.0000
  C   C873      1.0  0.69675  0.17560  0.74512  1.0000
  C   C874      1.0  0.73155  0.15363  0.75284  1.0000
  C   C875      1.0  0.95656  0.48565  0.99019  1.0000
  S   S288      1.0  0.85373  0.38784  0.99117  1.0000
  H   H872      1.0  0.56141  0.19147  0.74312  1.0000
  H   H873      1.0  0.74485  0.13986  0.75005  1.0000
  H   H874      1.0  0.61899  0.81967  0.21394  1.0000
  Fe  Fe145     1.0  0.61583  0.89016  0.01325  1.0000
  S   S289      1.0  0.64000  0.89395  0.03685  1.0000
  S   S290      1.0  0.57844  0.90443  0.01194  1.0000
  Fe  Fe146     1.0  0.68245  0.87304  0.14018  1.0000
  S   S291      1.0  0.72021  0.88096  0.13658  1.0000
  S   S292      1.0  0.65562  0.86386  0.11995  1.0000
  Fe  Fe147     1.0  0.68295  0.87697  0.18157  1.0000
  S   S293      1.0  0.72035  0.88620  0.18047  1.0000
  S   S294      1.0  0.65910  0.87748  0.20705  1.0000
  Fe  Fe148     1.0  0.71106  0.90956  0.15636  1.0000
  S   S295      1.0  0.72320  0.94606  0.14837  1.0000
  Fe  Fe149     1.0  0.72676  0.85699  0.16095  1.0000
  S   S296      1.0  0.75506  0.82791  0.16787  1.0000
  S   S297      1.0  0.67322  0.90244  0.15874  1.0000
  S   S298      1.0  0.68950  0.84709  0.16327  1.0000
  H   H875      1.0  0.61191  0.85929  0.20056  1.0000
  H   H876      1.0  0.85430  0.63922  0.21078  1.0000
  S   S299      1.0  0.85937  0.61271  0.99475  1.0000
  Fe  Fe150     1.0  0.88932  0.61932  0.01221  1.0000
  S   S300      1.0  0.89330  0.64427  0.03520  1.0000
  S   S301      1.0  0.90280  0.58176  0.01277  1.0000
  Fe  Fe151     1.0  0.86400  0.73281  0.15068  1.0000
  S   S302      1.0  0.84256  0.70210  0.15576  1.0000
  S   S303      1.0  0.84647  0.76744  0.13993  1.0000
  Fe  Fe152     1.0  0.91020  0.70315  0.15808  1.0000
  S   S304      1.0  0.89057  0.67089  0.16400  1.0000
  S   S305      1.0  0.95002  0.69478  0.15836  1.0000
  Fe  Fe153     1.0  0.87046  0.68209  0.13928  1.0000
  S   S306      1.0  0.86056  0.65678  0.11812  1.0000
  Fe  Fe154     1.0  0.86458  0.69371  0.17988  1.0000
  S   S307      1.0  0.84810  0.69058  0.20851  1.0000
  S   S308      1.0  0.89082  0.71323  0.13278  1.0000
  S   S309      1.0  0.88532  0.72554  0.17538  1.0000
  C   C876      1.0  0.97770  0.70472  0.16337  1.0000
  N   N72       1.0  0.92107  0.50373  0.01302  1.0000
  H   H877      1.0  0.93791  0.62368  0.02343  1.0000
  H   H878      1.0  0.70569  0.96432  0.18329  1.0000
  H   H879      1.0  0.96540  0.73942  0.17031  1.0000
  H   H880      1.0  0.65562  0.93852  0.02541  1.0000
  C   C877      1.0  0.84070  0.66899  0.22530  1.0000
  C   C878      1.0  0.93147  0.66384  0.19872  1.0000
  N   N73       1.0  0.60566  0.97297  0.02680  1.0000
  C   C879      1.0  0.61860  0.84534  0.19201  1.0000
  C   C880      1.0  0.98050  0.72739  0.16861  1.0000
  C   C881      1.0  0.95099  0.66591  0.01380  1.0000
  C   C882      1.0  0.88413  0.64701  0.05834  1.0000
  C   C883      1.0  0.86886  0.63212  0.06719  1.0000
  C   C884      1.0  0.86199  0.63532  0.08544  1.0000
  C   C885      1.0  0.87036  0.65328  0.09520  1.0000
  C   C886      1.0  0.88572  0.66809  0.08637  1.0000
  C   C887      1.0  0.89246  0.66500  0.06810  1.0000
  H   H881      1.0  0.86220  0.61824  0.05998  1.0000
  H   H882      1.0  0.85009  0.62374  0.09205  1.0000
  H   H883      1.0  0.89241  0.68195  0.09359  1.0000
  H   H884      1.0  0.90424  0.67667  0.06147  1.0000
  H   H885      1.0  0.78783  0.85975  0.18652  1.0000
  C   C888      1.0  0.63723  0.80978  0.17076  1.0000
  H   H886      1.0  0.60081  0.87752  0.16500  1.0000
  C   C889      1.0  0.71180  0.97856  0.17491  1.0000
  S   S310      1.0  0.85430  0.54327  0.99742  1.0000
  C   C890      1.0  0.85504  0.49532  0.99856  1.0000
  C   C891      1.0  0.77650  0.89639  0.18608  1.0000
  C   C892      1.0  0.77961  0.81042  0.15924  1.0000
  C   C893      1.0  0.78968  0.81431  0.14206  1.0000
  C   C894      1.0  0.81007  0.80105  0.13644  1.0000
  C   C895      1.0  0.82042  0.78330  0.14768  1.0000
  C   C896      1.0  0.80989  0.77887  0.16460  1.0000
  C   C897      1.0  0.78981  0.79248  0.17037  1.0000
  H   H887      1.0  0.78201  0.82781  0.13320  1.0000
  H   H888      1.0  0.81793  0.80465  0.12329  1.0000
  H   H889      1.0  0.81751  0.76530  0.17343  1.0000
  H   H890      1.0  0.78224  0.78918  0.18367  1.0000
  C   C898      1.0  0.72094  0.97437  0.15756  1.0000
  H   H891      1.0  0.92533  0.62780  0.20445  1.0000
  H   H892      1.0  0.63695  0.83587  0.14936  1.0000
  C   C899      1.0  0.65508  0.85627  0.22491  1.0000
  H   H893      1.0  0.94851  0.66483  0.99914  1.0000
  H   H894      1.0  0.67819  0.82920  0.21377  1.0000
  C   C900      1.0  0.84107  0.62900  0.23739  1.0000
  C   C901      1.0  0.64372  0.88536  0.06001  1.0000
  C   C902      1.0  0.66247  0.89354  0.06900  1.0000
  C   C903      1.0  0.66634  0.88728  0.08726  1.0000
  C   C904      1.0  0.65151  0.87264  0.09686  1.0000
  C   C905      1.0  0.63270  0.86455  0.08791  1.0000
  C   C906      1.0  0.62878  0.87086  0.06965  1.0000
  H   H895      1.0  0.67422  0.90469  0.06174  1.0000
  H   H896      1.0  0.68092  0.89363  0.09384  1.0000
  H   H897      1.0  0.62109  0.85320  0.09511  1.0000
  H   H898      1.0  0.61432  0.86436  0.06302  1.0000
  C   C907      1.0  0.62261  0.82294  0.19967  1.0000
  C   C908      1.0  0.89936  0.67375  0.22649  1.0000
  C   C909      1.0  0.76192  0.93729  0.18395  1.0000
  H   H899      1.0  0.89515  0.53031  0.02009  1.0000
  C   C910      1.0  0.63219  0.80512  0.18899  1.0000
  N   N74       1.0  0.81779  0.71840  0.11358  1.0000
  C   C911      1.0  0.80704  0.73858  0.11978  1.0000
  C   C912      1.0  0.80947  0.69738  0.11869  1.0000
  C   C913      1.0  0.78843  0.73800  0.13237  1.0000
  C   C914      1.0  0.79083  0.69613  0.13121  1.0000
  C   C915      1.0  0.78044  0.71660  0.13823  1.0000
  C   C916      1.0  0.83791  0.71947  0.10099  1.0000
  H   H900      1.0  0.81328  0.75527  0.11539  1.0000
  H   H901      1.0  0.81759  0.68139  0.11342  1.0000
  H   H902      1.0  0.78061  0.75407  0.13777  1.0000
  H   H903      1.0  0.78485  0.67936  0.13568  1.0000
  H   H904      1.0  0.76631  0.71589  0.14825  1.0000
  H   H905      1.0  0.84901  0.73355  0.10453  1.0000
  H   H906      1.0  0.84913  0.70298  0.10158  1.0000
  H   H907      1.0  0.83199  0.72266  0.08705  1.0000
  H   H908      1.0  0.78590  0.89474  0.13457  1.0000
  C   C917      1.0  0.61974  0.87356  0.16665  1.0000
  C   C918      1.0  0.78492  0.87562  0.17830  1.0000
  C   C919      1.0  0.95649  0.62514  0.02420  1.0000
  H   H909      1.0  0.84547  0.61065  0.23565  1.0000
  C   C920      1.0  0.62013  0.95313  0.02692  1.0000
  N   N75       1.0  0.96597  0.64589  0.02011  1.0000
  C   C921      1.0  0.92108  0.64565  0.20815  1.0000
  C   C922      1.0  0.84611  0.64518  0.22323  1.0000
  C   C923      1.0  0.78368  0.89516  0.14909  1.0000
  H   H910      1.0  0.62882  0.87589  0.15330  1.0000
  C   C924      1.0  0.90261  0.71558  0.22163  1.0000
  C   C925      1.0  0.63936  0.86183  0.23932  1.0000
  H   H911      1.0  0.77109  0.93106  0.14890  1.0000
  N   N76       1.0  0.62401  0.84987  0.17423  1.0000
  C   C926      1.0  0.97064  0.60537  0.02905  1.0000
  C   C927      1.0  0.64428  0.95437  0.02566  1.0000
  H   H912      1.0  0.63589  0.78782  0.19489  1.0000
  H   H913      1.0  0.77018  0.93995  0.19687  1.0000
  H   H914      1.0  0.61305  0.93617  0.02781  1.0000
  H   H915      1.0  0.64480  0.79612  0.16231  1.0000
  S   S311      1.0  0.61009  0.85980  0.99597  1.0000
  H   H916      1.0  0.90555  0.71812  0.23605  1.0000
  H   H917      1.0  0.95859  0.68260  0.01637  1.0000
  C   C928      1.0  0.78862  0.87510  0.15971  1.0000
  H   H918      1.0  0.68152  0.97779  0.12464  1.0000
  C   C929      1.0  0.63280  0.83236  0.16352  1.0000
  N   N77       1.0  0.90943  0.69149  0.21705  1.0000
  H   H919      1.0  0.84011  0.49754  0.00775  1.0000
  H   H920      1.0  0.79479  0.85899  0.15356  1.0000
  H   H921      1.0  0.96309  0.58881  0.03168  1.0000
  H   H922      1.0  0.77300  0.89646  0.20049  1.0000
  Fe  Fe155     1.0  0.87494  0.57556  0.99356  1.0000
  H   H923      1.0  0.93363  0.66625  0.02090  1.0000
  H   H924      1.0  0.76433  0.95302  0.17511  1.0000
  C   C930      1.0  0.65361  0.97608  0.02458  1.0000
  N   N78       1.0  0.77196  0.91610  0.17559  1.0000
  C   C931      1.0  0.77529  0.91564  0.15730  1.0000
  C   C932      1.0  0.66611  0.83385  0.22473  1.0000
  H   H925      1.0  0.62639  0.88633  0.17568  1.0000
  H   H926      1.0  0.74292  0.93596  0.18645  1.0000
  H   H927      1.0  0.57530  0.95506  0.02247  1.0000
  C   C933      1.0  0.50867  0.89269  0.99326  1.0000
  C   C934      1.0  0.92537  0.68680  0.20335  1.0000
  H   H928      1.0  0.93330  0.70080  0.19572  1.0000
  H   H929      1.0  0.91006  0.51573  0.03874  1.0000
  C   C935      1.0  0.93582  0.51834  0.00424  1.0000
  H   H930      1.0  0.57435  0.97169  0.04261  1.0000
  H   H931      1.0  0.94386  0.66027  0.18765  1.0000
  C   C936      1.0  0.90280  0.51329  0.02541  1.0000
  H   H932      1.0  0.91259  0.72830  0.21345  1.0000
  H   H933      1.0  0.97680  0.71293  0.11989  1.0000
  H   H934      1.0  0.93373  0.53697  0.00603  1.0000
  H   H935      1.0  0.63067  0.87906  0.23966  1.0000
  C   C937      1.0  0.90498  0.65059  0.22217  1.0000
  H   H936      1.0  0.89650  0.63666  0.22947  1.0000
  H   H937      1.0  0.88383  0.71955  0.21909  1.0000
  H   H938      1.0  0.88635  0.67750  0.23710  1.0000
  H   H939      1.0  0.67229  0.97728  0.02326  1.0000
  H   H940      1.0  0.66975  0.79996  0.23821  1.0000
  C   C938      1.0  0.66123  0.81726  0.23863  1.0000
  H   H941      1.0  0.88816  0.50171  0.02709  1.0000
  C   C939      1.0  0.58039  0.97135  0.02830  1.0000
  H   H942      1.0  0.97929  0.75409  0.12783  1.0000
  Fe  Fe156     1.0  0.57333  0.87599  0.99294  1.0000
  H   H943      1.0  0.52311  0.90327  0.99512  1.0000
  H   H944      1.0  0.57123  0.98583  0.02049  1.0000
  S   S312      1.0  0.54123  0.85485  0.99305  1.0000
  C   C940      1.0  0.95371  0.50956  0.99267  1.0000
  C   C941      1.0  0.82995  0.67627  0.24164  1.0000
  Fe  Fe157     1.0  0.62122  0.79747  0.29791  1.0000
  S   S313      1.0  0.61218  0.76048  0.30499  1.0000
  S   S314      1.0  0.63958  0.80070  0.26984  1.0000
  Fe  Fe158     1.0  0.61111  0.81171  0.33764  1.0000
  S   S315      1.0  0.60255  0.77567  0.34654  1.0000
  S   S316      1.0  0.61228  0.84154  0.35716  1.0000
  Fe  Fe159     1.0  0.63363  0.76282  0.32936  1.0000
  S   S317      1.0  0.66434  0.73961  0.34060  1.0000
  Fe  Fe160     1.0  0.58155  0.77661  0.32133  1.0000
  S   S318      1.0  0.54526  0.76183  0.32495  1.0000
  S   S319      1.0  0.64346  0.79914  0.32194  1.0000
  S   S320      1.0  0.58920  0.81343  0.31284  1.0000
  H   H945      1.0  0.66312  0.82582  0.36344  1.0000
  C   C942      1.0  0.51520  0.86667  0.48531  1.0000
  H   H946      1.0  0.73730  0.69951  0.29916  1.0000
  H   H947      1.0  0.55288  0.84998  0.42831  1.0000
  N   N79       1.0  0.83692  0.56339  0.37606  1.0000
  H   H948      1.0  0.85411  0.55687  0.41905  1.0000
  Fe  Fe161     1.0  0.60283  0.86690  0.46568  1.0000
  S   S321      1.0  0.60493  0.84016  0.44333  1.0000
  S   S322      1.0  0.58690  0.90377  0.46463  1.0000
  Fe  Fe162     1.0  0.75935  0.62940  0.31968  1.0000
  S   S323      1.0  0.79422  0.64509  0.31662  1.0000
  S   S324      1.0  0.72356  0.64813  0.31376  1.0000
  Fe  Fe163     1.0  0.78235  0.57898  0.32477  1.0000
  S   S325      1.0  0.81817  0.59193  0.32161  1.0000
  S   S326      1.0  0.77676  0.54152  0.33527  1.0000
  Fe  Fe164     1.0  0.80481  0.62038  0.33996  1.0000
  S   S327      1.0  0.82958  0.62877  0.36199  1.0000
  Fe  Fe165     1.0  0.80473  0.61531  0.29861  1.0000
  S   S328      1.0  0.82495  0.61494  0.27127  1.0000
  S   S329      1.0  0.76926  0.60676  0.34406  1.0000
  S   S330      1.0  0.76954  0.60033  0.30070  1.0000
  Fe  Fe166     1.0  0.86599  0.60032  0.46731  1.0000
  S   S331      1.0  0.90397  0.58991  0.46241  1.0000
  S   S332      1.0  0.83784  0.60109  0.44604  1.0000
  S   S333      1.0  0.94242  0.63434  0.48127  1.0000
  H   H949      1.0  0.50219  0.83538  0.47584  1.0000
  H   H950      1.0  0.95568  0.59728  0.45027  1.0000
  C   C943      1.0  0.85574  0.57366  0.36837  1.0000
  N   N80       1.0  0.52667  0.87388  0.43960  1.0000
  C   C944      1.0  0.87759  0.51430  0.46926  1.0000
  H   H951      1.0  0.51196  0.84348  0.43084  1.0000
  C   C945      1.0  0.62183  0.97261  0.48360  1.0000
  H   H952      1.0  0.49871  0.78078  0.35977  1.0000
  H   H953      1.0  0.85561  0.57985  0.35440  1.0000
  C   C946      1.0  0.63470  0.84532  0.25334  1.0000
  H   H954      1.0  0.61480  0.87745  0.38260  1.0000
  H   H955      1.0  0.71072  0.69837  0.27534  1.0000
  C   C947      1.0  0.83027  0.63626  0.25373  1.0000
  C   C948      1.0  0.82466  0.66007  0.25571  1.0000
  H   H956      1.0  0.81646  0.66601  0.26817  1.0000
  C   C949      1.0  0.83072  0.62232  0.38566  1.0000
  C   C950      1.0  0.85063  0.62745  0.39477  1.0000
  C   C951      1.0  0.85305  0.62144  0.41324  1.0000
  C   C952      1.0  0.83540  0.61043  0.42296  1.0000
  C   C953      1.0  0.81523  0.60584  0.41395  1.0000
  C   C954      1.0  0.81292  0.61163  0.39544  1.0000
  H   H957      1.0  0.86444  0.63591  0.38743  1.0000
  H   H958      1.0  0.86857  0.62531  0.41994  1.0000
  H   H959      1.0  0.80134  0.59755  0.42134  1.0000
  H   H960      1.0  0.79735  0.60785  0.38878  1.0000
  C   C955      1.0  0.55054  0.86340  0.43866  1.0000
  H   H961      1.0  0.50174  0.74110  0.33223  1.0000
  C   C956      1.0  0.77888  0.51358  0.32546  1.0000
  C   C957      1.0  0.78386  0.51063  0.30712  1.0000
  H   H962      1.0  0.65430  0.82945  0.42582  1.0000
  H   H963      1.0  0.77050  0.49577  0.35065  1.0000
  H   H964      1.0  0.78746  0.52556  0.29845  1.0000
  H   H965      1.0  0.82211  0.55388  0.35186  1.0000
  H   H966      1.0  0.65596  0.75503  0.38165  1.0000
  C   C958      1.0  0.87482  0.57757  0.37863  1.0000
  H   H967      1.0  0.80706  0.57802  0.36312  1.0000
  H   H968      1.0  0.71193  0.52113  0.29175  1.0000
  C   C959      1.0  0.83632  0.55713  0.39398  1.0000
  C   C960      1.0  0.68012  0.71374  0.33319  1.0000
  C   C961      1.0  0.70094  0.70611  0.34157  1.0000
  C   C962      1.0  0.71435  0.68601  0.33600  1.0000
  C   C963      1.0  0.70700  0.67309  0.32202  1.0000
  C   C964      1.0  0.68600  0.68054  0.31381  1.0000
  C   C965      1.0  0.67271  0.70076  0.31925  1.0000
  H   H969      1.0  0.70684  0.71587  0.35243  1.0000
  H   H970      1.0  0.73039  0.68056  0.34252  1.0000
  H   H971      1.0  0.68000  0.67067  0.30305  1.0000
  H   H972      1.0  0.65668  0.70624  0.31274  1.0000
  C   C966      1.0  0.64554  0.82283  0.25307  1.0000
  H   H973      1.0  0.72634  0.53205  0.33435  1.0000
  H   H974      1.0  0.65356  0.75022  0.27221  1.0000
  C   C967      1.0  0.70109  0.74757  0.29800  1.0000
  H   H975      1.0  0.62254  0.84994  0.26426  1.0000
  C   C968      1.0  0.51652  0.76974  0.31741  1.0000
  C   C969      1.0  0.51143  0.78912  0.30595  1.0000
  H   H976      1.0  0.56320  0.87665  0.43498  1.0000
  H   H977      1.0  0.52533  0.79962  0.30101  1.0000
  H   H978      1.0  0.70857  0.75730  0.30825  1.0000
  C   C970      1.0  0.60823  0.84123  0.38107  1.0000
  C   C971      1.0  0.60339  0.82103  0.39117  1.0000
  C   C972      1.0  0.60184  0.82127  0.41015  1.0000
  C   C973      1.0  0.60503  0.84166  0.41933  1.0000
  C   C974      1.0  0.60939  0.86198  0.40924  1.0000
  C   C975      1.0  0.61102  0.86171  0.39025  1.0000
  H   H979      1.0  0.60122  0.80512  0.38437  1.0000
  H   H980      1.0  0.59844  0.80542  0.41777  1.0000
  H   H981      1.0  0.61204  0.87778  0.41603  1.0000
  C   C976      1.0  0.73440  0.71878  0.29970  1.0000
  C   C977      1.0  0.81665  0.56080  0.36521  1.0000
  H   H982      1.0  0.82094  0.55009  0.40030  1.0000
  H   H983      1.0  0.80451  0.54857  0.37165  1.0000
  C   C978      1.0  0.86173  0.49808  0.46522  1.0000
  C   C979      1.0  0.85508  0.56081  0.40466  1.0000
  H   H984      1.0  0.74865  0.72691  0.29183  1.0000
  C   C980      1.0  0.66090  0.81947  0.39225  1.0000
  C   C981      1.0  0.87443  0.57110  0.39689  1.0000
  Fe  Fe167     1.0  0.56790  0.89356  0.49032  1.0000
  H   H985      1.0  0.73287  0.51129  0.30818  1.0000
  C   C982      1.0  0.97001  0.58650  0.45591  1.0000
  H   H986      1.0  0.71803  0.56888  0.34996  1.0000
  H   H987      1.0  0.84531  0.50398  0.45946  1.0000
  H   H988      1.0  0.67422  0.80475  0.43104  1.0000
  H   H989      1.0  0.64299  0.80239  0.43254  1.0000
  C   C983      1.0  0.78381  0.48831  0.29986  1.0000
  S   S334      1.0  0.63257  0.87587  0.48243  1.0000
  C   C984      1.0  0.50864  0.86115  0.43525  1.0000
  C   C985      1.0  0.71724  0.56870  0.33544  1.0000
  H   H990      1.0  0.65429  0.76756  0.41327  1.0000
  C   C986      1.0  0.65750  0.81028  0.42474  1.0000
  C   C987      1.0  0.71719  0.56790  0.29826  1.0000
  H   H991      1.0  0.88861  0.57497  0.40521  1.0000
  Fe  Fe168     1.0  0.61485  0.91207  0.48321  1.0000
  H   H992      1.0  0.88927  0.58655  0.37261  1.0000
  C   C988      1.0  0.59761  0.97621  0.48510  1.0000
  C   C989      1.0  0.65742  0.77316  0.38463  1.0000
  H   H993      1.0  0.55512  0.85510  0.45190  1.0000
  H   H994      1.0  0.49047  0.81469  0.33919  1.0000
  C   C990      1.0  0.49767  0.85272  0.48051  1.0000
  N   N81       1.0  0.65810  0.80330  0.40599  1.0000
  C   C991      1.0  0.72743  0.52598  0.29877  1.0000
  C   C992      1.0  0.70222  0.71470  0.27966  1.0000
  C   C993      1.0  0.66011  0.78956  0.37059  1.0000
  C   C994      1.0  0.66996  0.74364  0.27783  1.0000
  H   H995      1.0  0.71758  0.56785  0.28368  1.0000
  N   N82       1.0  0.72212  0.54775  0.30812  1.0000
  C   C995      1.0  0.68104  0.72272  0.27225  1.0000
  N   N83       1.0  0.71183  0.72700  0.29250  1.0000
  H   H996      1.0  0.67158  0.77252  0.29502  1.0000
  H   H997      1.0  0.58691  0.96154  0.48481  1.0000
  C   C996      1.0  0.71223  0.58932  0.32549  1.0000
  C   C997      1.0  0.71205  0.58894  0.30678  1.0000
  C   C998      1.0  0.68006  0.75619  0.29072  1.0000
  H   H998      1.0  0.70862  0.60503  0.29896  1.0000
  H   H999      1.0  0.94799  0.56179  0.46907  1.0000
  H   H1000     1.0  0.70889  0.60567  0.33221  1.0000
  H   H1001     1.0  0.53315  0.86013  0.48427  1.0000
  H   H1002     1.0  0.73525  0.72308  0.31407  1.0000
  H   H1003     1.0  0.66068  0.78419  0.35680  1.0000
  S   S335      1.0  0.87231  0.62582  0.48881  1.0000
  C   C999      1.0  0.49808  0.75623  0.32348  1.0000
  H   H1004     1.0  0.87357  0.53257  0.46620  1.0000
  C   C1000     1.0  0.66183  0.81285  0.37435  1.0000
  C   C1001     1.0  0.96566  0.56676  0.46661  1.0000
  S   S336      1.0  0.63562  0.94433  0.48109  1.0000
  C   C1002     1.0  0.72194  0.54790  0.32650  1.0000
  H   H1005     1.0  0.66170  0.83773  0.39500  1.0000
  C   C1003     1.0  0.65648  0.78038  0.40239  1.0000
  H   H1006     1.0  0.67325  0.71278  0.26230  1.0000
  H   H1007     1.0  0.74208  0.52800  0.28881  1.0000
  C   C1004     1.0  0.77442  0.49380  0.33645  1.0000
  S   S337      1.0  0.58147  0.85612  0.49036  1.0000
  C   C1005     1.0  0.52240  0.89571  0.44606  1.0000
  H   H1008     1.0  0.53658  0.90532  0.45044  1.0000
  Fe  Fe169     1.0  0.91048  0.61308  0.48511  1.0000
  C   C1006     1.0  0.97034  0.62400  0.48872  1.0000
  C   C1007     1.0  0.49962  0.90560  0.44785  1.0000
  H   H1009     1.0  0.82570  0.69462  0.24347  1.0000
  C   C1008     1.0  0.98416  0.55390  0.47468  1.0000
  C   C1009     1.0  0.50943  0.88923  0.49099  1.0000
  C   C1010     1.0  0.89852  0.50684  0.47722  1.0000
  H   H1010     1.0  0.98045  0.53895  0.48336  1.0000
  H   H1011     1.0  0.49633  0.92259  0.45357  1.0000
  Fe  Fe170     1.0  0.89969  0.56309  0.48458  1.0000
  S   S338      1.0  0.86148  0.57141  0.48817  1.0000
  S   S339      1.0  0.91747  0.52712  0.48383  1.0000
  H   H1012     1.0  0.98818  0.65033  0.47343  1.0000
  Fe  Fe171     1.0  0.60998  0.86762  0.50702  1.0000
  S   S340      1.0  0.62689  0.84610  0.53018  1.0000
  S   S341      1.0  0.59467  0.90435  0.50881  1.0000
  Fe  Fe172     1.0  0.60598  0.80692  0.63634  1.0000
  S   S342      1.0  0.60138  0.76853  0.63681  1.0000
  S   S343      1.0  0.59362  0.83125  0.61282  1.0000
  Fe  Fe173     1.0  0.61834  0.80472  0.67716  1.0000
  S   S344      1.0  0.61288  0.76626  0.67977  1.0000
  S   S345      1.0  0.63895  0.82467  0.69689  1.0000
  Fe  Fe174     1.0  0.63343  0.76328  0.65349  1.0000
  S   S346      1.0  0.66823  0.74150  0.64887  1.0000
  Fe  Fe175     1.0  0.58091  0.77486  0.66291  1.0000
  S   S347      1.0  0.54550  0.75826  0.66388  1.0000
  S   S348      1.0  0.63933  0.80160  0.65107  1.0000
  S   S349      1.0  0.58511  0.81340  0.66221  1.0000
  Fe  Fe176     1.0  0.87015  0.59585  0.50942  1.0000
  S   S350      1.0  0.90849  0.58529  0.50693  1.0000
  S   S351      1.0  0.84990  0.58728  0.53595  1.0000
  Fe  Fe177     1.0  0.78867  0.58156  0.66364  1.0000
  S   S352      1.0  0.82008  0.60270  0.65850  1.0000
  S   S353      1.0  0.79842  0.54239  0.66916  1.0000
  Fe  Fe178     1.0  0.75545  0.62578  0.66047  1.0000
  S   S354      1.0  0.78478  0.64886  0.65495  1.0000
  S   S355      1.0  0.71684  0.63890  0.66133  1.0000
  Fe  Fe179     1.0  0.79983  0.62119  0.63638  1.0000
  S   S356      1.0  0.81594  0.63528  0.60976  1.0000
  Fe  Fe180     1.0  0.80286  0.62861  0.67762  1.0000
  S   S357      1.0  0.82529  0.64951  0.69543  1.0000
  S   S358      1.0  0.76921  0.59903  0.64045  1.0000
  S   S359      1.0  0.77260  0.60654  0.68419  1.0000
  C   C1011     1.0  0.82936  0.65354  0.71887  1.0000
  H   H1013     1.0  0.72282  0.51590  0.69725  1.0000
  C   C1012     1.0  0.63769  0.89926  0.54675  1.0000
  H   H1014     1.0  0.74070  0.55325  0.71143  1.0000
  C   C1013     1.0  0.75291  0.64884  0.60966  1.0000
  H   H1015     1.0  0.81937  0.49575  0.67236  1.0000
  C   C1014     1.0  0.76459  0.51270  0.65991  1.0000
  C   C1015     1.0  0.78746  0.51487  0.66497  1.0000
  N   N84       1.0  0.52804  0.79811  0.62390  1.0000
  H   H1016     1.0  0.88647  0.60147  0.67019  1.0000
  H   H1017     1.0  0.75340  0.52817  0.65714  1.0000
  H   H1018     1.0  0.64520  0.88171  0.54932  1.0000
  C   C1016     1.0  0.84116  0.60104  0.55648  1.0000
  C   C1017     1.0  0.84455  0.62440  0.55937  1.0000
  C   C1018     1.0  0.83679  0.63448  0.57574  1.0000
  C   C1019     1.0  0.82568  0.62139  0.58951  1.0000
  C   C1020     1.0  0.82253  0.59798  0.58672  1.0000
  C   C1021     1.0  0.83013  0.58795  0.57031  1.0000
  H   H1019     1.0  0.85292  0.63476  0.54891  1.0000
  H   H1020     1.0  0.83934  0.65262  0.57765  1.0000
  H   H1021     1.0  0.81404  0.58762  0.59711  1.0000
  H   H1022     1.0  0.82734  0.56989  0.56828  1.0000
  C   C1022     1.0  0.97320  0.60448  0.50039  1.0000
  H   H1023     1.0  0.73789  0.48910  0.65584  1.0000
  H   H1024     1.0  0.55081  0.82328  0.63166  1.0000
  H   H1025     1.0  0.68643  0.64742  0.62752  1.0000
  H   H1026     1.0  0.50192  0.77488  0.61910  1.0000
  C   C1023     1.0  0.68128  0.71298  0.65347  1.0000
  C   C1024     1.0  0.66839  0.69420  0.65924  1.0000
  C   C1025     1.0  0.67966  0.67185  0.66215  1.0000
  C   C1026     1.0  0.70394  0.66794  0.65945  1.0000
  C   C1027     1.0  0.71687  0.68684  0.65410  1.0000
  C   C1028     1.0  0.70558  0.70912  0.65104  1.0000
  H   H1027     1.0  0.64970  0.69680  0.66115  1.0000
  H   H1028     1.0  0.66941  0.65738  0.66622  1.0000
  H   H1029     1.0  0.73551  0.68420  0.65193  1.0000
  H   H1030     1.0  0.71579  0.72350  0.64666  1.0000
  C   C1029     1.0  0.64067  0.83139  0.72005  1.0000
  C   C1030     1.0  0.86048  0.64634  0.63542  1.0000
  N   N85       1.0  0.86141  0.65196  0.65304  1.0000
  H   H1031     1.0  0.66094  0.88308  0.51831  1.0000
  H   H1032     1.0  0.56281  0.79214  0.61307  1.0000
  H   H1033     1.0  0.83188  0.67426  0.65961  1.0000
  C   C1031     1.0  0.51548  0.76836  0.66671  1.0000
  C   C1032     1.0  0.50839  0.78947  0.67460  1.0000
  C   C1033     1.0  0.53301  0.81834  0.63147  1.0000
  H   H1034     1.0  0.52135  0.80032  0.67923  1.0000
  C   C1034     1.0  0.61673  0.84146  0.55291  1.0000
  C   C1035     1.0  0.59647  0.85311  0.55992  1.0000
  C   C1036     1.0  0.58972  0.84969  0.57823  1.0000
  C   C1037     1.0  0.60294  0.83444  0.58976  1.0000
  C   C1038     1.0  0.62309  0.82266  0.58270  1.0000
  C   C1039     1.0  0.62997  0.82627  0.56444  1.0000
  H   H1035     1.0  0.58610  0.86487  0.55127  1.0000
  H   H1036     1.0  0.57411  0.85892  0.58350  1.0000
  H   H1037     1.0  0.63351  0.81095  0.59135  1.0000
  H   H1038     1.0  0.64570  0.81720  0.55921  1.0000
  C   C1040     1.0  0.77852  0.51011  0.70934  1.0000
  C   C1041     1.0  0.66538  0.72259  0.70133  1.0000
  C   C1042     1.0  0.50568  0.79149  0.62425  1.0000
  C   C1043     1.0  0.74409  0.69015  0.60546  1.0000
  H   H1039     1.0  0.50330  0.73796  0.65510  1.0000
  C   C1044     1.0  0.73925  0.50758  0.70151  1.0000
  C   C1045     1.0  0.84487  0.66990  0.72379  1.0000
  H   H1040     1.0  0.77859  0.67322  0.60234  1.0000
  C   C1046     1.0  0.51526  0.83285  0.63926  1.0000
  C   C1047     1.0  0.84012  0.52804  0.51651  1.0000
  H   H1041     1.0  0.54155  0.77589  0.60325  1.0000
  H   H1042     1.0  0.74992  0.55080  0.68796  1.0000
  N   N86       1.0  0.71357  0.66497  0.61372  1.0000
  H   H1043     1.0  0.89289  0.51666  0.53396  1.0000
  C   C1048     1.0  0.49815  0.75445  0.66103  1.0000
  C   C1049     1.0  0.82579  0.49313  0.50547  1.0000
  C   C1050     1.0  0.68880  0.66155  0.61712  1.0000
  H   H1044     1.0  0.61101  0.96172  0.53790  1.0000
  H   H1045     1.0  0.85605  0.68873  0.64899  1.0000
  C   C1051     1.0  0.81800  0.64090  0.73260  1.0000
  H   H1046     1.0  0.60655  0.82152  0.72855  1.0000
  H   H1047     1.0  0.87265  0.54125  0.53756  1.0000
  C   C1052     1.0  0.72938  0.64613  0.61388  1.0000
  C   C1053     1.0  0.75457  0.54604  0.70205  1.0000
  C   C1054     1.0  0.85115  0.67462  0.65869  1.0000
  C   C1055     1.0  0.87958  0.52865  0.52742  1.0000
  N   N87       1.0  0.86079  0.51613  0.52043  1.0000
  H   H1048     1.0  0.68041  0.90456  0.52452  1.0000
  C   C1056     1.0  0.49234  0.82649  0.63932  1.0000
  H   H1049     1.0  0.77087  0.55453  0.70443  1.0000
  H   H1050     1.0  0.69045  0.73876  0.68380  1.0000
  N   N88       1.0  0.75754  0.52065  0.70451  1.0000
  C   C1057     1.0  0.61037  0.93086  0.55531  1.0000
  H   H1051     1.0  0.80606  0.62825  0.72917  1.0000
  N   N89       1.0  0.64492  0.91212  0.53201  1.0000
  H   H1052     1.0  0.66940  0.70541  0.69610  1.0000
  H   H1053     1.0  0.85382  0.67982  0.71339  1.0000
  C   C1058     1.0  0.64797  0.72612  0.71467  1.0000
  H   H1054     1.0  0.95814  0.59585  0.50550  1.0000
  H   H1055     1.0  0.86769  0.61993  0.61584  1.0000
  H   H1056     1.0  0.88825  0.53840  0.51621  1.0000
  H   H1057     1.0  0.80626  0.52646  0.50540  1.0000
  H   H1058     1.0  0.68423  0.79742  0.70215  1.0000
  C   C1059     1.0  0.62018  0.90833  0.55853  1.0000
  C   C1060     1.0  0.66125  0.84010  0.72589  1.0000
  C   C1061     1.0  0.76030  0.67100  0.60551  1.0000
  H   H1059     1.0  0.55108  0.76797  0.62568  1.0000
  H   H1060     1.0  0.87083  0.64030  0.67953  1.0000
  C   C1062     1.0  0.82238  0.51678  0.50887  1.0000
  C   C1063     1.0  0.54679  0.78278  0.61609  1.0000
  H   H1061     1.0  0.85251  0.65861  0.62568  1.0000
  H   H1062     1.0  0.76541  0.63388  0.60957  1.0000
  H   H1063     1.0  0.66136  0.91018  0.50584  1.0000
  C   C1064     1.0  0.62249  0.82819  0.73272  1.0000
  C   C1065     1.0  0.87956  0.61409  0.66024  1.0000
  H   H1064     1.0  0.61415  0.89777  0.56994  1.0000
  H   H1065     1.0  0.64226  0.94502  0.51778  1.0000
  H   H1066     1.0  0.65092  0.78413  0.71884  1.0000
  C   C1066     1.0  0.87871  0.60824  0.64228  1.0000
  H   H1067     1.0  0.67471  0.78980  0.68056  1.0000
  H   H1068     1.0  0.67552  0.84256  0.71629  1.0000
  H   H1069     1.0  0.83740  0.54647  0.51904  1.0000
  H   H1070     1.0  0.59655  0.93799  0.56419  1.0000
  H   H1071     1.0  0.74966  0.70748  0.60230  1.0000
  H   H1072     1.0  0.70808  0.70175  0.60938  1.0000
  C   C1067     1.0  0.61846  0.94417  0.54060  1.0000
  C   C1068     1.0  0.86435  0.49299  0.51697  1.0000
  C   C1069     1.0  0.65523  0.76686  0.71395  1.0000
  H   H1073     1.0  0.68083  0.65696  0.60452  1.0000
  S   S360      1.0  0.53106  0.90784  0.49528  1.0000
  C   C1070     1.0  0.68403  0.78300  0.69267  1.0000
  C   C1071     1.0  0.72060  0.68678  0.60945  1.0000
  H   H1074     1.0  0.85698  0.67887  0.67217  1.0000
  H   H1075     1.0  0.88499  0.59103  0.63812  1.0000
  N   N90       1.0  0.67222  0.76327  0.70082  1.0000
  C   C1072     1.0  0.66288  0.90203  0.51960  1.0000
  H   H1076     1.0  0.70234  0.77781  0.68863  1.0000
  C   C1073     1.0  0.63606  0.93455  0.52915  1.0000
  C   C1074     1.0  0.80167  0.49437  0.66841  1.0000
  H   H1077     1.0  0.67933  0.67751  0.62233  1.0000
  H   H1078     1.0  0.51938  0.84868  0.64549  1.0000
  C   C1075     1.0  0.86912  0.62445  0.62976  1.0000
  C   C1076     1.0  0.67732  0.74150  0.69446  1.0000
  H   H1079     1.0  0.72385  0.62887  0.61742  1.0000
  C   C1077     1.0  0.87069  0.63613  0.66544  1.0000
  C   C1078     1.0  0.64287  0.74838  0.72109  1.0000
  H   H1080     1.0  0.62919  0.75147  0.73130  1.0000
  H   H1081     1.0  0.79329  0.52039  0.71109  1.0000
  H   H1082     1.0  0.63831  0.71168  0.71990  1.0000
  C   C1079     1.0  0.75584  0.49045  0.65916  1.0000
  H   H1083     1.0  0.61832  0.81736  0.96049  1.0000
  H   H1084     1.0  0.76729  0.73126  0.82404  1.0000
  H   H1085     1.0  0.84546  0.60696  0.91524  1.0000
  H   H1086     1.0  0.70322  0.95631  0.77363  1.0000
  C   C1080     1.0  0.65800  0.90781  0.76191  1.0000
  Fe  Fe181     1.0  0.61932  0.88276  0.97177  1.0000
  S   S361      1.0  0.64601  0.86895  0.95038  1.0000
  S   S362      1.0  0.58240  0.89656  0.96771  1.0000
  Fe  Fe182     1.0  0.67567  0.87273  0.83993  1.0000
  S   S363      1.0  0.70927  0.89044  0.83598  1.0000
  S   S364      1.0  0.64989  0.87567  0.86431  1.0000
  Fe  Fe183     1.0  0.67254  0.86541  0.79845  1.0000
  S   S365      1.0  0.70516  0.88399  0.79224  1.0000
  S   S366      1.0  0.64626  0.85171  0.77941  1.0000
  Fe  Fe184     1.0  0.71958  0.86221  0.81604  1.0000
  S   S367      1.0  0.75659  0.84502  0.81109  1.0000
  Fe  Fe185     1.0  0.69261  0.91059  0.81274  1.0000
  S   S368      1.0  0.68336  0.95034  0.81181  1.0000
  S   S369      1.0  0.68695  0.84312  0.82162  1.0000
  S   S370      1.0  0.65899  0.89334  0.81706  1.0000
  H   H1087     1.0  0.64947  0.92557  0.84966  1.0000
  C   C1081     1.0  0.84338  0.57083  0.95227  1.0000
  C   C1082     1.0  0.60532  0.82571  0.95178  1.0000
  Fe  Fe186     1.0  0.88324  0.61971  0.97054  1.0000
  S   S371      1.0  0.86952  0.64494  0.94807  1.0000
  S   S372      1.0  0.89643  0.58215  0.96837  1.0000
  Fe  Fe187     1.0  0.84734  0.72630  0.82469  1.0000
  S   S373      1.0  0.84077  0.68808  0.82592  1.0000
  S   S374      1.0  0.81455  0.74918  0.83329  1.0000
  Fe  Fe188     1.0  0.89912  0.71480  0.81346  1.0000
  S   S375      1.0  0.89458  0.67635  0.81323  1.0000
  S   S376      1.0  0.93413  0.73206  0.80989  1.0000
  Fe  Fe189     1.0  0.86080  0.68597  0.79930  1.0000
  S   S377      1.0  0.84237  0.66429  0.77923  1.0000
  Fe  Fe190     1.0  0.87475  0.68157  0.83976  1.0000
  S   S378      1.0  0.88505  0.65452  0.86225  1.0000
  S   S379      1.0  0.86640  0.72447  0.79767  1.0000
  S   S380      1.0  0.88024  0.71974  0.84037  1.0000
  C   C1083     1.0  0.96440  0.72234  0.80904  1.0000
  H   H1088     1.0  0.69036  0.92096  0.75252  1.0000
  C   C1084     1.0  0.94801  0.72478  0.85403  1.0000
  H   H1089     1.0  0.85057  0.55407  0.95746  1.0000
  H   H1090     1.0  0.80833  0.61736  0.96513  1.0000
  C   C1085     1.0  0.83781  0.66075  0.75579  1.0000
  N   N91       1.0  0.67619  0.93979  0.86347  1.0000
  C   C1086     1.0  0.63228  0.81896  0.92601  1.0000
  H   H1091     1.0  0.91894  0.69199  0.86146  1.0000
  H   H1092     1.0  0.86170  0.56853  0.92654  1.0000
  C   C1087     1.0  0.87534  0.64787  0.92436  1.0000
  C   C1088     1.0  0.88882  0.63108  0.91476  1.0000
  C   C1089     1.0  0.89161  0.63351  0.89584  1.0000
  C   C1090     1.0  0.88115  0.65278  0.88620  1.0000
  C   C1091     1.0  0.86785  0.66967  0.89583  1.0000
  C   C1092     1.0  0.86494  0.66717  0.91473  1.0000
  H   H1093     1.0  0.89695  0.61613  0.92188  1.0000
  H   H1094     1.0  0.90197  0.62032  0.88858  1.0000
  H   H1095     1.0  0.85967  0.68459  0.88870  1.0000
  H   H1096     1.0  0.85448  0.68032  0.92195  1.0000
  H   H1097     1.0  0.61027  0.83217  0.76032  1.0000
  C   C1093     1.0  0.77458  0.71736  0.81507  1.0000
  H   H1098     1.0  0.66151  0.89114  0.75579  1.0000
  C   C1094     1.0  0.79289  0.75954  0.77853  1.0000
  H   H1099     1.0  0.80635  0.69545  0.79381  1.0000
  C   C1095     1.0  0.98141  0.59274  0.98400  1.0000
  C   C1096     1.0  0.77227  0.81814  0.81744  1.0000
  C   C1097     1.0  0.79442  0.81269  0.80935  1.0000
  C   C1098     1.0  0.80769  0.79189  0.81405  1.0000
  C   C1099     1.0  0.79912  0.77623  0.82712  1.0000
  C   C1100     1.0  0.77697  0.78166  0.83519  1.0000
  C   C1101     1.0  0.76358  0.80232  0.83033  1.0000
  H   H1100     1.0  0.80144  0.82477  0.79943  1.0000
  H   H1101     1.0  0.82463  0.78809  0.80768  1.0000
  H   H1102     1.0  0.77008  0.76979  0.84534  1.0000
  H   H1103     1.0  0.74668  0.80617  0.83676  1.0000
  C   C1102     1.0  0.56723  0.84515  0.94833  1.0000
  H   H1104     1.0  0.73083  0.96657  0.80630  1.0000
  S   S381      1.0  0.91209  0.62870  0.98800  1.0000
  H   H1105     1.0  0.64449  0.92637  0.87366  1.0000
  C   C1103     1.0  0.64517  0.84318  0.75659  1.0000
  C   C1104     1.0  0.59386  0.83969  0.92280  1.0000
  H   H1106     1.0  0.82713  0.71161  0.76705  1.0000
  C   C1105     1.0  0.64758  0.87336  0.92654  1.0000
  C   C1106     1.0  0.62861  0.88278  0.91686  1.0000
  C   C1107     1.0  0.62975  0.88339  0.89787  1.0000
  C   C1108     1.0  0.64996  0.87504  0.88827  1.0000
  C   C1109     1.0  0.66917  0.86623  0.89795  1.0000
  C   C1110     1.0  0.66789  0.86528  0.91694  1.0000
  H   H1107     1.0  0.61286  0.88906  0.92401  1.0000
  H   H1108     1.0  0.61479  0.89030  0.89055  1.0000
  H   H1109     1.0  0.68480  0.85962  0.89082  1.0000
  H   H1110     1.0  0.68265  0.85784  0.92427  1.0000
  H   H1111     1.0  0.96522  0.52134  0.98565  1.0000
  H   H1112     1.0  0.55961  0.85740  0.92136  1.0000
  C   C1111     1.0  0.81420  0.72252  0.77436  1.0000
  C   C1112     1.0  0.68532  0.95902  0.85540  1.0000
  H   H1113     1.0  0.78716  0.70634  0.82324  1.0000
  H   H1114     1.0  0.76844  0.76072  0.80097  1.0000
  N   N92       1.0  0.66990  0.94572  0.76802  1.0000
  H   H1115     1.0  0.76041  0.70680  0.81106  1.0000
  N   N93       1.0  0.82549  0.61411  0.93938  1.0000
  C   C1113     1.0  0.84032  0.60068  0.92864  1.0000
  H   H1116     1.0  0.58000  0.83132  0.97363  1.0000
  H   H1117     1.0  0.97557  0.75723  0.80944  1.0000
  S   S382      1.0  0.62744  0.91201  0.98913  1.0000
  H   H1118     1.0  0.82312  0.64175  0.91921  1.0000
  H   H1119     1.0  0.63152  0.80001  0.92429  1.0000
  C   C1114     1.0  0.64976  0.95022  0.77801  1.0000
  C   C1115     1.0  0.59368  0.98287  0.98235  1.0000
  C   C1116     1.0  0.68755  0.96290  0.76624  1.0000
  C   C1117     1.0  0.88479  0.51196  0.97937  1.0000
  C   C1118     1.0  0.62467  0.83427  0.75078  1.0000
  H   H1120     1.0  0.82386  0.57869  0.97677  1.0000
  H   H1121     1.0  0.68316  0.90772  0.87815  1.0000
  H   H1122     1.0  0.93003  0.73169  0.85354  1.0000
  C   C1119     1.0  0.82834  0.58467  0.96313  1.0000
  C   C1120     1.0  0.81961  0.60646  0.95647  1.0000
  C   C1121     1.0  0.78119  0.74981  0.79350  1.0000
  H   H1123     1.0  0.89308  0.52695  0.97363  1.0000
  C   C1122     1.0  0.67419  0.92479  0.76009  1.0000
  N   N94       1.0  0.61009  0.82871  0.93373  1.0000
  H   H1124     1.0  0.78929  0.77774  0.77465  1.0000
  C   C1123     1.0  0.57229  0.84829  0.92996  1.0000
  C   C1124     1.0  0.80242  0.71347  0.78955  1.0000
  C   C1125     1.0  0.97614  0.61610  0.97906  1.0000
  N   N95       1.0  0.78648  0.72722  0.79909  1.0000
  C   C1126     1.0  0.69027  0.92327  0.87219  1.0000
  H   H1125     1.0  0.92969  0.68387  0.83935  1.0000
  H   H1126     1.0  0.62515  0.89880  0.77400  1.0000
  H   H1127     1.0  0.64088  0.95274  0.86015  1.0000
  H   H1128     1.0  0.59769  0.84220  0.90850  1.0000
  C   C1127     1.0  0.58378  0.83371  0.95931  1.0000
  H   H1129     1.0  0.79647  0.63658  0.93175  1.0000
  C   C1128     1.0  0.61771  0.97782  0.98069  1.0000
  N   N96       1.0  0.95333  0.70128  0.85409  1.0000
  H   H1130     1.0  0.64677  0.82194  0.93491  1.0000
  C   C1129     1.0  0.97604  0.69260  0.85332  1.0000
  H   H1131     1.0  0.62463  0.96020  0.97873  1.0000
  H   H1132     1.0  0.67431  0.97175  0.84798  1.0000
  C   C1130     1.0  0.98124  0.73895  0.80919  1.0000
  C   C1131     1.0  0.93458  0.68547  0.85349  1.0000
  H   H1133     1.0  0.96133  0.75888  0.85309  1.0000
  C   C1132     1.0  0.86554  0.51508  0.99126  1.0000
  C   C1133     1.0  0.66362  0.84569  0.74402  1.0000
  H   H1134     1.0  0.69252  0.96626  0.75187  1.0000
  C   C1134     1.0  0.81561  0.63682  0.93269  1.0000
  C   C1135     1.0  0.63333  0.93349  0.78029  1.0000
  H   H1135     1.0  0.81344  0.63443  0.76129  1.0000
  H   H1136     1.0  0.63657  0.82749  0.91274  1.0000
  H   H1137     1.0  0.95869  0.62200  0.97556  1.0000
  C   C1136     1.0  0.71415  0.92586  0.87310  1.0000
  C   C1137     1.0  0.72362  0.94538  0.86483  1.0000
  C   C1138     1.0  0.80957  0.74578  0.76896  1.0000
  H   H1138     1.0  0.81901  0.75313  0.75746  1.0000
  H   H1139     1.0  0.81969  0.65060  0.94190  1.0000
  C   C1139     1.0  0.65153  0.93602  0.86166  1.0000
  H   H1140     1.0  0.72527  0.91250  0.87979  1.0000
  C   C1140     1.0  0.63751  0.91217  0.77213  1.0000
  C   C1141     1.0  0.69492  0.97842  0.81074  1.0000
  C   C1142     1.0  0.70914  0.96212  0.85593  1.0000
  C   C1143     1.0  0.84957  0.57890  0.93495  1.0000
  C   C1144     1.0  0.71864  0.98156  0.80784  1.0000
  Fe  Fe191     1.0  0.92332  0.59070  0.98763  1.0000
  H   H1141     1.0  0.55061  0.85179  0.95415  1.0000
  C   C1145     1.0  0.97214  0.69878  0.80855  1.0000
  S   S383      1.0  0.57435  0.96067  0.98295  1.0000
  H   H1142     1.0  0.61773  0.93679  0.78865  1.0000
  H   H1143     1.0  0.95956  0.68574  0.80827  1.0000
  C   C1146     1.0  0.82224  0.64447  0.75086  1.0000
  H   H1144     1.0  0.64673  0.96647  0.78487  1.0000
  C   C1147     1.0  0.96567  0.74027  0.85371  1.0000
  Fe  Fe192     1.0  0.58986  0.92398  0.98685  1.0000
  H   H1145     1.0  0.74218  0.94736  0.86507  1.0000
  H   H1146     1.0  0.93974  0.66785  0.85921  1.0000
  H   H1147     1.0  0.86111  0.68606  0.74550  1.0000
  H   H1148     1.0  0.67965  0.85217  0.74821  1.0000
  H   H1149     1.0  0.68126  0.97977  0.77206  1.0000
  S   S384      1.0  0.95938  0.57326  0.98654  1.0000
  H   H1150     1.0  0.71633  0.97714  0.84908  1.0000
  H   H1151     1.0  0.98026  0.67405  0.85244  1.0000
  C   C1148     1.0  0.49369  0.85519  0.98925  1.0000
  H   H1152     1.0  0.49666  0.83658  0.98797  1.0000
  C   C1149     1.0  0.89330  0.48937  0.97480  1.0000
  C   C1150     1.0  0.98888  0.73156  0.85322  1.0000
  C   C1151     1.0  0.51274  0.86865  0.99166  1.0000
  C   C1152     1.0  0.84902  0.67354  0.74206  1.0000
