data_image0
_chemical_formula_structural       CHC2FeS2FeS2FeS2FeSFeS3FeS2HFeS2FeSFeSFeS3FeSFeS2FeSFeS3C9H6CH2C6H4C7H4C6H5C2H2C6H4CNCFeHNCHC2H5CHNC2HNC6H8C2H2NHCNCSHCFeCFeCHNH5CH4S2HNHC4H2C2H3C2HCHCHC2H4CHCSC2SHCH2C3H4CHNHCH2C3H2C3HSHCH2C2HC2FeS2H3FeS2FeS2FeSFeS3FeS3FeS2FeSFeSFeS3FeS2FeSFeSFeS3CH2C6H4C2H5C6H4C6H4C6H4C3HFeC6H7CH2C2H2C2H5C2NH2CHC2NHCH2NC6H9C2FeHC6H2CH2CH2C2H2C2NCHCH2SNC5H10C2SHCSHSC2H3NCHCH2FeSFeS2FeSFeS3FeS2FeS2FeSFeS2HFeS2FeS2FeS2FeSFeS3H3CFeS2H2C7H4C3N2C6H5NH2SC6H4C3NHC2HC3HCH2SC8H3CH3SH3FeHNC6H9C3HNHCHC3HC2H3CHCHC2HC3H2C2H4CHCNHCHCHCH3C2H3NC7HSCH2CH2C3HFeCHFeC2H5CH2CH2CSHSHFeS2FeS2Fe2S3FeS2FeS2FeSFeS2FeS2HFeS2FeS2FeSFeS3C2HCFeS2H2C7H5C10H4C2HC3HSH2C3NHS2C6H4C6HNH6NC6H8CHC4HCHFeH2CHNC6H11C2FeHC4HCFeCNC3HC2SCH3CH7CH2C2HCHNHC2H3C2HCNH3CHCNHCSHC3H4FeCSCFeS2NHFeS2C2HFeS2FeS2FeSFeS3HFeS2FeS2FeSFeS3C6H5CHCH2C7H4C6HCH2C2HFeC2HC2HC6H3NHC6H4C8HSHCH2CH4C4H3CHCH3CS2CHSC2NC6H8NC6H8CNH2NSH5CHCH2SCH2C2H4C3FeS2HC3S2H4FeS2FeS2FeSFeS3H2Fe2S2FeS2FeSFeS3C7H4C6H2CHC6H4C6H3NC2HC8H4CHC6H4C6H3C2H2C2HCSCHC2FeH4NCHSH2CH2NHCNCH4NC6H5CH3SHC3HCHCSH3CNC6H8NC7FeHCH4SNHFeH2CHC2H4CHC2HCFeS2CSHCHFeS2H3C8H5CNSHNH3SCH5CFeC2H2C2HCHCFeCHCFeHCHCHC2HFeS2FeCSC2HCHCHCHC7H6CHNCH2C4NHCSHS2HCHCFe2HNHC2H2SH2C2H4C2HCHSH5CH2CS2H3CHFeS2H4CSCFeHC7H4SNCHNC5H2CFeHCH3NHSCH3CH5CHCFeSC4FeS2CHCH2FeS2HCH2C2H3NH2CHC6H4C3HC2H2CH6CNHCFeSH3CFeHSC2HC3SCSCFeS2FeS2FeSFeS3HSFeS2FeS2FeSFeS3HCHFeS2FeS2CH4C7H4NHC4HCHCHC3HC2H5C6H4CHC5H2CNC7H4C6SH3S2C2NC6H10CH2CH6NCHCHCHCHCH2SHC2H2CH3CH2CSCH2CH2CH2C7H3CFeCFeHCNC4HCHCHNH2CH2CH2C2NHCHCNFeS2FeS2FeSFeS3CHFeS2FeS2FeSFeS3H2FeS2FeHSFeS2C8H4CHC6SHCH4NHC6H4C2H2CSH3C6H4C6H2CH3CHC6HCSNC6H9C4H2C2HCNH2CH3CHC3HNC6H8NC6H3SHNHCSH7CH4CNC2H2C3H3C2H2SHC3FeHCHFeSHFeS2HFeS2FeS2FeSFeS3FeSFeS2FeSFeS3FeS2FeSFeSFeS3H2C3HC7H5CHC6H4C3H2C6H4C5H3NH2C6H5CHNH2C4H2CH2NHC2HC3HC6H3C3H2CH2C2NH2SCHCS2HCHCHC3HCH4C4NCNC2H5C2HC2H4NH3CH7SCFeH4CH2C2FeS2HC2FeS2HFeS2FeS2FeSFeS3FeS2FeSFeSFeS3FeS2FeS2Fe2S3H4C4NC7H7C6H4C2H3C6H4C6HC3H2C6H4SHCHCH3CHCH3CHCHCH2CH2NC6H8C2NCSC5H2CH2NC6H4CSHFeHC3H2C2NH3SH6C2H2SC2H3NCHSCHFeSFeS2FeSFeS3FeS2FeS2Fe2S3C2S2FeCSC2FeS2FeS2FeSFeS3C2H2C7H4C2HC6H4FeHCH3C2HNH2C6H4C6H5CH2SC3HC2H2C2NC4H5NC6H5SHNCSH2C3NH2CHNHC2HC3H3CH2CH3NCH2NC6H8C2HSH2CH2SH3C2H5CHCH2CHSH2C2FeSFeS2FeSFeS3FeS2FeS2FeSFeS2NFeS2HC2FeS2FeS2FeS2FeSFeS3C2HCHC6H5C8H4CHC2H2C3H2NHC6H4C6H5CHCHSC2H3CH9C2NHCH2SHNC6H10CHC2H2CH2NC3HC2HCHCHFeC2H2SH3CH3C3H2SC3H
_chemical_formula_sum              "C1152 H1152 Fe192 S384 N96"
_cell_length_a       56.365
_cell_length_b       56.1903
_cell_length_c       82.858
_cell_angle_alpha    90.6798
_cell_angle_beta     90.9966
_cell_angle_gamma    117.679

_space_group_name_H-M_alt    "P 1"
_space_group_IT_number       1

loop_
  _space_group_symop_operation_xyz
  'x, y, z'

loop_
  _atom_site_type_symbol
  _atom_site_label
  _atom_site_symmetry_multiplicity
  _atom_site_fract_x
  _atom_site_fract_y
  _atom_site_fract_z
  _atom_site_occupancy
  C   C1        1.0  0.01403  0.44131  0.09168  1.0000
  H   H1        1.0  0.07886  0.46630  0.12628  1.0000
  C   C2        1.0  0.00855  0.31957  0.00905  1.0000
  C   C3        1.0  0.38046  0.34868  0.00795  1.0000
  Fe  Fe1       1.0  0.21528  0.02863  0.16628  1.0000
  S   S1        1.0  0.19985  0.05759  0.15789  1.0000
  S   S2        1.0  0.25903  0.04095  0.16927  1.0000
  Fe  Fe2       1.0  0.24329  0.26049  0.15438  1.0000
  S   S3        1.0  0.21955  0.21539  0.15066  1.0000
  S   S4        1.0  0.24903  0.28604  0.13192  1.0000
  Fe  Fe3       1.0  0.23826  0.25519  0.19141  1.0000
  S   S5        1.0  0.21373  0.21047  0.19015  1.0000
  S   S6        1.0  0.24833  0.27845  0.21525  1.0000
  Fe  Fe4       1.0  0.24308  0.21181  0.17179  1.0000
  S   S7        1.0  0.26044  0.18288  0.17578  1.0000
  Fe  Fe5       1.0  0.19224  0.21765  0.16931  1.0000
  S   S8        1.0  0.14761  0.19413  0.16492  1.0000
  S   S9        1.0  0.26947  0.25682  0.17419  1.0000
  S   S10       1.0  0.21417  0.26242  0.17197  1.0000
  Fe  Fe6       1.0  0.04019  0.23478  0.18802  1.0000
  S   S11       1.0  0.03184  0.26992  0.18507  1.0000
  S   S12       1.0  0.08032  0.24360  0.19926  1.0000
  H   H2        1.0  0.36487  0.06760  0.02562  1.0000
  Fe  Fe7       1.0  0.34290  0.41140  0.07574  1.0000
  S   S13       1.0  0.31905  0.39608  0.05228  1.0000
  S   S14       1.0  0.34312  0.38727  0.09792  1.0000
  Fe  Fe8       1.0  0.37386  0.46992  0.06419  1.0000
  S   S15       1.0  0.35111  0.45819  0.04053  1.0000
  Fe  Fe9       1.0  0.31366  0.43349  0.05423  1.0000
  S   S16       1.0  0.27667  0.43679  0.04482  1.0000
  Fe  Fe10      1.0  0.35826  0.42202  0.04029  1.0000
  S   S17       1.0  0.37456  0.41755  0.01591  1.0000
  S   S18       1.0  0.33578  0.44770  0.07819  1.0000
  S   S19       1.0  0.38276  0.43487  0.06353  1.0000
  Fe  Fe11      1.0  0.10345  0.45834  0.06949  1.0000
  S   S20       1.0  0.11939  0.44360  0.04907  1.0000
  Fe  Fe12      1.0  0.07228  0.40073  0.08299  1.0000
  S   S21       1.0  0.08544  0.38217  0.06314  1.0000
  S   S22       1.0  0.04898  0.38201  0.10580  1.0000
  Fe  Fe13      1.0  0.12662  0.41758  0.06691  1.0000
  S   S23       1.0  0.16408  0.41384  0.07454  1.0000
  Fe  Fe14      1.0  0.07692  0.40944  0.04671  1.0000
  S   S24       1.0  0.05992  0.39874  0.02080  1.0000
  S   S25       1.0  0.11354  0.43466  0.08754  1.0000
  S   S26       1.0  0.06085  0.42574  0.06635  1.0000
  C   C4        1.0  0.02641  0.38641  0.01329  1.0000
  C   C5        1.0  0.14497  0.11489  0.17526  1.0000
  C   C6        1.0  0.31144  0.28268  0.24763  1.0000
  C   C7        1.0  0.19445  0.41862  0.06558  1.0000
  C   C8        1.0  0.21373  0.41571  0.07523  1.0000
  C   C9        1.0  0.23883  0.42086  0.06908  1.0000
  C   C10       1.0  0.24502  0.42906  0.05315  1.0000
  C   C11       1.0  0.22570  0.43188  0.04348  1.0000
  C   C12       1.0  0.20052  0.42661  0.04961  1.0000
  H   H3        1.0  0.20923  0.40945  0.08758  1.0000
  H   H4        1.0  0.25341  0.41852  0.07665  1.0000
  H   H5        1.0  0.23023  0.43811  0.03113  1.0000
  H   H6        1.0  0.18595  0.42891  0.04202  1.0000
  H   H7        1.0  0.03095  0.36013  0.13714  1.0000
  H   H8        1.0  0.20172  0.15406  0.19719  1.0000
  C   C13       1.0  0.44847  0.40593  0.01353  1.0000
  H   H9        1.0  0.34685  0.49186  0.11796  1.0000
  H   H10       1.0  0.00282  0.46785  0.07880  1.0000
  C   C14       1.0  0.02908  0.29985  0.12811  1.0000
  C   C15       1.0  0.02685  0.31992  0.13712  1.0000
  C   C16       1.0  0.03328  0.34499  0.13016  1.0000
  C   C17       1.0  0.04251  0.35055  0.11426  1.0000
  C   C18       1.0  0.04528  0.33067  0.10540  1.0000
  C   C19       1.0  0.18531  0.13612  0.19184  1.0000
  H   H11       1.0  0.01415  0.32188  0.02179  1.0000
  H   H12       1.0  0.16484  0.48950  0.08350  1.0000
  H   H13       1.0  0.23159  0.47627  0.07303  1.0000
  H   H14       1.0  0.42671  0.01594  0.01225  1.0000
  C   C20       1.0  0.28428  0.07101  0.13269  1.0000
  C   C21       1.0  0.12872  0.20708  0.17505  1.0000
  C   C22       1.0  0.10139  0.19704  0.17112  1.0000
  C   C23       1.0  0.08629  0.20803  0.17852  1.0000
  C   C24       1.0  0.09842  0.22890  0.19002  1.0000
  C   C25       1.0  0.12564  0.23862  0.19413  1.0000
  C   C26       1.0  0.14080  0.22786  0.18660  1.0000
  H   H15       1.0  0.09190  0.18091  0.16223  1.0000
  H   H16       1.0  0.06525  0.20025  0.17538  1.0000
  H   H17       1.0  0.13512  0.25469  0.20306  1.0000
  H   H18       1.0  0.16180  0.23562  0.18981  1.0000
  C   C27       1.0  0.27561  0.31446  0.12289  1.0000
  C   C28       1.0  0.26994  0.32494  0.10882  1.0000
  C   C29       1.0  0.29020  0.34721  0.10107  1.0000
  C   C30       1.0  0.31654  0.35931  0.10727  1.0000
  C   C31       1.0  0.32220  0.34892  0.12140  1.0000
  C   C32       1.0  0.30191  0.32670  0.12918  1.0000
  H   H19       1.0  0.24973  0.31568  0.10378  1.0000
  H   H20       1.0  0.28544  0.35485  0.09023  1.0000
  H   H21       1.0  0.34248  0.35801  0.12630  1.0000
  H   H22       1.0  0.30668  0.31893  0.13995  1.0000
  H   H23       1.0  0.15033  0.05250  0.20006  1.0000
  C   C33       1.0  0.24424  0.26171  0.23377  1.0000
  C   C34       1.0  0.23962  0.23502  0.23420  1.0000
  H   H24       1.0  0.20617  0.02693  0.12168  1.0000
  H   H25       1.0  0.23682  0.22375  0.22308  1.0000
  C   C35       1.0  0.21688  0.09235  0.16302  1.0000
  C   C36       1.0  0.20728  0.10947  0.15671  1.0000
  C   C37       1.0  0.22041  0.13725  0.16045  1.0000
  C   C38       1.0  0.24331  0.14815  0.17056  1.0000
  C   C39       1.0  0.25300  0.13103  0.17675  1.0000
  C   C40       1.0  0.23982  0.10326  0.17306  1.0000
  H   H26       1.0  0.18959  0.10124  0.14887  1.0000
  H   H27       1.0  0.21284  0.15023  0.15552  1.0000
  H   H28       1.0  0.27078  0.13929  0.18451  1.0000
  H   H29       1.0  0.24748  0.09034  0.17797  1.0000
  C   C41       1.0  0.01823  0.46623  0.08602  1.0000
  N   N1        1.0  0.24057  0.06503  0.12487  1.0000
  C   C42       1.0  0.24753  0.09068  0.13009  1.0000
  Fe  Fe15      1.0  0.24729  0.01654  0.19185  1.0000
  H   H30       1.0  0.29200  0.04714  0.24784  1.0000
  N   N2        1.0  0.19799  0.48168  0.07982  1.0000
  C   C43       1.0  0.41071  0.44784  0.10588  1.0000
  H   H31       1.0  0.07521  0.50032  0.05632  1.0000
  C   C44       1.0  0.38136  0.39234  0.00757  1.0000
  C   C45       1.0  0.07924  0.45999  0.11359  1.0000
  H   H32       1.0  0.29833  0.06285  0.13376  1.0000
  H   H33       1.0  0.29691  0.21844  0.23813  1.0000
  H   H34       1.0  0.04912  0.34291  0.00139  1.0000
  H   H35       1.0  0.43954  0.36716  0.02299  1.0000
  H   H36       1.0  0.21466  0.04856  0.10436  1.0000
  C   C46       1.0  0.37079  0.44637  0.11817  1.0000
  H   H37       1.0  0.12845  0.07211  0.17202  1.0000
  N   N3        1.0  0.30119  0.24825  0.22107  1.0000
  C   C47       1.0  0.05991  0.27492  0.23039  1.0000
  C   C48       1.0  0.00078  0.29163  0.24030  1.0000
  H   H38       1.0  0.05433  0.29124  0.23251  1.0000
  N   N4        1.0  0.16569  0.26062  0.13970  1.0000
  C   C49       1.0  0.18391  0.28622  0.14436  1.0000
  C   C50       1.0  0.13993  0.24970  0.14491  1.0000
  C   C51       1.0  0.17641  0.30165  0.15441  1.0000
  C   C52       1.0  0.13166  0.26468  0.15479  1.0000
  C   C53       1.0  0.15008  0.29074  0.15963  1.0000
  C   C54       1.0  0.17401  0.24416  0.12980  1.0000
  H   H39       1.0  0.20451  0.29472  0.14050  1.0000
  H   H40       1.0  0.12574  0.22908  0.14168  1.0000
  H   H41       1.0  0.19101  0.32181  0.15821  1.0000
  H   H42       1.0  0.11122  0.25592  0.15896  1.0000
  H   H43       1.0  0.14395  0.30231  0.16755  1.0000
  H   H44       1.0  0.15817  0.23194  0.12069  1.0000
  H   H45       1.0  0.19255  0.25675  0.12315  1.0000
  H   H46       1.0  0.17796  0.23046  0.13766  1.0000
  C   C55       1.0  0.29119  0.09681  0.13862  1.0000
  C   C56       1.0  0.00428  0.37416  0.02323  1.0000
  H   H47       1.0  0.23322  0.09849  0.12922  1.0000
  H   H48       1.0  0.25337  0.03514  0.12139  1.0000
  N   N5        1.0  0.05820  0.46197  0.10395  1.0000
  H   H49       1.0  0.09928  0.47292  0.10856  1.0000
  C   C57       1.0  0.31097  0.29170  0.23208  1.0000
  N   N6        1.0  0.16413  0.08838  0.18677  1.0000
  C   C58       1.0  0.06069  0.23752  0.24479  1.0000
  S   S27       1.0  0.02328  0.21700  0.16361  1.0000
  H   H50       1.0  0.42513  0.45177  0.11610  1.0000
  C   C59       1.0  0.25874  0.05532  0.12578  1.0000
  Fe  Fe16      1.0  0.24982  0.00218  0.15589  1.0000
  C   C60       1.0  0.42057  0.08770  0.01051  1.0000
  Fe  Fe17      1.0  0.01203  0.25047  0.16125  1.0000
  C   C61       1.0  0.36019  0.48317  0.11590  1.0000
  H   H51       1.0  0.31069  0.10891  0.14437  1.0000
  N   N7        1.0  0.39332  0.46007  0.10939  1.0000
  H   H52       1.0  0.43921  0.41129  0.02336  1.0000
  H   H53       1.0  0.41827  0.49662  0.09761  1.0000
  H   H54       1.0  0.05938  0.22767  0.23318  1.0000
  H   H55       1.0  0.15435  0.04857  0.17870  1.0000
  H   H56       1.0  0.23272  0.49261  0.04544  1.0000
  C   C62       1.0  0.40023  0.48552  0.10439  1.0000
  H   H57       1.0  0.42484  0.07401  0.01764  1.0000
  H   H58       1.0  0.29849  0.21279  0.20935  1.0000
  H   H59       1.0  0.36654  0.36504  0.02726  1.0000
  H   H60       1.0  0.30219  0.00285  0.10541  1.0000
  S   S28       1.0  0.20405  0.00673  0.18973  1.0000
  S   S29       1.0  0.27107  0.03231  0.21539  1.0000
  H   H61       1.0  0.36554  0.42637  0.12241  1.0000
  N   N8        1.0  0.39471  0.08303  0.00786  1.0000
  H   H62       1.0  0.31322  0.31174  0.23028  1.0000
  C   C63       1.0  0.27161  0.03125  0.24851  1.0000
  C   C64       1.0  0.14451  0.09004  0.17762  1.0000
  C   C65       1.0  0.30564  0.27407  0.21886  1.0000
  C   C66       1.0  0.03834  0.30543  0.11223  1.0000
  H   H63       1.0  0.30388  0.28086  0.20690  1.0000
  H   H64       1.0  0.30471  0.23996  0.19623  1.0000
  C   C67       1.0  0.29375  0.22961  0.20715  1.0000
  C   C68       1.0  0.44183  0.10939  0.00335  1.0000
  H   H65       1.0  0.16611  0.15742  0.18055  1.0000
  H   H66       1.0  0.18320  0.06392  0.19167  1.0000
  H   H67       1.0  0.03072  0.42017  0.10527  1.0000
  C   C69       1.0  0.16285  0.06207  0.18950  1.0000
  C   C70       1.0  0.37535  0.36842  0.01546  1.0000
  H   H68       1.0  0.27777  0.12677  0.14194  1.0000
  C   C71       1.0  0.21385  0.04803  0.11773  1.0000
  H   H69       1.0  0.07655  0.43907  0.11349  1.0000
  C   C72       1.0  0.27277  0.10683  0.13724  1.0000
  H   H70       1.0  0.12957  0.11633  0.16790  1.0000
  C   C73       1.0  0.19713  0.47151  0.09613  1.0000
  C   C74       1.0  0.44866  0.38119  0.01334  1.0000
  H   H71       1.0  0.25144  0.29673  0.24816  1.0000
  H   H72       1.0  0.05224  0.33452  0.09316  1.0000
  H   H73       1.0  0.27191  0.22102  0.20446  1.0000
  H   H74       1.0  0.46217  0.11235  0.00490  1.0000
  C   C75       1.0  0.35370  0.45752  0.12138  1.0000
  H   H75       1.0  0.37879  0.04557  0.02021  1.0000
  C   C76       1.0  0.18425  0.11097  0.19396  1.0000
  S   S30       1.0  0.01906  0.26698  0.13564  1.0000
  C   C77       1.0  0.30155  0.23921  0.23630  1.0000
  C   C78       1.0  0.25597  0.02119  0.23427  1.0000
  S   S31       1.0  0.00211  0.20885  0.20064  1.0000
  H   H76       1.0  0.04009  0.29009  0.10511  1.0000
  C   C79       1.0  0.40618  0.00990  0.00850  1.0000
  H   H77       1.0  0.19999  0.10976  0.20106  1.0000
  H   H78       1.0  0.37564  0.33014  0.01408  1.0000
  C   C80       1.0  0.21803  0.49250  0.05379  1.0000
  C   C81       1.0  0.16552  0.13804  0.18241  1.0000
  C   C82       1.0  0.03423  0.43960  0.10086  1.0000
  H   H79       1.0  0.33531  0.44606  0.12777  1.0000
  H   H80       1.0  0.07952  0.28327  0.22435  1.0000
  H   H81       1.0  0.01962  0.31596  0.14930  1.0000
  H   H82       1.0  0.19913  0.05469  0.12181  1.0000
  C   C83       1.0  0.21727  0.48321  0.06946  1.0000
  H   H83       1.0  0.04437  0.26000  0.22200  1.0000
  N   N9        1.0  0.06130  0.26214  0.24545  1.0000
  H   H84       1.0  0.39863  0.42574  0.10385  1.0000
  C   C84       1.0  0.37253  0.06032  0.01546  1.0000
  H   H85       1.0  0.00737  0.37354  0.03610  1.0000
  H   H86       1.0  0.42193  0.45591  0.09464  1.0000
  C   C85       1.0  0.38372  0.49739  0.10748  1.0000
  C   C86       1.0  0.24787  0.27608  0.24838  1.0000
  C   C87       1.0  0.17992  0.49037  0.07524  1.0000
  H   H87       1.0  0.00021  0.30638  0.23223  1.0000
  H   H88       1.0  0.20669  0.45809  0.09665  1.0000
  C   C88       1.0  0.23966  0.22319  0.24906  1.0000
  C   C89       1.0  0.06231  0.48654  0.09867  1.0000
  C   C90       1.0  0.04241  0.48906  0.08967  1.0000
  H   H89       1.0  0.17600  0.45889  0.09966  1.0000
  S   S32       1.0  0.27603  0.00439  0.13454  1.0000
  H   H90       1.0  0.35597  0.04915  0.00650  1.0000
  C   C91       1.0  0.18026  0.50001  0.05972  1.0000
  H   H91       1.0  0.20739  0.48848  0.10491  1.0000
  H   H92       1.0  0.23686  0.20281  0.24923  1.0000
  C   C92       1.0  0.30676  0.25629  0.24980  1.0000
  C   C93       1.0  0.19928  0.50080  0.04889  1.0000
  H   H93       1.0  0.45826  0.44208  0.00069  1.0000
  C   C94       1.0  0.45913  0.42319  0.00058  1.0000
  C   C95       1.0  0.45958  0.37406  0.00031  1.0000
  Fe  Fe18      1.0  0.23756  0.04226  0.32857  1.0000
  S   S33       1.0  0.26280  0.02132  0.32349  1.0000
  S   S34       1.0  0.25684  0.08789  0.32643  1.0000
  H   H94       1.0  0.23638  0.11610  0.28420  1.0000
  H   H95       1.0  0.18492  0.06191  0.29239  1.0000
  H   H96       1.0  0.06389  0.22750  0.28508  1.0000
  Fe  Fe19      1.0  0.26515  0.26678  0.33907  1.0000
  S   S35       1.0  0.22676  0.24306  0.35182  1.0000
  S   S36       1.0  0.30194  0.30085  0.35134  1.0000
  Fe  Fe20      1.0  0.24134  0.23666  0.30661  1.0000
  S   S37       1.0  0.20078  0.21214  0.31717  1.0000
  S   S38       1.0  0.24769  0.22332  0.28173  1.0000
  Fe  Fe21      1.0  0.20759  0.25049  0.32979  1.0000
  S   S39       1.0  0.18081  0.26983  0.33398  1.0000
  Fe  Fe22      1.0  0.22397  0.20704  0.33795  1.0000
  S   S40       1.0  0.20939  0.16575  0.34871  1.0000
  S   S41       1.0  0.24629  0.27570  0.31739  1.0000
  S   S42       1.0  0.26429  0.23007  0.32712  1.0000
  Fe  Fe23      1.0  0.02926  0.22434  0.32328  1.0000
  S   S43       1.0  0.04363  0.26860  0.32626  1.0000
  S   S44       1.0  0.05593  0.20465  0.31994  1.0000
  S   S45       1.0  0.21761  0.01659  0.34978  1.0000
  Fe  Fe24      1.0  0.32211  0.39890  0.43010  1.0000
  S   S46       1.0  0.30151  0.40121  0.45280  1.0000
  S   S47       1.0  0.29628  0.35869  0.41689  1.0000
  Fe  Fe25      1.0  0.36735  0.45737  0.43540  1.0000
  S   S48       1.0  0.34877  0.46300  0.45794  1.0000
  Fe  Fe26      1.0  0.34288  0.42160  0.46428  1.0000
  S   S49       1.0  0.35119  0.41464  0.49050  1.0000
  Fe  Fe27      1.0  0.30888  0.44178  0.44444  1.0000
  S   S50       1.0  0.27883  0.45879  0.44402  1.0000
  S   S51       1.0  0.36318  0.41662  0.44230  1.0000
  S   S52       1.0  0.32775  0.43888  0.42128  1.0000
  Fe  Fe28      1.0  0.08080  0.41263  0.42208  1.0000
  S   S53       1.0  0.07968  0.38604  0.44221  1.0000
  S   S54       1.0  0.06417  0.39706  0.39657  1.0000
  Fe  Fe29      1.0  0.10411  0.46335  0.44449  1.0000
  S   S55       1.0  0.10451  0.43940  0.46618  1.0000
  Fe  Fe30      1.0  0.12105  0.41917  0.44917  1.0000
  S   S56       1.0  0.15323  0.40645  0.45595  1.0000
  Fe  Fe31      1.0  0.06337  0.40854  0.45729  1.0000
  S   S57       1.0  0.02236  0.38468  0.46873  1.0000
  S   S58       1.0  0.12296  0.44470  0.42805  1.0000
  S   S59       1.0  0.06231  0.43373  0.43655  1.0000
  C   C96       1.0  0.01216  0.38106  0.48918  1.0000
  H   H97       1.0  0.17567  0.14061  0.31432  1.0000
  H   H98       1.0  0.30827  0.27230  0.37885  1.0000
  C   C97       1.0  0.24311  0.44218  0.44457  1.0000
  C   C98       1.0  0.22924  0.45718  0.44177  1.0000
  C   C99       1.0  0.20139  0.44602  0.44419  1.0000
  C   C100      1.0  0.18706  0.41975  0.44967  1.0000
  C   C101      1.0  0.20075  0.40443  0.45190  1.0000
  C   C102      1.0  0.22853  0.41545  0.44924  1.0000
  H   H99       1.0  0.24025  0.47785  0.43813  1.0000
  H   H100      1.0  0.19124  0.45812  0.44246  1.0000
  H   H101      1.0  0.18989  0.38408  0.45611  1.0000
  H   H102      1.0  0.23878  0.40356  0.45137  1.0000
  C   C103      1.0  0.36975  0.37697  0.48631  1.0000
  C   C104      1.0  0.30686  0.23751  0.36661  1.0000
  H   H103      1.0  0.32504  0.20408  0.35581  1.0000
  H   H104      1.0  0.36224  0.37455  0.47397  1.0000
  H   H105      1.0  0.38536  0.02873  0.45294  1.0000
  H   H106      1.0  0.08451  0.17991  0.36843  1.0000
  H   H107      1.0  0.29303  0.17477  0.35451  1.0000
  C   C105      1.0  0.03692  0.31096  0.37634  1.0000
  C   C106      1.0  0.04915  0.31860  0.39181  1.0000
  C   C107      1.0  0.05817  0.34499  0.39802  1.0000
  C   C108      1.0  0.05511  0.36414  0.38881  1.0000
  C   C109      1.0  0.04350  0.35670  0.37318  1.0000
  C   C110      1.0  0.03451  0.33031  0.36695  1.0000
  H   H108      1.0  0.06714  0.35037  0.41003  1.0000
  H   H109      1.0  0.04112  0.37135  0.36591  1.0000
  H   H110      1.0  0.02510  0.32478  0.35506  1.0000
  H   H111      1.0  0.45061  0.36077  0.49222  1.0000
  C   C111      1.0  0.14673  0.25235  0.32805  1.0000
  C   C112      1.0  0.13496  0.22541  0.32293  1.0000
  C   C113      1.0  0.10719  0.21131  0.31975  1.0000
  C   C114      1.0  0.09103  0.22398  0.32180  1.0000
  C   C115      1.0  0.10296  0.25117  0.32638  1.0000
  C   C116      1.0  0.13074  0.26531  0.32947  1.0000
  H   H112      1.0  0.14715  0.21529  0.32174  1.0000
  H   H113      1.0  0.09809  0.19029  0.31612  1.0000
  H   H114      1.0  0.09077  0.26114  0.32801  1.0000
  H   H115      1.0  0.13976  0.28621  0.33334  1.0000
  C   C117      1.0  0.29907  0.34299  0.39882  1.0000
  C   C118      1.0  0.27678  0.31914  0.39339  1.0000
  C   C119      1.0  0.27735  0.30623  0.37885  1.0000
  C   C120      1.0  0.30040  0.31683  0.36963  1.0000
  C   C121      1.0  0.32288  0.34046  0.37514  1.0000
  C   C122      1.0  0.32220  0.35361  0.38963  1.0000
  H   H116      1.0  0.25883  0.31076  0.40044  1.0000
  H   H117      1.0  0.25994  0.28805  0.37484  1.0000
  H   H118      1.0  0.34091  0.34874  0.36816  1.0000
  H   H119      1.0  0.33955  0.37188  0.39370  1.0000
  C   C123      1.0  0.24394  0.23777  0.26364  1.0000
  C   C124      1.0  0.24755  0.26412  0.26329  1.0000
  C   C125      1.0  0.10803  0.49511  0.40512  1.0000
  H   H120      1.0  0.25095  0.27558  0.27445  1.0000
  Fe  Fe32      1.0  0.01153  0.25746  0.34465  1.0000
  C   C126      1.0  0.24322  0.10897  0.33296  1.0000
  C   C127      1.0  0.22115  0.09994  0.34300  1.0000
  C   C128      1.0  0.21098  0.11753  0.34779  1.0000
  C   C129      1.0  0.22245  0.14406  0.34235  1.0000
  C   C130      1.0  0.24431  0.15295  0.33216  1.0000
  C   C131      1.0  0.25480  0.13558  0.32765  1.0000
  H   H121      1.0  0.21213  0.07951  0.34722  1.0000
  H   H122      1.0  0.19410  0.11049  0.35572  1.0000
  H   H123      1.0  0.25313  0.17318  0.32773  1.0000
  H   H124      1.0  0.27180  0.14266  0.31981  1.0000
  H   H125      1.0  0.35972  0.02615  0.47735  1.0000
  H   H126      1.0  0.04323  0.19579  0.36102  1.0000
  H   H127      1.0  0.06094  0.20508  0.25844  1.0000
  C   C132      1.0  0.29679  0.25080  0.37657  1.0000
  H   H128      1.0  0.32606  0.24914  0.36106  1.0000
  H   H129      1.0  0.18919  0.45468  0.48435  1.0000
  C   C133      1.0  0.00918  0.27994  0.26721  1.0000
  C   C134      1.0  0.20805  0.15404  0.29764  1.0000
  H   H130      1.0  0.30074  0.20127  0.34032  1.0000
  H   H131      1.0  0.26329  0.24666  0.39056  1.0000
  C   C135      1.0  0.06164  0.22469  0.25901  1.0000
  C   C136      1.0  0.22276  0.12128  0.29064  1.0000
  H   H132      1.0  0.21976  0.07515  0.29858  1.0000
  H   H133      1.0  0.19515  0.06764  0.31351  1.0000
  H   H134      1.0  0.28294  0.43800  0.49613  1.0000
  H   H135      1.0  0.07422  0.18124  0.34776  1.0000
  H   H136      1.0  0.29546  0.46113  0.47977  1.0000
  C   C137      1.0  0.20063  0.07556  0.30114  1.0000
  C   C138      1.0  0.34915  0.01471  0.46656  1.0000
  N   N10       1.0  0.20365  0.10286  0.30021  1.0000
  H   H137      1.0  0.31433  0.29576  0.25803  1.0000
  H   H138      1.0  0.29223  0.00463  0.47843  1.0000
  C   C139      1.0  0.22530  0.14717  0.28925  1.0000
  H   H139      1.0  0.27421  0.42641  0.47531  1.0000
  C   C140      1.0  0.36380  0.01627  0.45280  1.0000
  C   C141      1.0  0.23009  0.42587  0.48922  1.0000
  N   N11       1.0  0.29263  0.21036  0.36382  1.0000
  H   H140      1.0  0.06467  0.29468  0.26058  1.0000
  C   C142      1.0  0.08860  0.19284  0.35775  1.0000
  H   H141      1.0  0.01372  0.34617  0.44331  1.0000
  H   H142      1.0  0.30588  0.24876  0.26190  1.0000
  N   N12       1.0  0.25629  0.34509  0.36042  1.0000
  C   C143      1.0  0.23823  0.34227  0.37201  1.0000
  C   C144      1.0  0.28158  0.36633  0.36117  1.0000
  C   C145      1.0  0.24559  0.36053  0.38509  1.0000
  C   C146      1.0  0.28954  0.38506  0.37401  1.0000
  C   C147      1.0  0.27145  0.38199  0.38608  1.0000
  C   C148      1.0  0.24814  0.32553  0.34694  1.0000
  H   H143      1.0  0.21816  0.32550  0.37134  1.0000
  H   H144      1.0  0.29602  0.36843  0.35209  1.0000
  H   H145      1.0  0.23162  0.35782  0.39459  1.0000
  H   H146      1.0  0.30990  0.40130  0.37495  1.0000
  H   H147      1.0  0.27773  0.39576  0.39646  1.0000
  H   H148      1.0  0.23552  0.30480  0.35120  1.0000
  H   H149      1.0  0.23639  0.33011  0.33771  1.0000
  H   H150      1.0  0.26577  0.32543  0.34116  1.0000
  H   H151      1.0  0.10897  0.19806  0.35343  1.0000
  C   C149      1.0  0.26799  0.19598  0.37040  1.0000
  C   C150      1.0  0.30339  0.19697  0.35309  1.0000
  Fe  Fe33      1.0  0.01110  0.26191  0.30795  1.0000
  H   H152      1.0  0.01717  0.31974  0.26032  1.0000
  C   C151      1.0  0.00467  0.31086  0.42889  1.0000
  C   C152      1.0  0.23187  0.47425  0.48078  1.0000
  C   C153      1.0  0.20660  0.42853  0.48936  1.0000
  C   C154      1.0  0.06467  0.26270  0.27445  1.0000
  C   C155      1.0  0.18862  0.13515  0.30736  1.0000
  C   C156      1.0  0.38088  0.36072  0.49211  1.0000
  H   H153      1.0  0.41676  0.02035  0.49273  1.0000
  H   H154      1.0  0.22903  0.40661  0.49202  1.0000
  C   C157      1.0  0.06343  0.23732  0.27393  1.0000
  H   H155      1.0  0.09444  0.48467  0.41513  1.0000
  H   H156      1.0  0.23260  0.49291  0.47684  1.0000
  C   C158      1.0  0.25496  0.47085  0.48067  1.0000
  H   H157      1.0  0.17168  0.09494  0.31620  1.0000
  H   H158      1.0  0.23706  0.19733  0.38476  1.0000
  C   C159      1.0  0.26164  0.01976  0.26352  1.0000
  C   C160      1.0  0.39676  0.00973  0.49737  1.0000
  H   H159      1.0  0.31988  0.00848  0.49139  1.0000
  H   H160      1.0  0.24063  0.16200  0.28185  1.0000
  C   C161      1.0  0.18658  0.10943  0.30844  1.0000
  C   C162      1.0  0.27157  0.23637  0.38317  1.0000
  N   N13       1.0  0.25382  0.44683  0.48482  1.0000
  C   C163      1.0  0.36774  0.39585  0.49660  1.0000
  H   H161      1.0  0.20997  0.17409  0.29672  1.0000
  C   C164      1.0  0.06393  0.27504  0.26001  1.0000
  H   H162      1.0  0.00991  0.30106  0.43849  1.0000
  H   H163      1.0  0.27448  0.02657  0.27424  1.0000
  S   S60       1.0  0.01937  0.29056  0.28743  1.0000
  N   N14       1.0  0.08597  0.21693  0.36190  1.0000
  C   C165      1.0  0.10831  0.24105  0.36475  1.0000
  C   C166      1.0  0.06095  0.21483  0.36344  1.0000
  C   C167      1.0  0.10586  0.26406  0.36883  1.0000
  C   C168      1.0  0.05783  0.23728  0.36788  1.0000
  C   C169      1.0  0.08040  0.26210  0.37039  1.0000
  H   H164      1.0  0.27348  0.48711  0.47651  1.0000
  H   H165      1.0  0.12818  0.24284  0.36335  1.0000
  H   H166      1.0  0.05111  0.30386  0.39921  1.0000
  H   H167      1.0  0.12356  0.28333  0.37057  1.0000
  H   H168      1.0  0.03800  0.23552  0.36924  1.0000
  H   H169      1.0  0.07803  0.27973  0.37345  1.0000
  H   H170      1.0  0.00823  0.38280  0.43496  1.0000
  H   H171      1.0  0.25648  0.17452  0.36806  1.0000
  H   H172      1.0  0.01856  0.39070  0.41447  1.0000
  H   H173      1.0  0.06581  0.27267  0.28597  1.0000
  C   C170      1.0  0.25697  0.20878  0.38002  1.0000
  C   C171      1.0  0.20754  0.45286  0.48506  1.0000
  S   S61       1.0  0.40557  0.49008  0.42403  1.0000
  H   H174      1.0  0.38201  0.34597  0.48409  1.0000
  C   C172      1.0  0.01013  0.29912  0.25627  1.0000
  S   S62       1.0  0.02244  0.27648  0.37017  1.0000
  H   H175      1.0  0.48223  0.36036  0.49369  1.0000
  S   S63       1.0  0.20420  0.01672  0.31103  1.0000
  C   C173      1.0  0.27779  0.44294  0.48407  1.0000
  C   C174      1.0  0.00283  0.37586  0.42217  1.0000
  H   H176      1.0  0.18750  0.41148  0.49199  1.0000
  H   H177      1.0  0.09912  0.48396  0.39359  1.0000
  H   H178      1.0  0.12713  0.49430  0.40747  1.0000
  N   N15       1.0  0.00074  0.34915  0.41938  1.0000
  C   C175      1.0  0.00689  0.33647  0.43152  1.0000
  H   H179      1.0  0.05168  0.40286  0.49991  1.0000
  C   C176      1.0  0.00020  0.25331  0.26179  1.0000
  H   H180      1.0  0.99964  0.23839  0.27010  1.0000
  H   H181      1.0  0.36152  0.00222  0.42815  1.0000
  Fe  Fe34      1.0  0.46904  0.10948  0.56491  1.0000
  S   S64       1.0  0.44954  0.11548  0.54242  1.0000
  Fe  Fe35      1.0  0.41386  0.08099  0.58104  1.0000
  S   S65       1.0  0.39157  0.08396  0.55900  1.0000
  S   S66       1.0  0.39546  0.06545  0.60566  1.0000
  Fe  Fe36      1.0  0.41858  0.07227  0.54476  1.0000
  S   S67       1.0  0.41566  0.04887  0.52127  1.0000
  Fe  Fe37      1.0  0.42459  0.12697  0.55846  1.0000
  S   S68       1.0  0.40982  0.15820  0.55354  1.0000
  S   S69       1.0  0.43868  0.06604  0.56694  1.0000
  S   S70       1.0  0.44616  0.12432  0.58091  1.0000
  Fe  Fe38      1.0  0.41707  0.34128  0.54106  1.0000
  S   S71       1.0  0.41730  0.36973  0.56010  1.0000
  S   S72       1.0  0.40299  0.34153  0.51513  1.0000
  Fe  Fe39      1.0  0.43930  0.31434  0.56468  1.0000
  S   S73       1.0  0.44121  0.34209  0.58541  1.0000
  S   S74       1.0  0.45572  0.28448  0.56928  1.0000
  Fe  Fe40      1.0  0.40012  0.33400  0.57633  1.0000
  S   S75       1.0  0.36137  0.32725  0.58850  1.0000
  Fe  Fe41      1.0  0.45845  0.37538  0.56725  1.0000
  S   S76       1.0  0.39746  0.30486  0.55662  1.0000
  S   S77       1.0  0.45899  0.34838  0.54721  1.0000
  H   H182      1.0  0.38912  0.19529  0.54713  1.0000
  Fe  Fe42      1.0  0.24028  0.04510  0.67764  1.0000
  S   S78       1.0  0.24676  0.08590  0.68635  1.0000
  S   S79       1.0  0.27598  0.03737  0.67778  1.0000
  Fe  Fe43      1.0  0.20885  0.24693  0.66761  1.0000
  S   S80       1.0  0.24566  0.26891  0.68385  1.0000
  S   S81       1.0  0.18015  0.26487  0.66452  1.0000
  Fe  Fe44      1.0  0.22211  0.20093  0.66089  1.0000
  S   S82       1.0  0.25911  0.21953  0.67660  1.0000
  S   S83       1.0  0.20972  0.16058  0.64853  1.0000
  Fe  Fe45      1.0  0.23429  0.22825  0.69425  1.0000
  S   S84       1.0  0.22516  0.21050  0.71934  1.0000
  Fe  Fe46      1.0  0.26730  0.25810  0.66447  1.0000
  S   S85       1.0  0.31103  0.28035  0.65669  1.0000
  S   S86       1.0  0.19651  0.20723  0.67903  1.0000
  S   S87       1.0  0.23128  0.23885  0.64766  1.0000
  H   H183      1.0  0.41111  0.34940  0.63565  1.0000
  H   H184      1.0  0.08010  0.29183  0.72186  1.0000
  H   H185      1.0  0.37616  0.41328  0.52065  1.0000
  C   C177      1.0  0.49417  0.09308  0.52096  1.0000
  Fe  Fe47      1.0  0.02437  0.21839  0.66882  1.0000
  S   S88       1.0  0.05256  0.19972  0.66692  1.0000
  S   S89       1.0  0.03715  0.26255  0.67088  1.0000
  H   H186      1.0  0.46056  0.05238  0.53866  1.0000
  H   H187      1.0  0.34587  0.29726  0.50961  1.0000
  C   C178      1.0  0.11273  0.26435  0.70462  1.0000
  C   C179      1.0  0.14464  0.24625  0.66439  1.0000
  C   C180      1.0  0.12929  0.26008  0.66357  1.0000
  C   C181      1.0  0.10107  0.24613  0.66403  1.0000
  C   C182      1.0  0.08788  0.21813  0.66523  1.0000
  C   C183      1.0  0.10322  0.20427  0.66584  1.0000
  C   C184      1.0  0.13144  0.21823  0.66551  1.0000
  H   H188      1.0  0.13931  0.28173  0.66262  1.0000
  H   H189      1.0  0.08955  0.25704  0.66349  1.0000
  H   H190      1.0  0.09320  0.18261  0.66670  1.0000
  H   H191      1.0  0.14296  0.20732  0.66604  1.0000
  C   C185      1.0  0.24208  0.22466  0.73790  1.0000
  C   C186      1.0  0.41753  0.39288  0.60590  1.0000
  C   C187      1.0  0.39046  0.01919  0.51165  1.0000
  N   N16       1.0  0.02556  0.34911  0.60860  1.0000
  N   N17       1.0  0.46038  0.39649  0.61370  1.0000
  C   C188      1.0  0.23638  0.10586  0.67517  1.0000
  C   C189      1.0  0.24219  0.13113  0.68163  1.0000
  C   C190      1.0  0.23329  0.14745  0.67372  1.0000
  C   C191      1.0  0.21934  0.13918  0.65896  1.0000
  C   C192      1.0  0.21349  0.11384  0.65237  1.0000
  C   C193      1.0  0.22187  0.09707  0.66053  1.0000
  H   H192      1.0  0.25316  0.13791  0.69304  1.0000
  H   H193      1.0  0.23693  0.16621  0.67929  1.0000
  H   H194      1.0  0.20253  0.10720  0.64096  1.0000
  H   H195      1.0  0.21717  0.07745  0.65552  1.0000
  H   H196      1.0  0.45723  0.34439  0.50888  1.0000
  N   N18       1.0  0.36885  0.11670  0.60354  1.0000
  H   H197      1.0  0.04793  0.24200  0.71328  1.0000
  H   H198      1.0  0.07604  0.29232  0.70029  1.0000
  S   S90       1.0  0.27470  0.01494  0.63018  1.0000
  C   C194      1.0  0.34672  0.31117  0.60679  1.0000
  C   C195      1.0  0.32054  0.30648  0.61019  1.0000
  C   C196      1.0  0.30887  0.29596  0.62510  1.0000
  C   C197      1.0  0.32356  0.29065  0.63701  1.0000
  C   C198      1.0  0.34959  0.29490  0.63352  1.0000
  C   C199      1.0  0.36097  0.30469  0.61842  1.0000
  H   H199      1.0  0.30930  0.31145  0.60133  1.0000
  H   H200      1.0  0.28891  0.29299  0.62761  1.0000
  H   H201      1.0  0.36113  0.29081  0.64263  1.0000
  H   H202      1.0  0.38100  0.30789  0.61595  1.0000
  C   C200      1.0  0.39016  0.36319  0.50822  1.0000
  C   C201      1.0  0.38940  0.12163  0.61429  1.0000
  C   C202      1.0  0.38882  0.38255  0.51839  1.0000
  N   N19       1.0  0.08950  0.26496  0.70848  1.0000
  H   H203      1.0  0.39598  0.38482  0.53077  1.0000
  C   C203      1.0  0.36159  0.05053  0.61204  1.0000
  C   C204      1.0  0.33999  0.04475  0.60136  1.0000
  H   H204      1.0  0.21159  0.15334  0.72216  1.0000
  C   C205      1.0  0.30844  0.02862  0.62365  1.0000
  C   C206      1.0  0.33003  0.03442  0.63433  1.0000
  C   C207      1.0  0.35635  0.04502  0.62852  1.0000
  H   H205      1.0  0.34359  0.04862  0.58864  1.0000
  C   C208      1.0  0.04246  0.33605  0.61156  1.0000
  H   H206      1.0  0.32644  0.03040  0.64703  1.0000
  H   H207      1.0  0.37284  0.04921  0.63689  1.0000
  S   S91       1.0  0.02291  0.27467  0.71573  1.0000
  C   C209      1.0  0.31204  0.19496  0.66258  1.0000
  C   C210      1.0  0.06615  0.21670  0.70848  1.0000
  C   C211      1.0  0.42305  0.19331  0.55818  1.0000
  C   C212      1.0  0.44766  0.20823  0.56636  1.0000
  C   C213      1.0  0.45722  0.23599  0.56965  1.0000
  C   C214      1.0  0.44237  0.24927  0.56489  1.0000
  C   C215      1.0  0.41767  0.23429  0.55681  1.0000
  C   C216      1.0  0.40814  0.20655  0.55349  1.0000
  H   H208      1.0  0.45944  0.19848  0.57004  1.0000
  H   H209      1.0  0.47635  0.24730  0.57589  1.0000
  H   H210      1.0  0.40599  0.24409  0.55304  1.0000
  C   C217      1.0  0.38417  0.11448  0.63045  1.0000
  H   H211      1.0  0.40991  0.13024  0.61030  1.0000
  H   H212      1.0  0.40042  0.11730  0.63874  1.0000
  H   H213      1.0  0.35333  0.09582  0.64793  1.0000
  S   S92       1.0  0.22263  0.02255  0.65441  1.0000
  H   H214      1.0  0.06327  0.34922  0.60782  1.0000
  H   H215      1.0  0.13087  0.28278  0.70249  1.0000
  H   H216      1.0  0.47253  0.08363  0.51743  1.0000
  Fe  Fe48      1.0  0.25699  0.01234  0.65524  1.0000
  H   H217      1.0  0.27243  0.13351  0.64544  1.0000
  N   N20       1.0  0.17340  0.12205  0.68897  1.0000
  C   C218      1.0  0.18602  0.14141  0.70076  1.0000
  C   C219      1.0  0.17447  0.09822  0.68947  1.0000
  C   C220      1.0  0.20094  0.13751  0.71316  1.0000
  C   C221      1.0  0.18908  0.09359  0.70176  1.0000
  C   C222      1.0  0.20254  0.11348  0.71360  1.0000
  C   C223      1.0  0.15792  0.12645  0.67601  1.0000
  H   H218      1.0  0.18514  0.16028  0.70047  1.0000
  H   H219      1.0  0.16474  0.08298  0.68005  1.0000
  H   H220      1.0  0.04300  0.33126  0.62452  1.0000
  H   H221      1.0  0.19096  0.07520  0.70168  1.0000
  H   H222      1.0  0.21469  0.11047  0.72284  1.0000
  H   H223      1.0  0.13676  0.11886  0.67953  1.0000
  H   H224      1.0  0.16648  0.14814  0.67323  1.0000
  H   H225      1.0  0.15865  0.11627  0.66456  1.0000
  H   H226      1.0  0.36018  0.10846  0.57833  1.0000
  C   C224      1.0  0.08978  0.21588  0.70470  1.0000
  C   C225      1.0  0.01225  0.25751  0.73417  1.0000
  C   C226      1.0  0.30416  0.21020  0.65268  1.0000
  H   H227      1.0  0.31629  0.08723  0.62830  1.0000
  N   N21       1.0  0.47781  0.38691  0.51056  1.0000
  H   H228      1.0  0.37349  0.14348  0.58451  1.0000
  C   C227      1.0  0.27395  0.17090  0.63796  1.0000
  H   H229      1.0  0.24020  0.04679  0.74836  1.0000
  C   C228      1.0  0.49847  0.43302  0.53013  1.0000
  C   C229      1.0  0.35777  0.10246  0.63559  1.0000
  C   C230      1.0  0.28172  0.15512  0.64743  1.0000
  H   H230      1.0  0.44479  0.39476  0.50583  1.0000
  C   C231      1.0  0.37454  0.12451  0.58668  1.0000
  C   C232      1.0  0.34292  0.10507  0.60849  1.0000
  H   H231      1.0  0.31320  0.23176  0.65479  1.0000
  H   H232      1.0  0.32663  0.10070  0.59989  1.0000
  H   H233      1.0  0.32670  0.20464  0.67230  1.0000
  C   C233      1.0  0.40523  0.37327  0.61742  1.0000
  H   H234      1.0  0.27489  0.25938  0.72801  1.0000
  C   C234      1.0  0.42067  0.36504  0.62689  1.0000
  H   H235      1.0  0.03580  0.39559  0.52812  1.0000
  C   C235      1.0  0.02139  0.38752  0.51818  1.0000
  C   C236      1.0  0.33696  0.09767  0.62457  1.0000
  H   H236      1.0  0.08958  0.19672  0.70252  1.0000
  C   C237      1.0  0.26585  0.24892  0.73891  1.0000
  C   C238      1.0  0.48699  0.03886  0.54932  1.0000
  C   C239      1.0  0.31361  0.03367  0.60712  1.0000
  H   H237      1.0  0.01877  0.35272  0.63359  1.0000
  H   H238      1.0  0.39488  0.12789  0.58343  1.0000
  C   C240      1.0  0.37760  0.39872  0.51261  1.0000
  C   C241      1.0  0.24625  0.03112  0.74830  1.0000
  H   H239      1.0  0.38366  0.36409  0.61878  1.0000
  H   H240      1.0  0.03427  0.31654  0.60479  1.0000
  H   H241      1.0  0.46016  0.36983  0.63190  1.0000
  H   H242      1.0  0.24706  0.02915  0.72232  1.0000
  C   C242      1.0  0.30057  0.16721  0.65997  1.0000
  H   H243      1.0  0.40553  0.39881  0.59818  1.0000
  C   C243      1.0  0.44530  0.40442  0.60423  1.0000
  N   N22       1.0  0.28486  0.19801  0.64083  1.0000
  H   H244      1.0  0.35541  0.29200  0.52925  1.0000
  C   C244      1.0  0.24995  0.02100  0.73348  1.0000
  H   H245      1.0  0.18738  0.23488  0.74471  1.0000
  C   C245      1.0  0.48932  0.40794  0.61133  1.0000
  H   H246      1.0  0.32038  0.27466  0.52298  1.0000
  C   C246      1.0  0.27650  0.21412  0.63067  1.0000
  H   H247      1.0  0.33914  0.34915  0.56382  1.0000
  H   H248      1.0  0.31586  0.36173  0.51619  1.0000
  H   H249      1.0  0.25846  0.16120  0.62865  1.0000
  C   C247      1.0  0.48094  0.05529  0.53931  1.0000
  C   C248      1.0  0.46388  0.40126  0.51213  1.0000
  H   H250      1.0  0.28006  0.23309  0.63698  1.0000
  H   H251      1.0  0.28790  0.21933  0.61935  1.0000
  H   H252      1.0  0.25463  0.20302  0.62774  1.0000
  N   N23       1.0  0.33531  0.31614  0.52867  1.0000
  C   C249      1.0  0.32632  0.32947  0.51854  1.0000
  C   C250      1.0  0.33948  0.32277  0.54479  1.0000
  C   C251      1.0  0.32198  0.35054  0.52441  1.0000
  C   C252      1.0  0.33543  0.34379  0.55106  1.0000
  C   C253      1.0  0.32676  0.35782  0.54076  1.0000
  C   C254      1.0  0.33926  0.29380  0.52233  1.0000
  C   C255      1.0  0.36453  0.00522  0.51751  1.0000
  H   H253      1.0  0.34616  0.31195  0.55292  1.0000
  S   S93       1.0  0.48895  0.42005  0.57110  1.0000
  C   C256      1.0  0.02019  0.35342  0.59304  1.0000
  H   H254      1.0  0.13156  0.23940  0.69934  1.0000
  H   H255      1.0  0.45467  0.41961  0.59520  1.0000
  C   C257      1.0  0.08884  0.29065  0.71012  1.0000
  H   H256      1.0  0.30597  0.15498  0.66777  1.0000
  H   H257      1.0  0.10909  0.30816  0.70957  1.0000
  C   C258      1.0  0.00380  0.36548  0.58982  1.0000
  C   C259      1.0  0.11330  0.23983  0.70288  1.0000
  C   C260      1.0  0.06642  0.24156  0.71044  1.0000
  H   H258      1.0  0.02816  0.34707  0.58299  1.0000
  Fe  Fe49      1.0  0.00915  0.25135  0.69184  1.0000
  C   C261      1.0  0.01521  0.35683  0.62126  1.0000
  H   H259      1.0  0.03807  0.29213  0.74894  1.0000
  Fe  Fe50      1.0  0.00061  0.25356  0.65510  1.0000
  C   C262      1.0  0.44837  0.37675  0.62475  1.0000
  C   C263      1.0  0.02329  0.27117  0.74893  1.0000
  H   H260      1.0  0.23187  0.27462  0.74215  1.0000
  H   H261      1.0  0.04754  0.19821  0.70936  1.0000
  H   H262      1.0  0.35939  0.01220  0.52848  1.0000
  H   H263      1.0  0.32395  0.37445  0.54540  1.0000
  H   H264      1.0  0.49329  0.39549  0.60231  1.0000
  C   C264      1.0  0.47390  0.42443  0.52199  1.0000
  H   H265      1.0  0.49776  0.42876  0.60673  1.0000
  H   H266      1.0  0.46254  0.43545  0.52341  1.0000
  C   C265      1.0  0.46650  0.36193  0.50083  1.0000
  H   H267      1.0  0.29708  0.02904  0.59870  1.0000
  H   H268      1.0  0.47144  0.02368  0.55643  1.0000
  C   C266      1.0  0.03048  0.39170  0.50218  1.0000
  S   S94       1.0  0.21512  0.00991  0.69277  1.0000
  H   H269      1.0  0.32321  0.32441  0.50573  1.0000
  S   S95       1.0  0.00118  0.27595  0.63209  1.0000
  H   H270      1.0  0.49908  0.11173  0.52811  1.0000
  Fe  Fe51      1.0  0.41885  0.33304  0.95967  1.0000
  S   S96       1.0  0.43114  0.36929  0.94436  1.0000
  S   S97       1.0  0.39795  0.32756  0.98359  1.0000
  Fe  Fe52      1.0  0.44098  0.30544  0.93641  1.0000
  S   S98       1.0  0.45579  0.34081  0.91968  1.0000
  S   S99       1.0  0.44324  0.26825  0.92641  1.0000
  Fe  Fe53      1.0  0.47037  0.36802  0.94189  1.0000
  Fe  Fe54      1.0  0.41557  0.33923  0.92350  1.0000
  S   S100      1.0  0.39077  0.34286  0.90253  1.0000
  S   S101      1.0  0.45849  0.33256  0.95838  1.0000
  S   S102      1.0  0.40026  0.30309  0.93905  1.0000
  Fe  Fe55      1.0  0.42763  0.06957  0.96221  1.0000
  S   S103      1.0  0.42722  0.05232  0.93761  1.0000
  S   S104      1.0  0.42817  0.04752  0.98507  1.0000
  Fe  Fe56      1.0  0.43978  0.12515  0.94833  1.0000
  S   S105      1.0  0.44108  0.11150  0.92277  1.0000
  S   S106      1.0  0.44342  0.16490  0.95861  1.0000
  Fe  Fe57      1.0  0.40397  0.07355  0.92900  1.0000
  S   S107      1.0  0.36234  0.05461  0.91653  1.0000
  Fe  Fe58      1.0  0.46457  0.09137  0.93360  1.0000
  S   S108      1.0  0.40185  0.08812  0.95421  1.0000
  S   S109      1.0  0.46576  0.10775  0.95856  1.0000
  Fe  Fe59      1.0  0.23404  0.03247  0.84012  1.0000
  S   S110      1.0  0.27068  0.04647  0.82532  1.0000
  S   S111      1.0  0.23379  0.06586  0.85538  1.0000
  H   H271      1.0  0.18977  0.25256  0.79542  1.0000
  Fe  Fe60      1.0  0.21235  0.23969  0.83102  1.0000
  S   S112      1.0  0.25677  0.26844  0.83136  1.0000
  S   S113      1.0  0.18427  0.25863  0.82863  1.0000
  Fe  Fe61      1.0  0.22264  0.19093  0.82643  1.0000
  S   S114      1.0  0.26723  0.21612  0.82619  1.0000
  S   S115      1.0  0.20386  0.14711  0.81873  1.0000
  Fe  Fe62      1.0  0.26165  0.23868  0.84728  1.0000
  S   S116      1.0  0.28698  0.24472  0.87044  1.0000
  Fe  Fe63      1.0  0.25842  0.24340  0.81038  1.0000
  S   S117      1.0  0.28039  0.26171  0.78739  1.0000
  S   S118      1.0  0.21683  0.21136  0.84844  1.0000
  S   S119      1.0  0.21429  0.21680  0.80920  1.0000
  C   C267      1.0  0.25265  0.17074  0.78706  1.0000
  C   C268      1.0  0.39257  0.39636  0.99219  1.0000
  H   H272      1.0  0.36260  0.33202  0.93347  1.0000
  C   C269      1.0  0.25001  0.02094  0.76297  1.0000
  Fe  Fe64      1.0  0.02905  0.22115  0.83692  1.0000
  S   S120      1.0  0.06123  0.21061  0.84620  1.0000
  S   S121      1.0  0.03369  0.25641  0.82215  1.0000
  H   H273      1.0  0.29055  0.01851  0.87504  1.0000
  H   H274      1.0  0.24116  0.31675  0.79489  1.0000
  C   C270      1.0  0.47018  0.39185  0.98761  1.0000
  C   C271      1.0  0.14936  0.24313  0.83219  1.0000
  C   C272      1.0  0.13695  0.22038  0.84167  1.0000
  C   C273      1.0  0.10966  0.21011  0.84535  1.0000
  C   C274      1.0  0.09437  0.22215  0.83938  1.0000
  C   C275      1.0  0.10654  0.24433  0.82941  1.0000
  C   C276      1.0  0.13398  0.25496  0.82602  1.0000
  H   H275      1.0  0.14853  0.21112  0.84655  1.0000
  H   H276      1.0  0.10044  0.19295  0.85308  1.0000
  H   H277      1.0  0.09500  0.25374  0.82471  1.0000
  H   H278      1.0  0.14340  0.27256  0.81866  1.0000
  H   H279      1.0  0.21234  0.19242  0.75146  1.0000
  C   C277      1.0  0.26601  0.24663  0.76841  1.0000
  C   C278      1.0  0.26373  0.14486  0.80676  1.0000
  C   C279      1.0  0.35295  0.36199  0.94340  1.0000
  C   C280      1.0  0.37423  0.01366  0.99025  1.0000
  C   C281      1.0  0.22490  0.08816  0.84534  1.0000
  C   C282      1.0  0.23303  0.11400  0.85193  1.0000
  C   C283      1.0  0.22662  0.13230  0.84393  1.0000
  C   C284      1.0  0.21151  0.12456  0.82948  1.0000
  C   C285      1.0  0.20315  0.09863  0.82299  1.0000
  C   C286      1.0  0.21008  0.08057  0.83079  1.0000
  H   H280      1.0  0.24440  0.11994  0.86322  1.0000
  H   H281      1.0  0.23308  0.15225  0.84903  1.0000
  H   H282      1.0  0.19150  0.09257  0.81180  1.0000
  H   H283      1.0  0.20362  0.06066  0.82566  1.0000
  C   C287      1.0  0.35008  0.04353  0.89651  1.0000
  C   C288      1.0  0.36693  0.04579  0.88378  1.0000
  H   H284      1.0  0.34890  0.30399  0.95798  1.0000
  C   C289      1.0  0.32867  0.02870  0.86460  1.0000
  C   C290      1.0  0.31181  0.02610  0.87737  1.0000
  C   C291      1.0  0.32244  0.03327  0.89323  1.0000
  H   H285      1.0  0.38822  0.05355  0.88613  1.0000
  S   S122      1.0  0.00233  0.22591  0.85529  1.0000
  H   H286      1.0  0.30922  0.03135  0.90300  1.0000
  H   H287      1.0  0.02359  0.26866  0.77503  1.0000
  C   C292      1.0  0.39184  0.35282  0.99261  1.0000
  C   C293      1.0  0.34690  0.32228  0.95740  1.0000
  C   C294      1.0  0.41495  0.31206  0.87507  1.0000
  N   N24       1.0  0.39649  0.28511  0.88052  1.0000
  H   H288      1.0  0.03889  0.39635  0.98877  1.0000
  S   S123      1.0  0.24311  0.03321  0.78112  1.0000
  S   S124      1.0  0.20591  0.00569  0.82045  1.0000
  C   C295      1.0  0.36084  0.31601  0.89423  1.0000
  C   C296      1.0  0.34734  0.29155  0.90206  1.0000
  C   C297      1.0  0.32413  0.27045  0.89487  1.0000
  C   C298      1.0  0.31437  0.27325  0.87963  1.0000
  C   C299      1.0  0.32765  0.29785  0.87189  1.0000
  C   C300      1.0  0.35064  0.31915  0.87922  1.0000
  H   H289      1.0  0.35482  0.28875  0.91360  1.0000
  H   H290      1.0  0.31398  0.25153  0.90098  1.0000
  H   H291      1.0  0.32036  0.30036  0.86019  1.0000
  H   H292      1.0  0.36080  0.33805  0.87310  1.0000
  C   C301      1.0  0.44263  0.23943  0.93570  1.0000
  C   C302      1.0  0.44281  0.23677  0.95247  1.0000
  C   C303      1.0  0.44293  0.21382  0.95920  1.0000
  C   C304      1.0  0.44265  0.19309  0.94932  1.0000
  C   C305      1.0  0.44209  0.19557  0.93254  1.0000
  C   C306      1.0  0.44218  0.21862  0.92581  1.0000
  H   H293      1.0  0.44322  0.25254  0.96026  1.0000
  N   N25       1.0  0.46968  0.41596  0.98780  1.0000
  H   H294      1.0  0.44205  0.17996  0.92476  1.0000
  H   H295      1.0  0.44219  0.22047  0.91284  1.0000
  H   H296      1.0  0.47175  0.42309  0.96262  1.0000
  H   H297      1.0  0.42876  0.31081  0.86611  1.0000
  H   H298      1.0  0.45458  0.00400  0.92290  1.0000
  H   H299      1.0  0.24027  0.12717  0.76864  1.0000
  N   N26       1.0  0.09484  0.27018  0.86828  1.0000
  C   C307      1.0  0.10821  0.28806  0.85651  1.0000
  C   C308      1.0  0.07092  0.26760  0.87358  1.0000
  C   C309      1.0  0.09739  0.30356  0.84952  1.0000
  C   C310      1.0  0.05983  0.28322  0.86709  1.0000
  C   C311      1.0  0.07307  0.30115  0.85491  1.0000
  C   C312      1.0  0.10654  0.25439  0.87579  1.0000
  H   H300      1.0  0.12714  0.29006  0.85226  1.0000
  H   H301      1.0  0.06015  0.25319  0.88276  1.0000
  H   H302      1.0  0.10770  0.31724  0.83992  1.0000
  H   H303      1.0  0.04086  0.28121  0.87129  1.0000
  H   H304      1.0  0.06428  0.31292  0.84958  1.0000
  H   H305      1.0  0.11446  0.26248  0.88810  1.0000
  H   H306      1.0  0.09114  0.23296  0.87653  1.0000
  H   H307      1.0  0.12306  0.25454  0.86857  1.0000
  C   C313      1.0  0.45723  0.00809  0.93581  1.0000
  H   H308      1.0  0.36982  0.02254  0.97985  1.0000
  C   C314      1.0  0.37328  0.26976  0.87187  1.0000
  C   C315      1.0  0.38571  0.24933  0.89920  1.0000
  C   C316      1.0  0.35551  0.24391  0.87683  1.0000
  C   C317      1.0  0.36171  0.23377  0.89067  1.0000
  H   H309      1.0  0.46683  0.02600  0.98133  1.0000
  C   C318      1.0  0.22234  0.26993  0.75377  1.0000
  H   H310      1.0  0.36790  0.27778  0.86139  1.0000
  Fe  Fe65      1.0  0.00451  0.25912  0.83979  1.0000
  H   H311      1.0  0.33653  0.23232  0.87034  1.0000
  H   H312      1.0  0.34779  0.21404  0.89487  1.0000
  C   C319      1.0  0.24771  0.12594  0.78058  1.0000
  H   H313      1.0  0.23323  0.21181  0.77813  1.0000
  N   N27       1.0  0.34457  0.09773  0.88432  1.0000
  C   C320      1.0  0.33053  0.09124  0.86990  1.0000
  C   C321      1.0  0.33160  0.09501  0.89853  1.0000
  C   C322      1.0  0.30271  0.08147  0.86948  1.0000
  C   C323      1.0  0.30377  0.08523  0.89853  1.0000
  C   C324      1.0  0.28929  0.07847  0.88390  1.0000
  C   C325      1.0  0.37383  0.10889  0.88453  1.0000
  H   H314      1.0  0.34070  0.09309  0.85863  1.0000
  H   H315      1.0  0.34269  0.09979  0.90997  1.0000
  H   H316      1.0  0.29149  0.07602  0.85808  1.0000
  H   H317      1.0  0.29348  0.08270  0.90982  1.0000
  H   H318      1.0  0.26768  0.07080  0.88367  1.0000
  H   H319      1.0  0.38119  0.10351  0.89577  1.0000
  H   H320      1.0  0.38045  0.10063  0.87429  1.0000
  H   H321      1.0  0.38338  0.13112  0.88381  1.0000
  H   H322      1.0  0.40646  0.38015  0.97293  1.0000
  H   H323      1.0  0.25884  0.08230  0.80358  1.0000
  H   H324      1.0  0.40374  0.32199  0.86962  1.0000
  C   C326      1.0  0.23827  0.29599  0.79640  1.0000
  C   C327      1.0  0.34303  0.36967  0.95679  1.0000
  Fe  Fe66      1.0  0.27463  0.01192  0.83586  1.0000
  H   H325      1.0  0.16618  0.22392  0.77167  1.0000
  C   C328      1.0  0.02823  0.33134  0.99755  1.0000
  C   C329      1.0  0.35486  0.33813  0.94375  1.0000
  C   C330      1.0  0.24920  0.10258  0.78472  1.0000
  C   C331      1.0  0.23071  0.21119  0.75213  1.0000
  H   H326      1.0  0.39089  0.24170  0.90996  1.0000
  C   C332      1.0  0.19730  0.24760  0.75522  1.0000
  Fe  Fe67      1.0  0.24335  0.01748  0.80627  1.0000
  C   C333      1.0  0.25819  0.10058  0.80017  1.0000
  N   N28       1.0  0.25525  0.14683  0.79149  1.0000
  C   C334      1.0  0.27784  0.25979  0.75414  1.0000
  C   C335      1.0  0.33696  0.33047  0.97054  1.0000
  C   C336      1.0  0.43927  0.00170  0.96254  1.0000
  H   H327      1.0  0.22722  0.28818  0.80770  1.0000
  C   C337      1.0  0.40305  0.27504  0.89386  1.0000
  C   C338      1.0  0.35622  0.03830  0.86792  1.0000
  S   S125      1.0  0.00629  0.29722  0.85096  1.0000
  C   C339      1.0  0.38937  0.09995  0.99850  1.0000
  H   H328      1.0  0.42167  0.28697  0.90056  1.0000
  H   H329      1.0  0.26699  0.18881  0.79415  1.0000
  H   H330      1.0  0.23201  0.16741  0.78947  1.0000
  C   C340      1.0  0.39788  0.37677  0.98476  1.0000
  H   H331      1.0  0.26826  0.16076  0.81570  1.0000
  H   H332      1.0  0.25689  0.17540  0.77411  1.0000
  H   H333      1.0  0.47690  0.45163  0.97496  1.0000
  H   H334      1.0  0.34159  0.38825  0.95645  1.0000
  H   H335      1.0  0.40598  0.13525  0.98366  1.0000
  H   H336      1.0  0.27158  0.12001  0.82352  1.0000
  H   H337      1.0  0.36940  0.04009  0.85814  1.0000
  C   C341      1.0  0.01512  0.25792  0.76374  1.0000
  H   H338      1.0  0.42689  0.32530  0.88538  1.0000
  H   H339      1.0  0.47851  0.38610  0.97749  1.0000
  C   C342      1.0  0.24250  0.22219  0.76730  1.0000
  C   C343      1.0  0.18554  0.24136  0.77031  1.0000
  H   H340      1.0  0.44343  0.21222  0.97218  1.0000
  C   C344      1.0  0.26558  0.12184  0.81128  1.0000
  H   H341      1.0  0.24314  0.08589  0.77613  1.0000
  N   N29       1.0  0.48554  0.03277  0.95848  1.0000
  H   H342      1.0  0.35917  0.37440  0.93279  1.0000
  C   C345      1.0  0.48079  0.43401  0.97421  1.0000
  C   C346      1.0  0.48215  0.02687  0.94227  1.0000
  H   H343      1.0  0.39711  0.41477  0.98598  1.0000
  H   H344      1.0  0.33523  0.38431  0.98599  1.0000
  H   H345      1.0  0.03597  0.33965  0.97244  1.0000
  C   C347      1.0  0.46446  0.02063  0.96857  1.0000
  C   C348      1.0  0.02064  0.32958  0.98123  1.0000
  H   H346      1.0  0.36890  0.09627  0.99636  1.0000
  C   C349      1.0  0.19910  0.25760  0.78376  1.0000
  N   N30       1.0  0.33539  0.35406  0.97017  1.0000
  H   H347      1.0  0.32660  0.35306  0.99528  1.0000
  H   H348      1.0  0.30279  0.35586  0.98157  1.0000
  H   H349      1.0  0.33125  0.31819  0.98120  1.0000
  C   C350      1.0  0.23557  0.28542  0.76753  1.0000
  H   H350      1.0  0.29613  0.27865  0.75489  1.0000
  C   C351      1.0  0.40085  0.02171  0.99498  1.0000
  N   N31       1.0  0.22391  0.27916  0.78227  1.0000
  H   H351      1.0  0.25814  0.29653  0.79797  1.0000
  C   C352      1.0  0.02193  0.38687  0.99656  1.0000
  S   S126      1.0  0.31593  0.01862  0.84458  1.0000
  H   H352      1.0  0.25554  0.30207  0.76645  1.0000
  C   C353      1.0  0.32437  0.36214  0.98387  1.0000
  C   C354      1.0  0.43655  0.12666  0.99373  1.0000
  C   C355      1.0  0.41019  0.12205  0.99133  1.0000
  H   H353      1.0  0.45281  0.14338  0.98791  1.0000
  H   H354      1.0  0.00088  0.31358  0.95138  1.0000
  H   H355      1.0  0.49862  0.03706  0.93417  1.0000
  H   H356      1.0  0.45903  0.35449  0.99978  1.0000
  Fe  Fe68      1.0  0.02261  0.75836  0.16506  1.0000
  C   C356      1.0  0.24812  0.95762  0.22145  1.0000
  S   S127      1.0  0.04360  0.73446  0.15604  1.0000
  C   C357      1.0  0.00271  0.61012  0.00347  1.0000
  Fe  Fe69      1.0  0.02841  0.81517  0.16564  1.0000
  S   S128      1.0  0.05149  0.85692  0.15544  1.0000
  S   S129      1.0  0.04966  0.79616  0.17914  1.0000
  N   N32       1.0  0.08780  0.60368  0.01564  1.0000
  H   H357      1.0  0.18247  0.91211  0.22431  1.0000
  Fe  Fe70      1.0  0.19941  0.97054  0.17534  1.0000
  S   S130      1.0  0.17016  0.92855  0.18289  1.0000
  S   S131      1.0  0.24247  0.97918  0.17882  1.0000
  C   C358      1.0  0.37274  0.95266  0.10933  1.0000
  C   C359      1.0  0.02722  0.62864  0.01082  1.0000
  H   H358      1.0  0.03295  0.62468  0.02259  1.0000
  Fe  Fe71      1.0  0.07617  0.67852  0.07311  1.0000
  S   S132      1.0  0.10282  0.70824  0.05519  1.0000
  S   S133      1.0  0.04627  0.68976  0.08500  1.0000
  Fe  Fe72      1.0  0.09357  0.63546  0.06217  1.0000
  S   S134      1.0  0.12183  0.66351  0.04402  1.0000
  S   S135      1.0  0.07956  0.58982  0.06007  1.0000
  Fe  Fe73      1.0  0.13390  0.69617  0.06329  1.0000
  S   S136      1.0  0.17612  0.72734  0.07198  1.0000
  Fe  Fe74      1.0  0.08825  0.67312  0.03762  1.0000
  S   S137      1.0  0.07530  0.67588  0.01176  1.0000
  S   S138      1.0  0.10759  0.66737  0.08217  1.0000
  S   S139      1.0  0.05971  0.64430  0.05483  1.0000
  H   H359      1.0  0.05907  0.71532  0.02684  1.0000
  Fe  Fe75      1.0  0.36476  0.90756  0.06095  1.0000
  S   S140      1.0  0.34140  0.89737  0.03724  1.0000
  S   S141      1.0  0.40975  0.91944  0.06298  1.0000
  Fe  Fe76      1.0  0.32004  0.91397  0.07868  1.0000
  S   S142      1.0  0.29479  0.90520  0.05605  1.0000
  S   S143      1.0  0.30320  0.91527  0.10343  1.0000
  Fe  Fe77      1.0  0.30486  0.87143  0.05173  1.0000
  S   S144      1.0  0.26981  0.83262  0.04141  1.0000
  Fe  Fe78      1.0  0.33303  0.93173  0.04342  1.0000
  S   S145      1.0  0.33137  0.96042  0.02461  1.0000
  S   S146      1.0  0.32889  0.87897  0.07499  1.0000
  S   S147      1.0  0.35759  0.94324  0.06658  1.0000
  C   C360      1.0  0.46951  0.88449  0.06844  1.0000
  C   C361      1.0  0.44170  0.86747  0.06927  1.0000
  C   C362      1.0  0.42304  0.87758  0.06741  1.0000
  C   C363      1.0  0.43199  0.90498  0.06482  1.0000
  C   C364      1.0  0.45979  0.92200  0.06414  1.0000
  C   C365      1.0  0.47841  0.91186  0.06584  1.0000
  H   H360      1.0  0.43451  0.84626  0.07126  1.0000
  H   H361      1.0  0.40178  0.86415  0.06795  1.0000
  H   H362      1.0  0.46702  0.94320  0.06211  1.0000
  H   H363      1.0  0.43513  0.98889  0.09467  1.0000
  H   H364      1.0  0.37964  0.88472  0.11242  1.0000
  C   C366      1.0  0.22161  0.94044  0.21656  1.0000
  H   H365      1.0  0.01544  0.71351  0.09851  1.0000
  C   C367      1.0  0.39573  0.97502  0.10438  1.0000
  H   H366      1.0  0.08127  0.50432  0.10120  1.0000
  H   H367      1.0  0.03351  0.72550  0.02244  1.0000
  C   C368      1.0  0.21166  0.92622  0.24405  1.0000
  C   C369      1.0  0.24481  0.80264  0.04997  1.0000
  C   C370      1.0  0.22240  0.78532  0.04032  1.0000
  C   C371      1.0  0.20134  0.76204  0.04673  1.0000
  C   C372      1.0  0.20263  0.75554  0.06286  1.0000
  C   C373      1.0  0.22539  0.77246  0.07238  1.0000
  C   C374      1.0  0.24626  0.79595  0.06604  1.0000
  H   H368      1.0  0.22115  0.79015  0.02784  1.0000
  H   H369      1.0  0.18411  0.74920  0.03921  1.0000
  H   H370      1.0  0.22675  0.76750  0.08483  1.0000
  H   H371      1.0  0.26351  0.80875  0.07356  1.0000
  C   C375      1.0  0.09215  0.56657  0.06421  1.0000
  C   C376      1.0  0.07790  0.54006  0.05796  1.0000
  C   C377      1.0  0.08651  0.52060  0.06116  1.0000
  C   C378      1.0  0.10935  0.52727  0.07091  1.0000
  C   C379      1.0  0.12376  0.55383  0.07703  1.0000
  C   C380      1.0  0.11536  0.57341  0.07363  1.0000
  H   H372      1.0  0.05992  0.53446  0.05065  1.0000
  C   C381      1.0  0.03915  0.70915  0.02090  1.0000
  H   H373      1.0  0.14146  0.55931  0.08459  1.0000
  H   H374      1.0  0.12656  0.59364  0.07857  1.0000
  C   C382      1.0  0.43842  0.53557  0.06890  1.0000
  C   C383      1.0  0.45642  0.52487  0.06986  1.0000
  H   H375      1.0  0.48441  0.60259  0.06990  1.0000
  Fe  Fe79      1.0  0.01673  0.78437  0.19699  1.0000
  C   C384      1.0  0.47685  0.58102  0.06980  1.0000
  C   C385      1.0  0.44890  0.56375  0.06887  1.0000
  H   H376      1.0  0.48930  0.81810  0.07486  1.0000
  C   C386      1.0  0.41578  0.94621  0.09870  1.0000
  C   C387      1.0  0.00095  0.65594  0.05059  1.0000
  H   H377      1.0  0.43526  0.57234  0.06820  1.0000
  C   C388      1.0  0.28239  0.97882  0.12583  1.0000
  C   C389      1.0  0.27475  0.95411  0.13319  1.0000
  C   C390      1.0  0.28112  0.93487  0.12610  1.0000
  C   C391      1.0  0.29484  0.93988  0.11148  1.0000
  C   C392      1.0  0.30220  0.96445  0.10402  1.0000
  C   C393      1.0  0.29615  0.98383  0.11121  1.0000
  H   H378      1.0  0.26428  0.94998  0.14445  1.0000
  H   H379      1.0  0.27542  0.91600  0.13203  1.0000
  H   H380      1.0  0.31278  0.96865  0.09279  1.0000
  N   N33       1.0  0.39311  0.92434  0.10354  1.0000
  H   H381      1.0  0.15183  0.61823  0.02513  1.0000
  C   C394      1.0  0.08365  0.87814  0.16398  1.0000
  C   C395      1.0  0.09373  0.86993  0.17710  1.0000
  C   C396      1.0  0.12015  0.88582  0.18281  1.0000
  C   C397      1.0  0.13670  0.91035  0.17566  1.0000
  C   C398      1.0  0.12653  0.91908  0.16278  1.0000
  C   C399      1.0  0.10005  0.90296  0.15695  1.0000
  H   H382      1.0  0.08120  0.85136  0.18291  1.0000
  H   H383      1.0  0.12777  0.87906  0.19287  1.0000
  H   H384      1.0  0.13914  0.93799  0.15720  1.0000
  H   H385      1.0  0.09237  0.90953  0.14682  1.0000
  C   C400      1.0  0.04462  0.72301  0.13604  1.0000
  C   C401      1.0  0.02793  0.72358  0.12353  1.0000
  C   C402      1.0  0.02893  0.71357  0.10798  1.0000
  C   C403      1.0  0.04693  0.70334  0.10465  1.0000
  C   C404      1.0  0.06411  0.70342  0.11706  1.0000
  C   C405      1.0  0.06280  0.71301  0.13268  1.0000
  C   C406      1.0  0.48435  0.54215  0.07112  1.0000
  C   C407      1.0  0.13526  0.61986  0.01931  1.0000
  H   H386      1.0  0.07793  0.69546  0.11474  1.0000
  S   S148      1.0  0.40282  0.51496  0.06884  1.0000
  H   H387      1.0  0.48901  0.77669  0.08552  1.0000
  C   C408      1.0  0.35849  0.98284  0.01293  1.0000
  H   H388      1.0  0.04593  0.50859  0.08537  1.0000
  H   H389      1.0  0.44883  0.50331  0.06991  1.0000
  C   C409      1.0  0.39120  0.89743  0.10234  1.0000
  H   H390      1.0  0.35561  0.95488  0.11331  1.0000
  H   H391      1.0  0.26207  0.97035  0.21259  1.0000
  H   H392      1.0  0.00012  0.73976  0.23137  1.0000
  H   H393      1.0  0.43246  0.94378  0.09408  1.0000
  C   C410      1.0  0.00926  0.77922  0.24049  1.0000
  C   C411      1.0  0.09241  0.62423  0.00542  1.0000
  C   C412      1.0  0.10881  0.60138  0.02262  1.0000
  C   C413      1.0  0.04410  0.65219  0.00295  1.0000
  H   H394      1.0  0.03722  0.69335  0.05127  1.0000
  H   H395      1.0  0.29227  0.99570  0.23463  1.0000
  H   H396      1.0  0.04166  0.70623  0.00785  1.0000
  C   C414      1.0  0.11857  0.64320  0.00194  1.0000
  H   H397      1.0  0.05849  0.56583  0.02426  1.0000
  C   C415      1.0  0.41740  0.97181  0.09897  1.0000
  H   H398      1.0  0.21725  0.99297  0.22445  1.0000
  H   H399      1.0  0.04616  0.58084  0.00946  1.0000
  H   H400      1.0  0.21513  0.93960  0.20408  1.0000
  C   C416      1.0  0.02050  0.67931  0.04373  1.0000
  S   S149      1.0  0.20636  0.99122  0.15148  1.0000
  S   S150      1.0  0.49224  0.87070  0.07098  1.0000
  C   C417      1.0  0.37161  0.92725  0.10862  1.0000
  H   H401      1.0  0.35324  0.90987  0.11195  1.0000
  S   S151      1.0  0.12001  0.50305  0.07649  1.0000
  C   C418      1.0  0.38514  0.99043  0.01737  1.0000
  C   C419      1.0  0.20324  0.92487  0.22797  1.0000
  N   N34       1.0  0.22434  0.83941  0.07657  1.0000
  C   C420      1.0  0.20636  0.81755  0.08468  1.0000
  C   C421      1.0  0.21949  0.84289  0.06077  1.0000
  C   C422      1.0  0.18264  0.79859  0.07699  1.0000
  C   C423      1.0  0.19594  0.82438  0.05272  1.0000
  C   C424      1.0  0.17745  0.80209  0.06091  1.0000
  C   C425      1.0  0.24977  0.85847  0.08440  1.0000
  H   H402      1.0  0.21069  0.81410  0.09698  1.0000
  H   H403      1.0  0.23439  0.85946  0.05409  1.0000
  H   H404      1.0  0.16902  0.78058  0.08318  1.0000
  H   H405      1.0  0.19270  0.82672  0.04003  1.0000
  H   H406      1.0  0.15968  0.78692  0.05465  1.0000
  H   H407      1.0  0.25352  0.87950  0.08257  1.0000
  H   H408      1.0  0.25005  0.85569  0.09764  1.0000
  H   H409      1.0  0.26648  0.85592  0.07915  1.0000
  N   N35       1.0  0.10272  0.80851  0.14769  1.0000
  C   C426      1.0  0.12134  0.83490  0.14986  1.0000
  C   C427      1.0  0.08001  0.80172  0.13847  1.0000
  C   C428      1.0  0.11795  0.85518  0.14218  1.0000
  C   C429      1.0  0.07577  0.82152  0.13084  1.0000
  C   C430      1.0  0.09500  0.84838  0.13261  1.0000
  C   C431      1.0  0.10632  0.78744  0.15594  1.0000
  H   H410      1.0  0.13878  0.84050  0.15773  1.0000
  H   H411      1.0  0.06480  0.78093  0.13716  1.0000
  H   H412      1.0  0.13247  0.87614  0.14419  1.0000
  H   H413      1.0  0.05729  0.81617  0.12404  1.0000
  H   H414      1.0  0.09144  0.86401  0.12726  1.0000
  H   H415      1.0  0.09976  0.76934  0.14793  1.0000
  H   H416      1.0  0.12758  0.79414  0.15952  1.0000
  H   H417      1.0  0.09394  0.78142  0.16690  1.0000
  C   C432      1.0  0.22958  0.00079  0.23530  1.0000
  N   N36       1.0  0.01870  0.68430  0.02776  1.0000
  H   H418      1.0  0.38952  0.98165  0.02783  1.0000
  H   H419      1.0  0.10523  0.58551  0.03106  1.0000
  N   N37       1.0  0.25606  0.95925  0.23730  1.0000
  S   S152      1.0  0.02651  0.79699  0.22343  1.0000
  H   H420      1.0  0.07573  0.71234  0.14227  1.0000
  H   H421      1.0  0.38121  0.88761  0.09068  1.0000
  H   H422      1.0  0.41137  0.89838  0.10266  1.0000
  H   H423      1.0  0.01375  0.73107  0.12591  1.0000
  H   H424      1.0  0.39651  0.99468  0.10446  1.0000
  C   C433      1.0  0.28387  0.97750  0.24222  1.0000
  H   H425      1.0  0.05401  0.59443  0.02990  1.0000
  C   C434      1.0  0.14012  0.64094  0.00893  1.0000
  H   H426      1.0  0.49797  0.53359  0.07220  1.0000
  H   H427      1.0  0.29635  0.96708  0.24111  1.0000
  S   S153      1.0  0.00303  0.77808  0.15030  1.0000
  C   C435      1.0  0.06023  0.58523  0.01996  1.0000
  H   H428      1.0  0.16549  0.50636  0.05609  1.0000
  H   H429      1.0  0.06787  0.78133  0.24345  1.0000
  C   C436      1.0  0.23838  0.94343  0.24851  1.0000
  C   C437      1.0  0.49760  0.78425  0.07390  1.0000
  H   H430      1.0  0.00272  0.65204  0.06326  1.0000
  H   H431      1.0  0.38885  0.51719  0.10289  1.0000
  H   H432      1.0  0.19935  0.50764  0.03669  1.0000
  H   H433      1.0  0.16053  0.65583  0.00658  1.0000
  C   C438      1.0  0.49481  0.57035  0.07115  1.0000
  C   C439      1.0  0.49783  0.80749  0.06797  1.0000
  C   C440      1.0  0.99948  0.75143  0.24168  1.0000
  Fe  Fe80      1.0  0.03767  0.81472  0.32941  1.0000
  S   S154      1.0  0.02843  0.77123  0.32947  1.0000
  S   S155      1.0  0.08096  0.84261  0.32382  1.0000
  H   H434      1.0  0.38254  0.97979  0.47798  1.0000
  C   C441      1.0  0.30668  0.99679  0.48100  1.0000
  C   C442      1.0  0.06613  0.78560  0.25606  1.0000
  C   C443      1.0  0.47956  0.94442  0.47223  1.0000
  S   S156      1.0  0.20817  0.96512  0.32638  1.0000
  S   S157      1.0  0.14254  0.96815  0.33770  1.0000
  H   H435      1.0  0.05240  0.74471  0.26344  1.0000
  H   H436      1.0  0.04646  0.75465  0.29197  1.0000
  H   H437      1.0  0.49272  0.57145  0.41991  1.0000
  H   H438      1.0  0.15695  0.58616  0.41618  1.0000
  Fe  Fe81      1.0  0.33077  0.92602  0.46060  1.0000
  S   S158      1.0  0.36621  0.94527  0.44464  1.0000
  S   S159      1.0  0.32560  0.94533  0.48380  1.0000
  Fe  Fe82      1.0  0.30150  0.87574  0.43819  1.0000
  S   S160      1.0  0.33594  0.89165  0.42090  1.0000
  S   S161      1.0  0.26397  0.83745  0.42932  1.0000
  Fe  Fe83      1.0  0.36391  0.90418  0.44277  1.0000
  S   S162      1.0  0.39891  0.89496  0.44888  1.0000
  Fe  Fe84      1.0  0.33544  0.93137  0.42405  1.0000
  S   S163      1.0  0.34040  0.95987  0.40340  1.0000
  S   S164      1.0  0.32938  0.88523  0.45989  1.0000
  S   S165      1.0  0.30013  0.91514  0.44021  1.0000
  H   H439      1.0  0.15091  0.53967  0.41598  1.0000
  H   H440      1.0  0.01627  0.81564  0.25323  1.0000
  Fe  Fe85      1.0  0.22816  0.99478  0.30685  1.0000
  Fe  Fe86      1.0  0.08044  0.68448  0.42698  1.0000
  S   S166      1.0  0.09456  0.70862  0.45029  1.0000
  S   S167      1.0  0.07528  0.70136  0.40289  1.0000
  Fe  Fe87      1.0  0.09014  0.63824  0.44014  1.0000
  S   S168      1.0  0.10601  0.66018  0.46388  1.0000
  S   S169      1.0  0.07796  0.59381  0.43413  1.0000
  Fe  Fe88      1.0  0.07104  0.66916  0.46278  1.0000
  S   S170      1.0  0.05193  0.66473  0.48749  1.0000
  Fe  Fe89      1.0  0.12847  0.69817  0.44972  1.0000
  S   S171      1.0  0.17021  0.73027  0.45857  1.0000
  S   S172      1.0  0.05409  0.64582  0.43948  1.0000
  S   S173      1.0  0.11545  0.67534  0.42597  1.0000
  C   C444      1.0  0.13896  0.56995  0.41076  1.0000
  C   C445      1.0  0.10788  0.53177  0.44561  1.0000
  C   C446      1.0  0.12398  0.55916  0.44970  1.0000
  C   C447      1.0  0.11473  0.57830  0.44706  1.0000
  C   C448      1.0  0.08929  0.57030  0.44010  1.0000
  C   C449      1.0  0.07288  0.54279  0.43647  1.0000
  C   C450      1.0  0.08201  0.52361  0.43929  1.0000
  H   H441      1.0  0.14403  0.56575  0.45460  1.0000
  H   H442      1.0  0.12768  0.59935  0.44987  1.0000
  H   H443      1.0  0.05316  0.53632  0.43109  1.0000
  H   H444      1.0  0.48371  0.88964  0.44944  1.0000
  C   C451      1.0  0.43260  0.52061  0.43196  1.0000
  C   C452      1.0  0.43270  0.53049  0.44758  1.0000
  C   C453      1.0  0.45427  0.55504  0.45315  1.0000
  C   C454      1.0  0.47609  0.57016  0.44326  1.0000
  C   C455      1.0  0.47611  0.56025  0.42768  1.0000
  C   C456      1.0  0.45449  0.53572  0.42209  1.0000
  H   H445      1.0  0.41611  0.51920  0.45534  1.0000
  H   H446      1.0  0.45394  0.56236  0.46523  1.0000
  C   C457      1.0  0.45980  0.62404  0.44026  1.0000
  H   H447      1.0  0.43376  0.57814  0.42518  1.0000
  C   C458      1.0  0.19544  0.76046  0.45023  1.0000
  C   C459      1.0  0.19667  0.76535  0.43367  1.0000
  C   C460      1.0  0.21755  0.78913  0.42759  1.0000
  C   C461      1.0  0.23752  0.80842  0.43793  1.0000
  C   C462      1.0  0.23631  0.80355  0.45450  1.0000
  C   C463      1.0  0.21551  0.77968  0.46056  1.0000
  H   H448      1.0  0.18194  0.75047  0.42550  1.0000
  H   H449      1.0  0.21841  0.79248  0.41474  1.0000
  H   H450      1.0  0.25144  0.81808  0.46265  1.0000
  H   H451      1.0  0.21492  0.77609  0.47339  1.0000
  C   C464      1.0  0.48189  0.91258  0.42930  1.0000
  C   C465      1.0  0.47185  0.89733  0.44311  1.0000
  C   C466      1.0  0.44632  0.89192  0.44872  1.0000
  C   C467      1.0  0.43063  0.90199  0.44082  1.0000
  C   C468      1.0  0.44059  0.91713  0.42697  1.0000
  C   C469      1.0  0.46596  0.92224  0.42123  1.0000
  H   H452      1.0  0.32624  0.82549  0.40386  1.0000
  H   H453      1.0  0.43883  0.88005  0.45940  1.0000
  H   H454      1.0  0.42879  0.92493  0.42067  1.0000
  N   N38       1.0  0.03676  0.59441  0.48629  1.0000
  C   C470      1.0  0.49112  0.66738  0.42139  1.0000
  C   C471      1.0  0.49168  0.95902  0.45852  1.0000
  H   H455      1.0  0.47339  0.93390  0.41047  1.0000
  C   C472      1.0  0.47594  0.64915  0.44763  1.0000
  C   C473      1.0  0.04158  0.59312  0.47026  1.0000
  C   C474      1.0  0.31400  0.96231  0.39257  1.0000
  C   C475      1.0  0.32029  0.98108  0.38017  1.0000
  C   C476      1.0  0.29995  0.98383  0.37145  1.0000
  C   C477      1.0  0.27300  0.96786  0.37509  1.0000
  C   C478      1.0  0.26676  0.94917  0.38753  1.0000
  C   C479      1.0  0.28706  0.94636  0.39620  1.0000
  H   H456      1.0  0.06196  0.60143  0.46610  1.0000
  H   H457      1.0  0.28509  0.98480  0.25491  1.0000
  H   H458      1.0  0.18453  0.95054  0.38149  1.0000
  H   H459      1.0  0.28182  0.93174  0.40563  1.0000
  C   C480      1.0  0.02034  0.58136  0.45897  1.0000
  H   H460      1.0  0.05615  0.80070  0.30018  1.0000
  C   C481      1.0  0.09560  0.87788  0.32589  1.0000
  C   C482      1.0  0.08363  0.89069  0.33466  1.0000
  C   C483      1.0  0.09783  0.91862  0.33783  1.0000
  C   C484      1.0  0.12389  0.93378  0.33215  1.0000
  C   C485      1.0  0.13517  0.92103  0.32275  1.0000
  C   C486      1.0  0.12119  0.89321  0.31973  1.0000
  H   H461      1.0  0.06386  0.87902  0.33945  1.0000
  H   H462      1.0  0.08882  0.92839  0.34497  1.0000
  H   H463      1.0  0.15474  0.93253  0.31784  1.0000
  H   H464      1.0  0.13055  0.88348  0.31289  1.0000
  C   C487      1.0  0.01929  0.73278  0.38136  1.0000
  C   C488      1.0  0.09201  0.52763  0.39856  1.0000
  C   C489      1.0  0.03183  0.71236  0.40382  1.0000
  C   C490      1.0  0.05236  0.71192  0.39478  1.0000
  C   C491      1.0  0.05588  0.72147  0.37891  1.0000
  C   C492      1.0  0.03957  0.73197  0.37225  1.0000
  H   H465      1.0  0.02877  0.70499  0.41600  1.0000
  H   H466      1.0  0.07158  0.72106  0.37177  1.0000
  H   H467      1.0  0.04270  0.73945  0.36009  1.0000
  C   C493      1.0  0.07186  0.84351  0.28174  1.0000
  C   C494      1.0  0.07102  0.81141  0.26102  1.0000
  H   H468      1.0  0.07843  0.55741  0.39457  1.0000
  H   H469      1.0  0.07075  0.85530  0.27136  1.0000
  C   C495      1.0  0.01102  0.58318  0.49159  1.0000
  C   C496      1.0  0.05923  0.79666  0.28780  1.0000
  H   H470      1.0  0.29558  0.97554  0.48480  1.0000
  C   C497      1.0  0.05943  0.60716  0.49781  1.0000
  S   S174      1.0  0.01247  0.81182  0.35075  1.0000
  C   C498      1.0  0.13545  0.54359  0.41054  1.0000
  H   H471      1.0  0.36715  0.83913  0.44942  1.0000
  C   C499      1.0  0.32283  0.98499  0.43904  1.0000
  C   C500      1.0  0.00875  0.79414  0.25404  1.0000
  Fe  Fe90      1.0  0.00125  0.76756  0.34981  1.0000
  H   H472      1.0  0.45454  0.58852  0.40798  1.0000
  H   H473      1.0  0.31236  0.97317  0.42834  1.0000
  H   H474      1.0  0.32393  0.81450  0.46296  1.0000
  H   H475      1.0  0.47666  0.65155  0.46066  1.0000
  N   N39       1.0  0.11223  0.52287  0.40441  1.0000
  C   C501      1.0  0.49163  0.67094  0.43810  1.0000
  H   H476      1.0  0.19107  0.96224  0.36117  1.0000
  S   S175      1.0  0.22637  0.97758  0.28158  1.0000
  H   H477      1.0  0.39198  0.84937  0.42512  1.0000
  H   H478      1.0  0.37832  0.86967  0.41642  1.0000
  C   C502      1.0  0.49433  0.93676  0.48270  1.0000
  H   H479      1.0  0.47503  0.63922  0.40145  1.0000
  H   H480      1.0  0.16065  0.95738  0.36993  1.0000
  N   N40       1.0  0.45966  0.62064  0.42387  1.0000
  H   H481      1.0  0.19982  0.97234  0.25082  1.0000
  C   C503      1.0  0.05740  0.76506  0.26725  1.0000
  N   N41       1.0  0.06710  0.81652  0.27667  1.0000
  C   C504      1.0  0.44259  0.59432  0.41618  1.0000
  H   H482      1.0  0.12033  0.59511  0.40567  1.0000
  H   H483      1.0  0.24602  0.93666  0.39046  1.0000
  H   H484      1.0  0.44811  0.60709  0.44781  1.0000
  H   H485      1.0  0.45473  0.52831  0.41002  1.0000
  N   N42       1.0  0.16237  0.92130  0.36331  1.0000
  C   C505      1.0  0.17746  0.91131  0.35587  1.0000
  C   C506      1.0  0.13568  0.90513  0.36566  1.0000
  C   C507      1.0  0.16564  0.88473  0.35002  1.0000
  C   C508      1.0  0.12329  0.87833  0.36019  1.0000
  C   C509      1.0  0.13833  0.86822  0.35214  1.0000
  C   C510      1.0  0.17517  0.94916  0.36938  1.0000
  H   H486      1.0  0.19872  0.92405  0.35420  1.0000
  H   H487      1.0  0.12363  0.91316  0.37135  1.0000
  H   H488      1.0  0.17755  0.87719  0.34370  1.0000
  H   H489      1.0  0.10188  0.86585  0.36145  1.0000
  H   H490      1.0  0.12859  0.84784  0.34717  1.0000
  C   C511      1.0  0.11842  0.57497  0.40485  1.0000
  H   H491      1.0  0.19748  0.91473  0.25315  1.0000
  H   H492      1.0  0.28140  0.79425  0.44661  1.0000
  H   H493      1.0  0.07328  0.51109  0.39420  1.0000
  S   S176      1.0  0.24620  0.97021  0.36470  1.0000
  H   H494      1.0  0.45860  0.93843  0.47441  1.0000
  C   C512      1.0  0.30888  0.98351  0.45309  1.0000
  C   C513      1.0  0.47500  0.64191  0.41443  1.0000
  C   C514      1.0  0.37741  0.98668  0.48899  1.0000
  H   H495      1.0  0.47985  0.96428  0.45022  1.0000
  C   C515      1.0  0.01538  0.72269  0.39711  1.0000
  H   H496      1.0  0.42591  0.59493  0.40918  1.0000
  C   C516      1.0  0.05408  0.77063  0.28326  1.0000
  S   S177      1.0  0.00504  0.80802  0.31144  1.0000
  H   H497      1.0  0.28272  0.79979  0.41698  1.0000
  H   H498      1.0  0.05648  0.84228  0.29041  1.0000
  H   H499      1.0  0.37503  0.83990  0.40580  1.0000
  C   C517      1.0  0.09481  0.55373  0.39866  1.0000
  N   N43       1.0  0.11374  0.76719  0.41584  1.0000
  C   C518      1.0  0.11290  0.77395  0.40011  1.0000
  C   C519      1.0  0.09468  0.76595  0.42629  1.0000
  C   C520      1.0  0.09316  0.78061  0.39461  1.0000
  C   C521      1.0  0.07451  0.77226  0.42116  1.0000
  C   C522      1.0  0.07383  0.77970  0.40522  1.0000
  C   C523      1.0  0.13432  0.75976  0.42118  1.0000
  H   H500      1.0  0.12715  0.77353  0.39163  1.0000
  H   H501      1.0  0.09472  0.75963  0.43859  1.0000
  H   H502      1.0  0.09200  0.78515  0.38202  1.0000
  H   H503      1.0  0.05900  0.77058  0.42933  1.0000
  H   H504      1.0  0.05767  0.78360  0.40089  1.0000
  H   H505      1.0  0.12825  0.73860  0.41742  1.0000
  H   H506      1.0  0.15394  0.77309  0.41585  1.0000
  H   H507      1.0  0.13746  0.76159  0.43453  1.0000
  N   N44       1.0  0.34931  0.83292  0.42577  1.0000
  C   C524      1.0  0.34874  0.83014  0.44217  1.0000
  C   C525      1.0  0.32596  0.82232  0.41675  1.0000
  C   C526      1.0  0.32437  0.81610  0.44992  1.0000
  C   C527      1.0  0.30130  0.80772  0.42407  1.0000
  C   C528      1.0  0.30053  0.80473  0.44077  1.0000
  C   C529      1.0  0.37487  0.84866  0.41785  1.0000
  C   C530      1.0  0.01870  0.64449  0.49382  1.0000
  Fe  Fe91      1.0  0.18657  0.98890  0.33166  1.0000
  H   H508      1.0  0.07528  0.62605  0.49282  1.0000
  C   C531      1.0  0.21970  0.98916  0.25028  1.0000
  H   H509      1.0  0.09185  0.85444  0.28788  1.0000
  H   H510      1.0  0.28750  0.97015  0.45320  1.0000
  H   H511      1.0  0.02438  0.58080  0.44624  1.0000
  H   H512      1.0  0.24454  0.94499  0.26113  1.0000
  S   S178      1.0  0.12219  0.50937  0.44691  1.0000
  N   N45       1.0  0.32204  0.99838  0.46658  1.0000
  H   H513      1.0  0.07681  0.82694  0.25207  1.0000
  Fe  Fe92      1.0  0.24026  0.99352  0.34372  1.0000
  H   H514      1.0  0.30513  0.99831  0.36194  1.0000
  H   H515      1.0  0.48505  0.92502  0.49322  1.0000
  C   C532      1.0  0.99987  0.78173  0.26890  1.0000
  H   H516      1.0  0.34105  0.99355  0.37725  1.0000
  C   C533      1.0  0.35138  0.97291  0.49473  1.0000
  C   C534      1.0  0.23596  0.99800  0.26437  1.0000
  H   H517      1.0  0.99946  0.63973  0.47049  1.0000
  H   H518      1.0  0.06932  0.50267  0.43611  1.0000
  H   H519      1.0  0.00019  0.79366  0.27922  1.0000
  H   H520      1.0  0.99962  0.72308  0.40421  1.0000
  C   C535      1.0  0.35048  0.00137  0.43893  1.0000
  H   H521      1.0  0.05339  0.61305  0.50927  1.0000
  C   C536      1.0  0.20608  0.94568  0.63057  1.0000
  C   C537      1.0  0.18462  0.95157  0.63055  1.0000
  H   H522      1.0  0.14186  0.93539  0.63088  1.0000
  C   C538      1.0  0.18185  0.97692  0.74299  1.0000
  Fe  Fe93      1.0  0.04725  0.80466  0.67222  1.0000
  S   S179      1.0  0.09219  0.83179  0.66917  1.0000
  S   S180      1.0  0.03503  0.76597  0.68566  1.0000
  C   C539      1.0  0.00416  0.76899  0.74214  1.0000
  S   S181      1.0  0.01763  0.78444  0.65148  1.0000
  H   H523      1.0  0.20760  0.94543  0.70216  1.0000
  C   C540      1.0  0.12604  0.88255  0.63025  1.0000
  H   H524      1.0  0.17087  0.87763  0.63107  1.0000
  Fe  Fe94      1.0  0.20057  0.98610  0.66961  1.0000
  S   S182      1.0  0.15559  0.95943  0.66660  1.0000
  S   S183      1.0  0.23331  0.97405  0.66898  1.0000
  H   H525      1.0  0.11220  0.88881  0.63616  1.0000
  H   H526      1.0  0.04306  0.69926  0.54409  1.0000
  H   H527      1.0  0.11920  0.87647  0.61753  1.0000
  C   C541      1.0  0.15839  0.93054  0.63059  1.0000
  C   C542      1.0  0.02058  0.69534  0.52200  1.0000
  C   C543      1.0  0.10932  0.86739  0.67040  1.0000
  C   C544      1.0  0.13754  0.88058  0.67087  1.0000
  C   C545      1.0  0.15204  0.90882  0.67025  1.0000
  C   C546      1.0  0.13840  0.92414  0.66906  1.0000
  C   C547      1.0  0.11023  0.91101  0.66888  1.0000
  C   C548      1.0  0.09573  0.88279  0.66964  1.0000
  H   H528      1.0  0.14819  0.86879  0.67139  1.0000
  H   H529      1.0  0.17370  0.91861  0.67021  1.0000
  H   H530      1.0  0.09950  0.92269  0.66792  1.0000
  H   H531      1.0  0.07404  0.87289  0.66917  1.0000
  H   H532      1.0  0.12432  0.86470  0.63687  1.0000
  C   C549      1.0  0.20111  0.91894  0.63080  1.0000
  N   N46       1.0  0.15367  0.90436  0.63085  1.0000
  S   S184      1.0  0.26005  0.98590  0.71464  1.0000
  H   H533      1.0  0.17467  0.91773  0.70538  1.0000
  N   N47       1.0  0.18852  0.94918  0.72314  1.0000
  H   H534      1.0  0.03149  0.64561  0.51862  1.0000
  H   H535      1.0  0.03812  0.70392  0.51451  1.0000
  H   H536      1.0  0.18826  0.97231  0.63075  1.0000
  S   S185      1.0  0.01969  0.81595  0.68582  1.0000
  C   C550      1.0  0.17461  0.89838  0.63088  1.0000
  H   H537      1.0  0.17800  0.94901  0.69809  1.0000
  H   H538      1.0  0.21773  0.91422  0.63094  1.0000
  H   H539      1.0  0.22655  0.96186  0.63053  1.0000
  H   H540      1.0  0.00711  0.58396  0.50431  1.0000
  H   H541      1.0  0.03616  0.76350  0.73189  1.0000
  C   C551      1.0  0.01448  0.63853  0.51028  1.0000
  Fe  Fe95      1.0  0.24934  0.00038  0.69150  1.0000
  C   C552      1.0  0.02644  0.76425  0.74289  1.0000
  C   C553      1.0  0.34513  0.98221  0.50908  1.0000
  H   H542      1.0  0.32509  0.97164  0.51367  1.0000
  H   H543      1.0  0.17303  0.97641  0.71765  1.0000
  C   C554      1.0  0.18710  0.93990  0.70637  1.0000
  C   C555      1.0  0.18038  0.96797  0.72699  1.0000
  H   H544      1.0  0.00232  0.67826  0.56079  1.0000
  C   C556      1.0  0.25748  0.00055  0.73316  1.0000
  H   H545      1.0  0.20574  0.92488  0.73174  1.0000
  C   C557      1.0  0.02333  0.69249  0.53854  1.0000
  Fe  Fe96      1.0  0.00351  0.74666  0.66572  1.0000
  C   C558      1.0  0.19834  0.93899  0.73490  1.0000
  H   H546      1.0  0.26812  0.97522  0.74772  1.0000
  C   C559      1.0  0.26201  0.99085  0.74785  1.0000
  Fe  Fe97      1.0  0.00572  0.77632  0.69808  1.0000
  H   H547      1.0  0.17615  0.99237  0.74598  1.0000
  C   C560      1.0  0.00053  0.68062  0.54789  1.0000
  H   H548      1.0  0.06796  0.59330  0.50041  1.0000
  C   C561      1.0  0.27892  0.95018  0.85054  1.0000
  H   H549      1.0  0.21538  0.93221  0.86218  1.0000
  C   C562      1.0  0.00135  0.76603  0.77153  1.0000
  C   C563      1.0  0.03534  0.83849  0.77837  1.0000
  H   H550      1.0  0.02539  0.69189  0.86147  1.0000
  Fe  Fe98      1.0  0.03307  0.81605  0.83623  1.0000
  S   S186      1.0  0.05976  0.86142  0.83925  1.0000
  S   S187      1.0  0.04614  0.78396  0.83630  1.0000
  Fe  Fe99      1.0  0.21447  0.97338  0.83065  1.0000
  C   C564      1.0  0.06576  0.73541  0.84988  1.0000
  S   S188      1.0  0.18689  0.92807  0.83193  1.0000
  C   C565      1.0  0.32085  0.96652  0.86643  1.0000
  C   C566      1.0  0.25118  0.94059  0.84927  1.0000
  H   H551      1.0  0.04806  0.81641  0.76221  1.0000
  C   C567      1.0  0.27822  0.95713  0.87883  1.0000
  H   H552      1.0  0.41609  0.98122  0.94118  1.0000
  C   C568      1.0  0.08637  0.85946  0.79228  1.0000
  H   H553      1.0  0.23955  0.94729  0.88872  1.0000
  C   C569      1.0  0.25818  0.00091  0.76273  1.0000
  H   H554      1.0  0.00879  0.71094  0.90227  1.0000
  C   C570      1.0  0.03882  0.71889  0.82468  1.0000
  C   C571      1.0  0.09519  0.87951  0.83738  1.0000
  C   C572      1.0  0.10784  0.90780  0.83823  1.0000
  C   C573      1.0  0.13578  0.92302  0.83642  1.0000
  C   C574      1.0  0.15146  0.91007  0.83382  1.0000
  C   C575      1.0  0.13878  0.88177  0.83286  1.0000
  C   C576      1.0  0.11081  0.86657  0.83454  1.0000
  H   H555      1.0  0.09596  0.91804  0.84039  1.0000
  H   H556      1.0  0.14519  0.94473  0.83723  1.0000
  H   H557      1.0  0.15069  0.87152  0.83087  1.0000
  H   H558      1.0  0.10139  0.84485  0.83380  1.0000
  H   H559      1.0  0.24077  0.93436  0.83762  1.0000
  H   H560      1.0  0.08106  0.75002  0.84186  1.0000
  C   C577      1.0  0.19971  0.94720  0.75105  1.0000
  H   H561      1.0  0.32411  0.94860  0.86768  1.0000
  N   N48       1.0  0.04216  0.71557  0.84076  1.0000
  C   C578      1.0  0.19150  0.96637  0.75508  1.0000
  H   H562      1.0  0.05332  0.75674  0.75846  1.0000
  H   H563      1.0  0.04914  0.67507  0.98140  1.0000
  C   C579      1.0  0.25048  0.94786  0.87796  1.0000
  C   C580      1.0  0.03608  0.76037  0.75795  1.0000
  C   C581      1.0  0.00023  0.67497  0.84030  1.0000
  C   C582      1.0  0.23690  0.93938  0.86308  1.0000
  N   N49       1.0  0.04233  0.85626  0.79119  1.0000
  H   H564      1.0  0.33045  0.98042  0.87696  1.0000
  C   C583      1.0  0.07918  0.84081  0.77951  1.0000
  S   S189      1.0  0.03690  0.75792  0.79119  1.0000
  H   H565      1.0  0.28866  0.96366  0.89044  1.0000
  S   S190      1.0  0.25062  0.98381  0.81527  1.0000
  S   S191      1.0  0.00985  0.80171  0.81276  1.0000
  H   H566      1.0  0.33122  0.97764  0.85554  1.0000
  C   C584      1.0  0.02367  0.76143  0.77234  1.0000
  H   H567      1.0  0.09322  0.83409  0.77523  1.0000
  C   C585      1.0  0.03615  0.65699  0.98766  1.0000
  Fe  Fe100     1.0  0.00794  0.75862  0.84958  1.0000
  Fe  Fe101     1.0  0.02068  0.76831  0.81357  1.0000
  H   H568      1.0  0.26135  0.99307  0.77397  1.0000
  N   N50       1.0  0.29207  0.95824  0.86520  1.0000
  H   H569      1.0  0.28994  0.95150  0.83969  1.0000
  C   C586      1.0  0.05372  0.83068  0.77228  1.0000
  C   C587      1.0  0.01139  0.63860  0.98038  1.0000
  H   H570      1.0  0.20813  0.93961  0.76030  1.0000
  H   H571      1.0  0.07344  0.88199  0.80765  1.0000
  S   S192      1.0  0.00981  0.73630  0.87221  1.0000
  H   H572      1.0  0.10610  0.86757  0.79806  1.0000
  H   H573      1.0  0.00542  0.64259  0.96866  1.0000
  C   C588      1.0  0.01607  0.70026  0.81602  1.0000
  C   C589      1.0  0.06771  0.86735  0.79780  1.0000
  H   H574      1.0  0.42249  0.99266  0.97058  1.0000
  H   H575      1.0  0.05967  0.74689  0.85842  1.0000
  H   H576      1.0  0.01336  0.70326  0.80332  1.0000
  H   H577      1.0  0.05357  0.73618  0.81844  1.0000
  C   C590      1.0  0.43568  0.99540  0.94605  1.0000
  C   C591      1.0  0.35317  0.99449  0.99929  1.0000
  H   H578      1.0  0.07523  0.72523  0.85692  1.0000
  C   C592      1.0  0.02316  0.69404  0.84860  1.0000
  H   H579      1.0  0.33260  0.98869  0.99575  1.0000
  S   S193      1.0  0.23936  0.99925  0.85182  1.0000
  H   H580      1.0  0.19352  0.97375  0.76748  1.0000
  H   H581      1.0  0.12198  0.65990  0.99421  1.0000
  H   H582      1.0  0.01529  0.82973  0.77301  1.0000
  H   H583      1.0  0.07581  0.62636  0.00010  1.0000
  H   H584      1.0  0.02490  0.86591  0.81117  1.0000
  C   C593      1.0  0.02288  0.86407  0.79774  1.0000
  H   H585      1.0  0.02624  0.88363  0.79281  1.0000
  H   H586      1.0  0.00192  0.84862  0.79490  1.0000
  C   C594      1.0  0.78807  0.06474  0.23806  1.0000
  S   S194      1.0  0.97133  0.22596  0.17196  1.0000
  S   S195      1.0  0.95865  0.14963  0.16939  1.0000
  H   H587      1.0  0.76227  0.06064  0.21022  1.0000
  H   H588      1.0  0.76790  0.06177  0.24003  1.0000
  H   H589      1.0  0.79114  0.07380  0.19803  1.0000
  C   C595      1.0  0.98161  0.30626  0.00413  1.0000
  H   H590      1.0  0.59295  0.02607  0.06490  1.0000
  Fe  Fe102     1.0  0.80454  0.04124  0.17471  1.0000
  S   S196      1.0  0.76012  0.02827  0.17408  1.0000
  S   S197      1.0  0.83166  0.08663  0.17493  1.0000
  H   H591      1.0  0.96112  0.35153  0.02410  1.0000
  H   H592      1.0  0.96606  0.29822  0.01302  1.0000
  H   H593      1.0  0.83310  0.08022  0.20879  1.0000
  H   H594      1.0  0.92438  0.21233  0.24625  1.0000
  C   C596      1.0  0.92416  0.20555  0.13545  1.0000
  S   S198      1.0  0.97385  0.25526  0.21614  1.0000
  C   C597      1.0  0.90683  0.15781  0.13878  1.0000
  Fe  Fe103     1.0  0.75859  0.00322  0.19551  1.0000
  H   H595      1.0  0.99535  0.42336  0.08892  1.0000
  C   C598      1.0  0.97806  0.36164  0.01637  1.0000
  C   C599      1.0  0.92362  0.13200  0.17232  1.0000
  C   C600      1.0  0.90912  0.14526  0.17719  1.0000
  C   C601      1.0  0.88100  0.13097  0.17810  1.0000
  C   C602      1.0  0.86715  0.10324  0.17444  1.0000
  C   C603      1.0  0.88170  0.08987  0.16993  1.0000
  C   C604      1.0  0.90979  0.10425  0.16876  1.0000
  H   H596      1.0  0.91950  0.16662  0.17990  1.0000
  H   H597      1.0  0.86990  0.14150  0.18156  1.0000
  H   H598      1.0  0.87128  0.06856  0.16701  1.0000
  H   H599      1.0  0.92085  0.09383  0.16496  1.0000
  S   S199      1.0  0.73680  0.00390  0.21821  1.0000
  N   N51       1.0  0.95306  0.18513  0.13239  1.0000
  C   C605      1.0  0.65722  0.00274  0.00506  1.0000
  H   H600      1.0  0.98380  0.22522  0.24152  1.0000
  N   N52       1.0  0.79897  0.07130  0.22313  1.0000
  C   C606      1.0  0.90290  0.18056  0.13892  1.0000
  C   C607      1.0  0.93219  0.16049  0.13545  1.0000
  C   C608      1.0  0.78378  0.07583  0.21005  1.0000
  C   C609      1.0  0.83882  0.07021  0.23296  1.0000
  C   C610      1.0  0.97939  0.18726  0.12898  1.0000
  H   H601      1.0  0.88347  0.17879  0.14184  1.0000
  H   H602      1.0  0.58885  0.00279  0.00793  1.0000
  C   C611      1.0  0.82426  0.07466  0.22057  1.0000
  Fe  Fe104     1.0  0.98392  0.19398  0.17587  1.0000
  H   H603      1.0  0.67638  0.00278  0.00435  1.0000
  C   C612      1.0  0.59112  0.00573  0.06662  1.0000
  H   H604      1.0  0.89057  0.13830  0.14170  1.0000
  H   H605      1.0  0.97926  0.17941  0.11661  1.0000
  H   H606      1.0  0.66973  0.02611  0.04086  1.0000
  N   N53       1.0  0.61755  0.00671  0.06596  1.0000
  H   H607      1.0  0.92144  0.22344  0.13557  1.0000
  S   S200      1.0  0.80288  0.01815  0.19691  1.0000
  C   C613      1.0  0.94921  0.20745  0.13205  1.0000
  H   H608      1.0  0.85848  0.07201  0.23069  1.0000
  H   H609      1.0  0.93530  0.14282  0.13586  1.0000
  H   H610      1.0  0.78560  0.09629  0.21127  1.0000
  C   C614      1.0  0.65795  0.01813  0.05155  1.0000
  H   H611      1.0  0.62544  0.02472  0.04283  1.0000
  H   H612      1.0  0.93506  0.25983  0.24334  1.0000
  H   H613      1.0  0.96565  0.22698  0.12943  1.0000
  H   H614      1.0  0.99550  0.20845  0.12992  1.0000
  H   H615      1.0  0.98460  0.17562  0.13787  1.0000
  C   C615      1.0  0.63291  0.01741  0.05276  1.0000
  H   H616      1.0  0.68652  0.00798  0.06312  1.0000
  C   C616      1.0  0.66727  0.00785  0.06397  1.0000
  Fe  Fe105     1.0  0.99240  0.24253  0.19605  1.0000
  S   S201      1.0  0.80019  0.00786  0.15767  1.0000
  C   C617      1.0  0.60791  0.00262  0.00713  1.0000
  C   C618      1.0  0.99157  0.24594  0.24556  1.0000
  C   C619      1.0  0.99125  0.26503  0.23489  1.0000
  C   C620      1.0  0.82765  0.06303  0.24816  1.0000
  Fe  Fe106     1.0  0.96954  0.21062  0.32324  1.0000
  S   S202      1.0  0.97974  0.25440  0.32648  1.0000
  S   S203      1.0  0.92831  0.17763  0.31483  1.0000
  C   C621      1.0  0.94174  0.23298  0.28491  1.0000
  H   H617      1.0  0.72113  0.00707  0.25080  1.0000
  C   C622      1.0  0.64706  0.03819  0.49069  1.0000
  H   H618      1.0  0.66117  0.05339  0.48296  1.0000
  H   H619      1.0  0.70469  0.02272  0.39687  1.0000
  Fe  Fe107     1.0  0.80298  0.04157  0.34072  1.0000
  S   S204      1.0  0.76874  0.03449  0.32362  1.0000
  S   S205      1.0  0.83362  0.08204  0.35157  1.0000
  H   H620      1.0  0.53900  0.00297  0.44379  1.0000
  C   C623      1.0  0.75867  0.07238  0.35600  1.0000
  H   H621      1.0  0.71223  0.04426  0.37031  1.0000
  H   H622      1.0  0.94463  0.18705  0.27993  1.0000
  C   C624      1.0  0.73813  0.00306  0.25147  1.0000
  C   C625      1.0  0.72496  0.03417  0.39261  1.0000
  H   H623      1.0  0.97029  0.35811  0.48246  1.0000
  H   H624      1.0  0.74318  0.05855  0.34713  1.0000
  H   H625      1.0  0.77856  0.07687  0.35111  1.0000
  N   N54       1.0  0.75471  0.05989  0.37182  1.0000
  H   H626      1.0  0.98894  0.34766  0.39465  1.0000
  H   H627      1.0  0.94404  0.22560  0.29656  1.0000
  C   C626      1.0  0.98465  0.36653  0.49241  1.0000
  H   H628      1.0  0.63099  0.00769  0.47162  1.0000
  C   C627      1.0  0.90332  0.15037  0.32542  1.0000
  C   C628      1.0  0.88263  0.12918  0.31651  1.0000
  C   C629      1.0  0.86163  0.10773  0.32431  1.0000
  C   C630      1.0  0.86078  0.10749  0.34118  1.0000
  C   C631      1.0  0.88150  0.12865  0.35010  1.0000
  C   C632      1.0  0.90280  0.14985  0.34230  1.0000
  H   H629      1.0  0.88277  0.12938  0.30346  1.0000
  H   H630      1.0  0.84581  0.09169  0.31728  1.0000
  H   H631      1.0  0.88103  0.12871  0.36315  1.0000
  H   H632      1.0  0.91844  0.16605  0.34933  1.0000
  C   C633      1.0  0.77627  0.06237  0.38092  1.0000
  C   C634      1.0  0.74671  0.03581  0.40174  1.0000
  C   C635      1.0  0.77258  0.05014  0.39593  1.0000
  H   H633      1.0  0.78969  0.05149  0.40286  1.0000
  C   C636      1.0  0.94794  0.26003  0.28360  1.0000
  C   C637      1.0  0.72935  0.04641  0.37759  1.0000
  H   H634      1.0  0.83840  0.05897  0.25784  1.0000
  H   H635      1.0  0.79644  0.07331  0.37644  1.0000
  C   C638      1.0  0.99272  0.33712  0.40444  1.0000
  H   H636      1.0  0.95563  0.27357  0.29403  1.0000
  H   H637      1.0  0.74046  0.00461  0.27764  1.0000
  H   H638      1.0  0.75734  0.09144  0.35697  1.0000
  H   H639      1.0  0.79332  0.05481  0.26254  1.0000
  H   H640      1.0  0.90940  0.17721  0.28055  1.0000
  H   H641      1.0  0.68484  0.01925  0.49608  1.0000
  C   C639      1.0  0.93045  0.22541  0.25691  1.0000
  N   N55       1.0  0.93348  0.21617  0.27162  1.0000
  H   H642      1.0  0.74343  0.02577  0.41321  1.0000
  C   C640      1.0  0.92774  0.18808  0.27338  1.0000
  Fe  Fe108     1.0  0.77700  0.00272  0.31187  1.0000
  S   S206      1.0  0.81292  0.01202  0.32810  1.0000
  H   H643      1.0  0.98420  0.30213  0.38947  1.0000
  H   H644      1.0  0.98340  0.37556  0.41927  1.0000
  H   H645      1.0  0.92487  0.17752  0.26154  1.0000
  C   C641      1.0  0.98997  0.31140  0.40144  1.0000
  Fe  Fe109     1.0  0.74289  0.00170  0.34072  1.0000
  H   H646      1.0  0.99477  0.27864  0.41138  1.0000
  S   S207      1.0  0.77656  0.01102  0.35848  1.0000
  C   C642      1.0  0.94527  0.26973  0.26861  1.0000
  C   C643      1.0  0.99604  0.29824  0.41376  1.0000
  H   H647      1.0  0.95094  0.29088  0.26732  1.0000
  C   C644      1.0  0.93631  0.25232  0.25518  1.0000
  C   C645      1.0  0.80229  0.06067  0.25081  1.0000
  C   C646      1.0  0.62995  0.01231  0.48422  1.0000
  S   S208      1.0  0.99880  0.21275  0.34273  1.0000
  C   C647      1.0  0.74904  0.00168  0.26668  1.0000
  S   S209      1.0  0.99928  0.21864  0.30360  1.0000
  C   C648      1.0  0.93462  0.44139  0.53199  1.0000
  Fe  Fe110     1.0  0.64438  0.09765  0.57025  1.0000
  S   S210      1.0  0.66499  0.12438  0.54955  1.0000
  S   S211      1.0  0.60310  0.08844  0.58004  1.0000
  Fe  Fe111     1.0  0.69001  0.08192  0.57530  1.0000
  S   S212      1.0  0.71317  0.10757  0.55468  1.0000
  S   S213      1.0  0.70841  0.05631  0.58559  1.0000
  Fe  Fe112     1.0  0.70328  0.13908  0.56469  1.0000
  S   S214      1.0  0.73150  0.18400  0.56989  1.0000
  Fe  Fe113     1.0  0.67326  0.09046  0.54133  1.0000
  S   S215      1.0  0.67028  0.07630  0.51506  1.0000
  S   S216      1.0  0.68201  0.11430  0.58617  1.0000
  S   S217      1.0  0.65075  0.06299  0.56118  1.0000
  H   H648      1.0  0.67792  0.21924  0.56045  1.0000
  S   S218      1.0  0.51458  0.12591  0.56184  1.0000
  Fe  Fe114     1.0  0.94169  0.35003  0.55220  1.0000
  S   S219      1.0  0.94044  0.37526  0.57320  1.0000
  S   S220      1.0  0.98371  0.36783  0.54185  1.0000
  Fe  Fe115     1.0  0.88267  0.30672  0.55719  1.0000
  S   S221      1.0  0.87796  0.33003  0.57798  1.0000
  S   S222      1.0  0.85222  0.26351  0.54956  1.0000
  Fe  Fe116     1.0  0.90012  0.36718  0.56311  1.0000
  S   S223      1.0  0.88610  0.39872  0.55756  1.0000
  Fe  Fe117     1.0  0.91886  0.33601  0.58604  1.0000
  S   S224      1.0  0.92633  0.32809  0.61204  1.0000
  S   S225      1.0  0.90208  0.34330  0.54142  1.0000
  S   S226      1.0  0.92286  0.31146  0.56592  1.0000
  H   H649      1.0  0.56743  0.14161  0.55039  1.0000
  C   C649      1.0  0.77759  0.09633  0.61961  1.0000
  H   H650      1.0  0.70368  0.06036  0.64508  1.0000
  Fe  Fe118     1.0  0.96519  0.20354  0.67359  1.0000
  S   S227      1.0  0.92144  0.17468  0.67701  1.0000
  S   S228      1.0  0.97412  0.24683  0.67628  1.0000
  Fe  Fe119     1.0  0.81869  0.02764  0.66526  1.0000
  S   S229      1.0  0.79866  0.04666  0.67968  1.0000
  S   S230      1.0  0.85890  0.05274  0.65390  1.0000
  C   C650      1.0  0.63623  0.18688  0.57634  1.0000
  H   H651      1.0  0.68496  0.19141  0.55685  1.0000
  H   H652      1.0  0.90708  0.05277  0.69884  1.0000
  H   H653      1.0  0.74492  0.01854  0.62642  1.0000
  H   H654      1.0  0.63284  0.20001  0.56819  1.0000
  C   C651      1.0  0.86085  0.09242  0.71082  1.0000
  C   C652      1.0  0.90446  0.14201  0.66852  1.0000
  C   C653      1.0  0.91775  0.12967  0.66064  1.0000
  C   C654      1.0  0.90345  0.10245  0.65564  1.0000
  C   C655      1.0  0.87598  0.08752  0.65866  1.0000
  C   C656      1.0  0.86274  0.10031  0.66602  1.0000
  C   C657      1.0  0.87687  0.12737  0.67091  1.0000
  H   H655      1.0  0.93906  0.14089  0.65870  1.0000
  H   H656      1.0  0.91382  0.09280  0.64976  1.0000
  H   H657      1.0  0.84165  0.08946  0.66806  1.0000
  H   H658      1.0  0.86649  0.13687  0.67694  1.0000
  N   N56       1.0  0.89152  0.08057  0.69746  1.0000
  H   H659      1.0  0.53160  0.42478  0.53486  1.0000
  C   C658      1.0  0.94527  0.31135  0.61733  1.0000
  C   C659      1.0  0.94857  0.30692  0.63369  1.0000
  C   C660      1.0  0.96459  0.29486  0.63840  1.0000
  C   C661      1.0  0.97766  0.28734  0.62676  1.0000
  H   H660      1.0  0.91838  0.44596  0.52898  1.0000
  C   C662      1.0  0.95764  0.30302  0.60566  1.0000
  H   H661      1.0  0.85099  0.05268  0.70223  1.0000
  C   C663      1.0  0.90631  0.12615  0.70661  1.0000
  H   H662      1.0  0.95525  0.30620  0.59303  1.0000
  C   C664      1.0  0.89822  0.43312  0.56362  1.0000
  C   C665      1.0  0.88645  0.44793  0.55656  1.0000
  C   C666      1.0  0.89609  0.47555  0.56030  1.0000
  H   H663      1.0  0.76320  0.49232  0.54230  1.0000
  C   C667      1.0  0.92931  0.47393  0.57840  1.0000
  C   C668      1.0  0.91975  0.44633  0.57460  1.0000
  H   H664      1.0  0.86974  0.43799  0.54810  1.0000
  H   H665      1.0  0.88678  0.48657  0.55476  1.0000
  H   H666      1.0  0.94588  0.48388  0.58696  1.0000
  H   H667      1.0  0.92905  0.43532  0.58016  1.0000
  H   H668      1.0  0.93100  0.11245  0.69427  1.0000
  C   C669      1.0  0.52447  0.43988  0.56963  1.0000
  C   C670      1.0  0.54181  0.42852  0.56811  1.0000
  C   C671      1.0  0.56974  0.44524  0.56691  1.0000
  C   C672      1.0  0.58080  0.47351  0.56713  1.0000
  C   C673      1.0  0.80474  0.07363  0.61715  1.0000
  C   C674      1.0  0.53552  0.46811  0.56993  1.0000
  H   H669      1.0  0.53380  0.40690  0.56794  1.0000
  H   H670      1.0  0.58294  0.43620  0.56586  1.0000
  H   H671      1.0  0.81419  0.06446  0.60981  1.0000
  H   H672      1.0  0.52244  0.47724  0.57118  1.0000
  C   C675      1.0  0.72525  0.03901  0.63773  1.0000
  H   H673      1.0  0.59596  0.16968  0.58541  1.0000
  C   C676      1.0  0.72785  0.03458  0.60863  1.0000
  C   C677      1.0  0.71382  0.04940  0.60583  1.0000
  C   C678      1.0  0.70515  0.05865  0.61907  1.0000
  C   C679      1.0  0.71060  0.05322  0.63491  1.0000
  C   C680      1.0  0.86664  0.07331  0.70339  1.0000
  H   H674      1.0  0.69412  0.06985  0.61713  1.0000
  H   H675      1.0  0.51840  0.03048  0.55836  1.0000
  C   C681      1.0  0.95354  0.41147  0.53110  1.0000
  N   N57       1.0  0.66041  0.18661  0.57691  1.0000
  C   C682      1.0  0.95570  0.45925  0.54208  1.0000
  C   C683      1.0  0.76534  0.20550  0.56435  1.0000
  C   C684      1.0  0.77948  0.19689  0.55412  1.0000
  C   C685      1.0  0.80596  0.21488  0.54980  1.0000
  C   C686      1.0  0.81880  0.24170  0.55566  1.0000
  C   C687      1.0  0.80477  0.25023  0.56605  1.0000
  C   C688      1.0  0.77825  0.23227  0.57031  1.0000
  H   H676      1.0  0.76994  0.17647  0.54937  1.0000
  H   H677      1.0  0.81648  0.20800  0.54173  1.0000
  H   H678      1.0  0.81415  0.27077  0.57059  1.0000
  H   H679      1.0  0.76760  0.23928  0.57819  1.0000
  C   C689      1.0  0.53841  0.11437  0.56673  1.0000
  C   C690      1.0  0.53352  0.09440  0.57802  1.0000
  C   C691      1.0  0.55345  0.08662  0.58180  1.0000
  C   C692      1.0  0.57833  0.09823  0.57414  1.0000
  C   C693      1.0  0.58302  0.11780  0.56258  1.0000
  C   C694      1.0  0.56335  0.12608  0.55911  1.0000
  S   S231      1.0  0.61632  0.49361  0.56574  1.0000
  H   H680      1.0  0.54959  0.07155  0.59081  1.0000
  H   H681      1.0  0.60202  0.12699  0.55660  1.0000
  H   H682      1.0  0.78192  0.12810  0.65089  1.0000
  S   S232      1.0  0.98973  0.20980  0.65154  1.0000
  S   S233      1.0  0.73369  0.03502  0.65795  1.0000
  C   C695      1.0  0.79433  0.08518  0.64327  1.0000
  C   C696      1.0  0.91760  0.48878  0.57129  1.0000
  N   N58       1.0  0.87939  0.25612  0.59910  1.0000
  C   C697      1.0  0.88879  0.25476  0.61422  1.0000
  C   C698      1.0  0.88669  0.24634  0.58594  1.0000
  C   C699      1.0  0.90624  0.24366  0.61645  1.0000
  C   C700      1.0  0.90439  0.23541  0.58770  1.0000
  C   C701      1.0  0.91423  0.23412  0.60307  1.0000
  C   C702      1.0  0.86066  0.26730  0.59722  1.0000
  H   H683      1.0  0.88336  0.26296  0.62461  1.0000
  H   H684      1.0  0.87905  0.24718  0.57394  1.0000
  H   H685      1.0  0.91421  0.24323  0.62841  1.0000
  H   H686      1.0  0.91053  0.22817  0.57719  1.0000
  H   H687      1.0  0.92834  0.22613  0.60464  1.0000
  H   H688      1.0  0.85855  0.27184  0.58442  1.0000
  H   H689      1.0  0.84051  0.25274  0.60134  1.0000
  H   H690      1.0  0.86799  0.28650  0.60428  1.0000
  H   H691      1.0  0.70122  0.21466  0.57343  1.0000
  H   H692      1.0  0.98412  0.21979  0.72312  1.0000
  C   C703      1.0  0.78999  0.08503  0.60989  1.0000
  H   H693      1.0  0.70116  0.05014  0.55018  1.0000
  H   H694      1.0  0.54204  0.09518  0.52527  1.0000
  C   C704      1.0  0.91135  0.10654  0.69915  1.0000
  H   H695      1.0  0.73454  0.02719  0.59847  1.0000
  H   H696      1.0  0.87877  0.04292  0.68498  1.0000
  H   H697      1.0  0.50568  0.09846  0.50968  1.0000
  H   H698      1.0  0.84091  0.08651  0.71526  1.0000
  H   H699      1.0  0.79574  0.08481  0.65631  1.0000
  H   H700      1.0  0.91498  0.38368  0.51049  1.0000
  N   N59       1.0  0.77967  0.09605  0.63608  1.0000
  C   C705      1.0  0.88082  0.11904  0.71235  1.0000
  H   H701      1.0  0.64656  0.13773  0.60415  1.0000
  C   C706      1.0  0.64376  0.15201  0.59667  1.0000
  H   H702      1.0  0.97968  0.38190  0.60041  1.0000
  C   C707      1.0  0.61915  0.15230  0.59626  1.0000
  H   H703      1.0  0.68336  0.16902  0.58718  1.0000
  C   C708      1.0  0.99304  0.23046  0.73434  1.0000
  H   H704      1.0  0.75072  0.11019  0.63943  1.0000
  C   C709      1.0  0.73375  0.02959  0.62447  1.0000
  H   H705      1.0  0.92180  0.14696  0.70735  1.0000
  H   H706      1.0  0.96752  0.29218  0.65107  1.0000
  S   S234      1.0  0.99837  0.20769  0.69064  1.0000
  H   H707      1.0  0.98372  0.28530  0.60126  1.0000
  C   C710      1.0  0.76679  0.10805  0.64622  1.0000
  C   C711      1.0  0.51324  0.04260  0.55035  1.0000
  H   H708      1.0  0.99034  0.42340  0.54483  1.0000
  H   H709      1.0  0.60276  0.13818  0.60338  1.0000
  C   C712      1.0  0.62806  0.02463  0.51699  1.0000
  H   H710      1.0  0.95438  0.35095  0.51065  1.0000
  H   H711      1.0  0.87650  0.13424  0.71775  1.0000
  H   H712      1.0  0.96975  0.19644  0.74906  1.0000
  C   C713      1.0  0.99391  0.37283  0.52140  1.0000
  H   H713      1.0  0.55366  0.06615  0.54245  1.0000
  H   H714      1.0  0.62731  0.02909  0.52964  1.0000
  C   C714      1.0  0.97491  0.42882  0.54120  1.0000
  S   S235      1.0  0.80673  0.02979  0.72335  1.0000
  C   C715      1.0  0.98483  0.21728  0.74909  1.0000
  H   H715      1.0  0.76561  0.10452  0.61386  1.0000
  H   H716      1.0  0.91065  0.06867  0.67945  1.0000
  C   C716      1.0  0.80700  0.07374  0.63393  1.0000
  H   H717      1.0  0.51457  0.08530  0.58407  1.0000
  H   H718      1.0  0.81825  0.06474  0.63968  1.0000
  C   C717      1.0  0.97589  0.45281  0.54677  1.0000
  H   H719      1.0  0.70555  0.04449  0.52096  1.0000
  H   H720      1.0  0.78754  0.08454  0.59685  1.0000
  C   C718      1.0  0.78920  0.01662  0.74130  1.0000
  C   C719      1.0  0.89737  0.06022  0.68989  1.0000
  C   C720      1.0  0.99308  0.37328  0.60266  1.0000
  C   C721      1.0  0.97381  0.29118  0.61037  1.0000
  C   C722      1.0  0.68205  0.20388  0.56637  1.0000
  C   C723      1.0  0.91090  0.39914  0.51652  1.0000
  C   C724      1.0  0.61533  0.16991  0.58611  1.0000
  H   H721      1.0  0.95277  0.39269  0.52705  1.0000
  H   H722      1.0  0.89310  0.38868  0.52417  1.0000
  H   H723      1.0  0.93907  0.31327  0.64282  1.0000
  C   C725      1.0  0.56339  0.48480  0.56859  1.0000
  Fe  Fe120     1.0  0.76083  0.01731  0.66663  1.0000
  C   C726      1.0  0.66432  0.16947  0.58690  1.0000
  Fe  Fe121     1.0  0.79115  0.01477  0.69779  1.0000
  H   H724      1.0  0.75702  0.09487  0.65658  1.0000
  C   C727      1.0  0.69067  0.02778  0.52754  1.0000
  N   N60       1.0  0.93381  0.41792  0.52657  1.0000
  C   C728      1.0  0.68814  0.03124  0.54404  1.0000
  C   C729      1.0  0.52633  0.07891  0.53165  1.0000
  C   C730      1.0  0.53304  0.06261  0.54137  1.0000
  C   C731      1.0  0.97554  0.36250  0.50840  1.0000
  H   H725      1.0  0.95579  0.47746  0.54671  1.0000
  C   C732      1.0  0.64650  0.04437  0.50715  1.0000
  H   H726      1.0  0.51249  0.38328  0.51780  1.0000
  C   C733      1.0  0.50176  0.39501  0.51869  1.0000
  H   H727      1.0  0.90606  0.41002  0.50698  1.0000
  N   N61       1.0  0.67425  0.00396  0.51975  1.0000
  H   H728      1.0  0.66638  0.01290  0.56537  1.0000
  H   H729      1.0  0.73468  0.49251  0.57340  1.0000
  C   C734      1.0  0.51259  0.41834  0.52843  1.0000
  H   H730      1.0  0.98977  0.37416  0.62849  1.0000
  H   H731      1.0  0.99202  0.46621  0.55488  1.0000
  C   C735      1.0  0.66856  0.01027  0.55256  1.0000
  H   H732      1.0  0.69030  0.49080  0.57721  1.0000
  H   H733      1.0  0.50637  0.45077  0.53799  1.0000
  C   C736      1.0  0.70144  0.49925  0.56638  1.0000
  C   C737      1.0  0.72649  0.50031  0.56415  1.0000
  N   N62       1.0  0.50050  0.07498  0.53062  1.0000
  H   H734      1.0  0.50027  0.40896  0.62280  1.0000
  C   C738      1.0  0.99888  0.36906  0.61848  1.0000
  H   H735      1.0  0.99904  0.36828  0.57744  1.0000
  C   C739      1.0  0.67507  0.00658  0.94749  1.0000
  N   N63       1.0  0.63793  0.48523  0.91655  1.0000
  Fe  Fe122     1.0  0.92795  0.33944  0.96468  1.0000
  S   S236      1.0  0.95631  0.36326  0.94558  1.0000
  S   S237      1.0  0.94058  0.34226  0.99134  1.0000
  Fe  Fe123     1.0  0.88077  0.31005  0.94005  1.0000
  S   S238      1.0  0.90661  0.33336  0.91940  1.0000
  S   S239      1.0  0.83847  0.27798  0.93173  1.0000
  Fe  Fe124     1.0  0.93848  0.32490  0.93055  1.0000
  S   S240      1.0  0.96001  0.30241  0.92011  1.0000
  Fe  Fe125     1.0  0.92198  0.37003  0.93612  1.0000
  S   S241      1.0  0.93448  0.41375  0.92896  1.0000
  S   S242      1.0  0.91216  0.30039  0.95050  1.0000
  S   S243      1.0  0.89408  0.34748  0.95599  1.0000
  C   C740      1.0  0.71145  0.02528  0.83321  1.0000
  H   H736      1.0  0.71736  0.03533  0.96697  1.0000
  Fe  Fe126     1.0  0.64968  0.10230  0.94639  1.0000
  S   S244      1.0  0.67893  0.11239  0.96759  1.0000
  S   S245      1.0  0.61731  0.11580  0.95068  1.0000
  Fe  Fe127     1.0  0.67948  0.07778  0.92716  1.0000
  S   S246      1.0  0.71005  0.08659  0.94700  1.0000
  S   S247      1.0  0.67677  0.04977  0.90614  1.0000
  Fe  Fe128     1.0  0.67534  0.07120  0.96382  1.0000
  S   S248      1.0  0.67755  0.04286  0.98276  1.0000
  Fe  Fe129     1.0  0.71161  0.12725  0.94927  1.0000
  S   S249      1.0  0.75161  0.16340  0.95726  1.0000
  S   S250      1.0  0.64432  0.06008  0.94386  1.0000
  S   S251      1.0  0.68277  0.11964  0.92816  1.0000
  H   H737      1.0  0.76473  0.06090  0.95939  1.0000
  H   H738      1.0  0.69215  0.01001  0.82769  1.0000
  Fe  Fe130     1.0  0.96801  0.19894  0.83891  1.0000
  S   S252      1.0  0.92708  0.17106  0.84822  1.0000
  S   S253      1.0  0.96858  0.23249  0.82438  1.0000
  Fe  Fe131     1.0  0.77689  0.02354  0.84578  1.0000
  H   H739      1.0  0.65830  0.18993  0.92343  1.0000
  S   S254      1.0  0.76961  0.05329  0.86145  1.0000
  Fe  Fe132     1.0  0.82512  0.02634  0.82770  1.0000
  S   S255      1.0  0.86879  0.05060  0.82179  1.0000
  S   S256      1.0  0.79401  0.03910  0.82140  1.0000
  C   C741      1.0  0.74818  0.06814  0.82499  1.0000
  C   C742      1.0  0.61987  0.45559  0.93882  1.0000
  C   C743      1.0  0.91154  0.13719  0.84154  1.0000
  C   C744      1.0  0.88419  0.12105  0.84428  1.0000
  C   C745      1.0  0.87103  0.09423  0.83860  1.0000
  C   C746      1.0  0.88524  0.08337  0.83025  1.0000
  C   C747      1.0  0.91268  0.09940  0.82771  1.0000
  C   C748      1.0  0.92579  0.12629  0.83328  1.0000
  H   H740      1.0  0.87310  0.12932  0.85075  1.0000
  H   H741      1.0  0.84988  0.08198  0.84066  1.0000
  H   H742      1.0  0.92377  0.09107  0.82130  1.0000
  H   H743      1.0  0.94693  0.13847  0.83129  1.0000
  C   C749      1.0  0.73668  0.03394  0.92269  1.0000
  H   H744      1.0  0.82411  0.04003  0.75645  1.0000
  C   C750      1.0  0.70309  0.05102  0.89410  1.0000
  C   C751      1.0  0.69890  0.02805  0.88495  1.0000
  C   C752      1.0  0.71931  0.02795  0.87538  1.0000
  C   C753      1.0  0.74388  0.05121  0.87437  1.0000
  C   C754      1.0  0.74806  0.07414  0.88354  1.0000
  C   C755      1.0  0.72795  0.07398  0.89351  1.0000
  S   S257      1.0  0.49942  0.08641  0.92278  1.0000
  H   H745      1.0  0.51061  0.07283  0.96632  1.0000
  C   C756      1.0  0.72270  0.03449  0.95454  1.0000
  H   H746      1.0  0.73151  0.09178  0.90049  1.0000
  H   H747      1.0  0.74183  0.03389  0.91012  1.0000
  H   H748      1.0  0.71588  0.00996  0.86867  1.0000
  H   H749      1.0  0.77722  0.06022  0.93074  1.0000
  N   N64       1.0  0.99418  0.31630  0.97651  1.0000
  H   H750      1.0  0.71488  0.01121  0.80280  1.0000
  C   C757      1.0  0.53222  0.09500  0.93073  1.0000
  C   C758      1.0  0.54345  0.11207  0.94424  1.0000
  C   C759      1.0  0.56935  0.11802  0.95014  1.0000
  C   C760      1.0  0.58442  0.10689  0.94276  1.0000
  C   C761      1.0  0.57313  0.08967  0.92932  1.0000
  C   C762      1.0  0.54733  0.08396  0.92330  1.0000
  H   H751      1.0  0.53229  0.12093  0.95005  1.0000
  H   H752      1.0  0.57783  0.13145  0.96051  1.0000
  H   H753      1.0  0.58440  0.08103  0.92341  1.0000
  H   H754      1.0  0.53904  0.07088  0.91277  1.0000
  C   C763      1.0  0.97209  0.30131  0.90059  1.0000
  C   C764      1.0  0.95154  0.47760  0.96397  1.0000
  H   H755      1.0  0.80081  0.02311  0.78221  1.0000
  H   H756      1.0  0.67978  0.01012  0.88539  1.0000
  C   C765      1.0  0.78990  0.01610  0.77082  1.0000
  S   S258      1.0  0.98395  0.21305  0.78198  1.0000
  H   H757      1.0  0.97341  0.26427  0.90524  1.0000
  H   H758      1.0  0.65529  0.15724  0.92780  1.0000
  H   H759      1.0  0.59227  0.49204  0.95414  1.0000
  C   C766      1.0  0.81545  0.24548  0.93869  1.0000
  C   C767      1.0  0.79278  0.22897  0.92895  1.0000
  C   C768      1.0  0.77349  0.20348  0.93413  1.0000
  C   C769      1.0  0.77638  0.19426  0.94929  1.0000
  C   C770      1.0  0.79909  0.21072  0.95900  1.0000
  C   C771      1.0  0.81856  0.23604  0.95373  1.0000
  H   H760      1.0  0.79013  0.23600  0.91729  1.0000
  H   H761      1.0  0.75621  0.19116  0.92650  1.0000
  H   H762      1.0  0.80158  0.20391  0.97077  1.0000
  H   H763      1.0  0.83573  0.24844  0.96142  1.0000
  C   C772      1.0  0.91928  0.43539  0.93038  1.0000
  C   C773      1.0  0.89316  0.42657  0.93573  1.0000
  C   C774      1.0  0.88227  0.44467  0.93686  1.0000
  C   C775      1.0  0.89746  0.47198  0.93303  1.0000
  C   C776      1.0  0.92358  0.48082  0.92769  1.0000
  C   C777      1.0  0.93426  0.46257  0.92622  1.0000
  H   H764      1.0  0.88126  0.40573  0.93883  1.0000
  H   H765      1.0  0.78134  0.10466  0.81699  1.0000
  C   C778      1.0  0.57415  0.48659  0.93042  1.0000
  H   H766      1.0  0.95440  0.46963  0.92194  1.0000
  H   H767      1.0  0.51607  0.04776  0.97696  1.0000
  H   H768      1.0  0.76701  0.09224  0.88292  1.0000
  C   C779      1.0  0.89043  0.48306  0.97580  1.0000
  H   H769      1.0  0.59778  0.45349  0.91704  1.0000
  C   C780      1.0  0.53437  0.43622  0.94177  1.0000
  C   C781      1.0  0.55604  0.45388  0.95183  1.0000
  C   C782      1.0  0.57572  0.47887  0.94625  1.0000
  C   C783      1.0  0.98663  0.31607  0.95947  1.0000
  C   C784      1.0  0.55246  0.46896  0.92038  1.0000
  C   C785      1.0  0.53269  0.44403  0.92599  1.0000
  H   H770      1.0  0.55769  0.44814  0.96406  1.0000
  C   C786      1.0  0.99574  0.37453  0.98973  1.0000
  S   S259      1.0  0.81020  0.01376  0.85259  1.0000
  N   N65       1.0  0.91272  0.14494  0.79728  1.0000
  C   C787      1.0  0.88709  0.12495  0.79904  1.0000
  C   C788      1.0  0.93136  0.13970  0.78990  1.0000
  C   C789      1.0  0.87956  0.09884  0.79330  1.0000
  C   C790      1.0  0.92460  0.11372  0.78422  1.0000
  C   C791      1.0  0.89854  0.09317  0.78603  1.0000
  C   C792      1.0  0.92082  0.17207  0.80372  1.0000
  H   H771      1.0  0.87259  0.12883  0.80545  1.0000
  H   H772      1.0  0.64059  0.17236  0.94082  1.0000
  H   H773      1.0  0.85956  0.08273  0.79531  1.0000
  H   H774      1.0  0.74636  0.03911  0.78228  1.0000
  H   H775      1.0  0.64681  0.46317  0.95928  1.0000
  H   H776      1.0  0.92800  0.18688  0.79387  1.0000
  H   H777      1.0  0.90434  0.17367  0.80998  1.0000
  H   H778      1.0  0.93737  0.17747  0.81274  1.0000
  H   H779      1.0  0.51624  0.43081  0.91806  1.0000
  C   C793      1.0  0.76638  0.08441  0.81362  1.0000
  C   C794      1.0  0.97711  0.32120  0.88921  1.0000
  C   C795      1.0  0.97724  0.27978  0.89655  1.0000
  C   C796      1.0  0.51135  0.05349  0.96500  1.0000
  H   H780      1.0  0.93965  0.10950  0.77879  1.0000
  H   H781      1.0  0.88900  0.48116  0.98910  1.0000
  C   C797      1.0  0.72888  0.03199  0.80584  1.0000
  C   C798      1.0  0.66575  0.49047  0.94000  1.0000
  H   H782      1.0  0.99080  0.26121  0.87845  1.0000
  C   C799      1.0  0.75654  0.04873  0.93427  1.0000
  N   N66       1.0  0.72955  0.04240  0.82095  1.0000
  H   H783      1.0  0.95714  0.46183  0.96154  1.0000
  H   H784      1.0  0.89316  0.07268  0.78225  1.0000
  C   C800      1.0  0.76556  0.07408  0.79809  1.0000
  H   H785      1.0  0.55094  0.47459  0.90810  1.0000
  H   H786      1.0  0.64361  0.48565  0.89129  1.0000
  H   H787      1.0  0.91137  0.44992  0.97018  1.0000
  C   C801      1.0  0.74672  0.04771  0.79416  1.0000
  H   H788      1.0  0.97343  0.33799  0.89217  1.0000
  C   C802      1.0  0.74956  0.04904  0.95032  1.0000
  C   C803      1.0  0.92557  0.47095  0.96878  1.0000
  C   C804      1.0  0.97472  0.30498  0.98772  1.0000
  H   H789      1.0  0.74937  0.07606  0.83717  1.0000
  N   N67       1.0  0.90770  0.25377  0.88855  1.0000
  C   C805      1.0  0.90580  0.22866  0.88959  1.0000
  C   C806      1.0  0.91819  0.26884  0.87517  1.0000
  C   C807      1.0  0.91515  0.21827  0.87719  1.0000
  C   C808      1.0  0.92776  0.25910  0.86258  1.0000
  C   C809      1.0  0.92630  0.23370  0.86367  1.0000
  C   C810      1.0  0.89751  0.26411  0.90159  1.0000
  H   H790      1.0  0.89724  0.21662  0.90012  1.0000
  H   H791      1.0  0.91991  0.28884  0.87437  1.0000
  H   H792      1.0  0.91396  0.19846  0.87804  1.0000
  H   H793      1.0  0.93704  0.27150  0.85227  1.0000
  H   H794      1.0  0.93403  0.22605  0.85413  1.0000
  H   H795      1.0  0.90229  0.25851  0.91360  1.0000
  H   H796      1.0  0.90712  0.28644  0.90174  1.0000
  H   H797      1.0  0.87546  0.25613  0.90021  1.0000
  N   N68       1.0  0.68298  0.18874  0.94313  1.0000
  C   C811      1.0  0.68391  0.17749  0.95753  1.0000
  C   C812      1.0  0.70529  0.21040  0.93770  1.0000
  C   C813      1.0  0.70750  0.18814  0.96701  1.0000
  C   C814      1.0  0.72914  0.22175  0.94697  1.0000
  C   C815      1.0  0.73017  0.21050  0.96171  1.0000
  C   C816      1.0  0.65818  0.17661  0.93325  1.0000
  H   H798      1.0  0.66643  0.15994  0.96166  1.0000
  H   H799      1.0  0.70489  0.21889  0.92609  1.0000
  H   H800      1.0  0.70852  0.17858  0.97812  1.0000
  S   S260      1.0  0.88300  0.49409  0.93559  1.0000
  H   H801      1.0  0.77981  0.08624  0.78921  1.0000
  N   N69       1.0  0.91782  0.49050  0.97090  1.0000
  H   H802      1.0  0.72114  0.01484  0.83975  1.0000
  C   C817      1.0  0.64438  0.46912  0.94720  1.0000
  S   S261      1.0  0.51042  0.40475  0.94961  1.0000
  H   H803      1.0  0.74885  0.21841  0.96871  1.0000
  H   H804      1.0  0.96642  0.29924  0.95651  1.0000
  H   H805      1.0  0.86194  0.43747  0.94083  1.0000
  H   H806      1.0  0.88420  0.49827  0.97190  1.0000
  H   H807      1.0  0.50281  0.44135  0.97384  1.0000
  H   H808      1.0  0.74701  0.23862  0.94257  1.0000
  H   H809      1.0  0.95175  0.15561  0.78868  1.0000
  C   C818      1.0  0.61705  0.46383  0.92335  1.0000
  H   H810      1.0  0.60296  0.43913  0.94433  1.0000
  H   H811      1.0  0.62296  0.03369  0.98924  1.0000
  H   H812      1.0  0.87592  0.46381  0.96980  1.0000
  H   H813      1.0  0.95367  0.29589  0.98411  1.0000
  C   C819      1.0  0.80305  0.02565  0.75621  1.0000
  N   N70       1.0  0.70332  0.02015  0.94308  1.0000
  C   C820      1.0  0.70998  0.01991  0.92730  1.0000
  C   C821      1.0  0.99273  0.29816  0.87006  1.0000
  H   H814      1.0  0.99193  0.33549  0.86549  1.0000
  H   H815      1.0  0.61328  0.48682  0.89710  1.0000
  C   C822      1.0  0.65206  0.02045  0.99547  1.0000
  C   C823      1.0  0.62722  0.02019  0.99650  1.0000
  C   C824      1.0  0.98720  0.27803  0.88134  1.0000
  H   H816      1.0  0.70679  0.03737  0.84214  1.0000
  H   H817      1.0  0.98639  0.33521  0.95665  1.0000
  H   H818      1.0  0.52808  0.05658  0.95693  1.0000
  C   C825      1.0  0.98766  0.31975  0.87410  1.0000
  C   C826      1.0  0.63476  0.49371  0.90033  1.0000
  H   H819      1.0  0.69451  0.00931  0.91812  1.0000
  H   H820      1.0  0.66658  0.02083  0.94652  1.0000
  S   S262      1.0  0.99407  0.19073  0.82208  1.0000
  H   H821      1.0  0.99272  0.37469  0.97683  1.0000
  C   C827      1.0  0.99573  0.23089  0.76387  1.0000
  C   C828      1.0  0.66217  0.49827  0.92456  1.0000
  C   C829      1.0  0.97365  0.36135  0.99957  1.0000
  Fe  Fe133     1.0  0.99681  0.22610  0.80821  1.0000
  H   H822      1.0  0.68494  0.50122  0.94640  1.0000
  C   C830      1.0  0.70497  0.67189  0.00113  1.0000
  H   H823      1.0  0.83768  0.93141  0.15323  1.0000
  Fe  Fe134     1.0  0.97346  0.76707  0.17052  1.0000
  S   S263      1.0  0.92779  0.74579  0.16920  1.0000
  H   H824      1.0  0.67729  0.88510  0.10239  1.0000
  Fe  Fe135     1.0  0.79450  0.98355  0.17993  1.0000
  S   S264      1.0  0.74985  0.96670  0.18006  1.0000
  S   S265      1.0  0.81316  0.95668  0.18548  1.0000
  H   H825      1.0  0.72530  0.71914  0.20200  1.0000
  Fe  Fe136     1.0  0.80797  0.78591  0.17145  1.0000
  S   S266      1.0  0.77802  0.75305  0.18691  1.0000
  S   S267      1.0  0.85280  0.80274  0.16732  1.0000
  Fe  Fe137     1.0  0.77043  0.81090  0.16574  1.0000
  S   S268      1.0  0.73834  0.78081  0.18078  1.0000
  S   S269      1.0  0.76355  0.84174  0.15207  1.0000
  Fe  Fe138     1.0  0.77117  0.78577  0.19834  1.0000
  S   S270      1.0  0.76799  0.79665  0.22438  1.0000
  Fe  Fe139     1.0  0.74709  0.75050  0.16797  1.0000
  S   S271      1.0  0.70816  0.71378  0.16030  1.0000
  S   S272      1.0  0.80266  0.81859  0.18417  1.0000
  S   S273      1.0  0.77753  0.78056  0.15171  1.0000
  Fe  Fe140     1.0  0.55929  0.63580  0.06949  1.0000
  S   S274      1.0  0.55376  0.66054  0.05005  1.0000
  Fe  Fe141     1.0  0.61837  0.67920  0.07651  1.0000
  S   S275      1.0  0.61625  0.70557  0.05683  1.0000
  S   S276      1.0  0.66047  0.69804  0.08811  1.0000
  Fe  Fe142     1.0  0.57631  0.69667  0.06683  1.0000
  S   S277      1.0  0.56524  0.72939  0.07521  1.0000
  Fe  Fe143     1.0  0.59449  0.66737  0.04190  1.0000
  S   S278      1.0  0.60058  0.66158  0.01519  1.0000
  S   S279      1.0  0.57898  0.67124  0.08711  1.0000
  S   S280      1.0  0.59946  0.64175  0.06068  1.0000
  Fe  Fe144     1.0  0.59464  0.92273  0.08395  1.0000
  S   S281      1.0  0.61532  0.92275  0.06096  1.0000
  S   S282      1.0  0.61491  0.94345  0.10789  1.0000
  Fe  Fe145     1.0  0.53788  0.89211  0.06814  1.0000
  S   S283      1.0  0.55500  0.88954  0.04428  1.0000
  Fe  Fe146     1.0  0.58333  0.87918  0.05854  1.0000
  S   S284      1.0  0.59274  0.84606  0.04904  1.0000
  Fe  Fe147     1.0  0.58516  0.93288  0.04870  1.0000
  S   S285      1.0  0.58853  0.96477  0.03066  1.0000
  S   S286      1.0  0.56432  0.87878  0.08218  1.0000
  S   S287      1.0  0.56647  0.93580  0.07200  1.0000
  H   H826      1.0  0.64216  0.96745  0.13794  1.0000
  H   H827      1.0  0.72660  0.79253  0.13386  1.0000
  C   C831      1.0  0.61306  0.98495  0.01673  1.0000
  C   C832      1.0  0.69544  0.91832  0.15492  1.0000
  C   C833      1.0  0.83153  0.84825  0.14169  1.0000
  H   H828      1.0  0.55934  0.58295  0.04881  1.0000
  C   C834      1.0  0.76571  0.75376  0.24195  1.0000
  C   C835      1.0  0.57482  0.76243  0.06817  1.0000
  C   C836      1.0  0.56897  0.78004  0.07756  1.0000
  C   C837      1.0  0.57484  0.80591  0.07212  1.0000
  C   C838      1.0  0.58652  0.81446  0.05711  1.0000
  C   C839      1.0  0.59271  0.79700  0.04783  1.0000
  C   C840      1.0  0.58698  0.77121  0.05331  1.0000
  H   H829      1.0  0.55957  0.77350  0.08907  1.0000
  H   H830      1.0  0.56989  0.81901  0.07940  1.0000
  H   H831      1.0  0.60183  0.80339  0.03623  1.0000
  H   H832      1.0  0.59159  0.75797  0.04592  1.0000
  H   H833      1.0  0.70727  0.90374  0.12652  1.0000
  C   C841      1.0  0.63138  0.63494  0.01827  1.0000
  H   H834      1.0  0.63202  0.63884  0.03113  1.0000
  C   C842      1.0  0.69493  0.70933  0.14021  1.0000
  C   C843      1.0  0.71121  0.72261  0.12733  1.0000
  C   C844      1.0  0.70029  0.71846  0.11150  1.0000
  C   C845      1.0  0.67289  0.70141  0.10833  1.0000
  C   C846      1.0  0.65647  0.68824  0.12121  1.0000
  C   C847      1.0  0.66753  0.69201  0.13705  1.0000
  H   H835      1.0  0.73235  0.73572  0.12951  1.0000
  H   H836      1.0  0.71321  0.72861  0.10162  1.0000
  H   H837      1.0  0.63541  0.67485  0.11894  1.0000
  H   H838      1.0  0.65479  0.68143  0.14690  1.0000
  C   C848      1.0  0.50925  0.81715  0.05305  1.0000
  C   C849      1.0  0.85658  0.91834  0.17138  1.0000
  C   C850      1.0  0.70416  0.71427  0.20413  1.0000
  H   H839      1.0  0.70564  0.77562  0.24209  1.0000
  H   H840      1.0  0.76640  0.74450  0.23057  1.0000
  C   C851      1.0  0.79544  0.92390  0.17733  1.0000
  C   C852      1.0  0.79732  0.90280  0.18508  1.0000
  C   C853      1.0  0.78633  0.87713  0.17775  1.0000
  C   C854      1.0  0.77380  0.87257  0.16250  1.0000
  C   C855      1.0  0.77104  0.89342  0.15499  1.0000
  C   C856      1.0  0.78164  0.91903  0.16246  1.0000
  H   H841      1.0  0.80781  0.90646  0.19663  1.0000
  H   H842      1.0  0.78817  0.86113  0.18377  1.0000
  H   H843      1.0  0.76133  0.88999  0.14320  1.0000
  H   H844      1.0  0.78024  0.93530  0.15640  1.0000
  C   C857      1.0  0.70094  0.96914  0.12697  1.0000
  C   C858      1.0  0.69315  0.95861  0.11115  1.0000
  C   C859      1.0  0.66704  0.95095  0.10504  1.0000
  C   C860      1.0  0.64843  0.95390  0.11469  1.0000
  C   C861      1.0  0.65637  0.96495  0.13040  1.0000
  H   H845      1.0  0.69126  0.69240  0.20181  1.0000
  H   H846      1.0  0.66125  0.94247  0.09295  1.0000
  H   H847      1.0  0.72129  0.79378  0.10406  1.0000
  N   N71       1.0  0.52053  0.80425  0.04440  1.0000
  H   H848      1.0  0.86210  0.93594  0.17914  1.0000
  H   H849      1.0  0.61493  0.89235  0.12764  1.0000
  C   C862      1.0  0.90722  0.76188  0.16799  1.0000
  C   C863      1.0  0.91805  0.78978  0.16686  1.0000
  C   C864      1.0  0.90102  0.80185  0.16655  1.0000
  C   C865      1.0  0.87307  0.78626  0.16752  1.0000
  C   C866      1.0  0.86223  0.75837  0.16873  1.0000
  C   C867      1.0  0.87925  0.74626  0.16889  1.0000
  H   H850      1.0  0.93952  0.80202  0.16618  1.0000
  H   H851      1.0  0.90960  0.82343  0.16556  1.0000
  H   H852      1.0  0.84077  0.74612  0.16941  1.0000
  H   H853      1.0  0.87070  0.72465  0.16974  1.0000
  H   H854      1.0  0.65582  0.61472  0.02010  1.0000
  C   C868      1.0  0.94657  0.74706  0.21388  1.0000
  H   H855      1.0  0.64304  0.73664  0.13639  1.0000
  N   N72       1.0  0.55371  0.58813  0.02379  1.0000
  H   H856      1.0  0.59056  0.56426  0.04404  1.0000
  H   H857      1.0  0.69481  0.93662  0.15965  1.0000
  C   C869      1.0  0.74935  0.99967  0.23713  1.0000
  C   C870      1.0  0.83446  0.89240  0.14728  1.0000
  C   C871      1.0  0.58840  0.56654  0.01811  1.0000
  C   C872      1.0  0.94794  0.81435  0.21538  1.0000
  H   H858      1.0  0.69798  0.72489  0.19505  1.0000
  H   H859      1.0  0.64205  0.97154  0.02290  1.0000
  C   C873      1.0  0.70383  0.74710  0.22381  1.0000
  H   H860      1.0  0.96873  0.75569  0.21376  1.0000
  H   H861      1.0  0.88386  0.77552  0.20184  1.0000
  N   N73       1.0  0.93822  0.76807  0.21252  1.0000
  H   H862      1.0  0.93851  0.73263  0.20343  1.0000
  C   C874      1.0  0.97937  0.63772  0.04102  1.0000
  C   C875      1.0  0.61740  0.64378  0.00790  1.0000
  H   H863      1.0  0.71676  0.92464  0.15210  1.0000
  C   C876      1.0  0.77121  0.99435  0.23813  1.0000
  C   C877      1.0  0.64382  0.88672  0.11358  1.0000
  C   C878      1.0  0.65218  0.90420  0.14100  1.0000
  H   H864      1.0  0.64528  0.91033  0.15164  1.0000
  C   C879      1.0  0.63484  0.89385  0.12751  1.0000
  C   C880      1.0  0.66993  0.89003  0.11329  1.0000
  C   C881      1.0  0.70708  0.78097  0.12797  1.0000
  C   C882      1.0  0.66003  0.74960  0.12929  1.0000
  C   C883      1.0  0.68246  0.97248  0.13654  1.0000
  C   C884      1.0  0.50853  0.77084  0.06482  1.0000
  H   H865      1.0  0.82286  0.89013  0.13626  1.0000
  H   H866      1.0  0.81060  0.84110  0.13714  1.0000
  H   H867      1.0  0.83193  0.83138  0.14834  1.0000
  C   C885      1.0  0.92193  0.80764  0.21001  1.0000
  C   C886      1.0  0.53554  0.59972  0.02655  1.0000
  C   C887      1.0  0.68677  0.90054  0.12698  1.0000
  H   H868      1.0  0.57773  0.99200  0.05689  1.0000
  H   H869      1.0  0.93941  0.73615  0.22530  1.0000
  C   C888      1.0  0.95570  0.79413  0.21676  1.0000
  H   H870      1.0  0.51597  0.58741  0.02022  1.0000
  H   H871      1.0  0.77986  0.99140  0.22724  1.0000
  C   C889      1.0  0.69873  0.70519  0.23306  1.0000
  C   C890      1.0  0.62656  0.99663  0.07822  1.0000
  N   N74       1.0  0.83998  0.87224  0.15210  1.0000
  H   H872      1.0  0.84510  0.85283  0.13134  1.0000
  H   H873      1.0  0.68820  0.98067  0.14870  1.0000
  S   S288      1.0  0.73330  0.97601  0.13438  1.0000
  C   C891      1.0  0.84282  0.91579  0.15679  1.0000
  H   H874      1.0  0.61799  0.74445  0.10693  1.0000
  C   C892      1.0  0.76737  0.77941  0.24220  1.0000
  S   S289      1.0  0.53028  0.59106  0.07356  1.0000
  S   S290      1.0  0.99706  0.80587  0.18427  1.0000
  H   H875      1.0  0.52894  0.77092  0.04319  1.0000
  C   C893      1.0  0.68497  0.76478  0.13707  1.0000
  H   H876      1.0  0.67683  0.76625  0.09082  1.0000
  C   C894      1.0  0.64487  0.62126  0.01197  1.0000
  H   H877      1.0  0.53150  0.60053  0.03957  1.0000
  C   C895      1.0  0.63779  0.98498  0.01558  1.0000
  C   C896      1.0  0.85408  0.87483  0.16619  1.0000
  C   C897      1.0  0.70409  0.78169  0.11126  1.0000
  H   H878      1.0  0.63236  0.73201  0.09187  1.0000
  C   C898      1.0  0.67888  0.76615  0.10386  1.0000
  H   H879      1.0  0.62089  0.71395  0.10999  1.0000
  H   H880      1.0  0.85864  0.85891  0.16995  1.0000
  H   H881      1.0  0.87275  0.89940  0.18754  1.0000
  H   H882      1.0  0.89884  0.74066  0.20393  1.0000
  C   C899      1.0  0.70263  0.75538  0.23963  1.0000
  C   C900      1.0  0.91256  0.76126  0.20753  1.0000
  C   C901      1.0  0.97742  0.64320  0.02480  1.0000
  C   C902      1.0  0.57742  0.57422  0.00522  1.0000
  N   N75       1.0  0.65728  0.75036  0.11288  1.0000
  C   C903      1.0  0.63083  0.73454  0.10508  1.0000
  N   N76       1.0  0.67780  0.90754  0.14057  1.0000
  C   C904      1.0  0.53214  0.81447  0.02870  1.0000
  C   C905      1.0  0.86232  0.89777  0.17614  1.0000
  H   H883      1.0  0.68735  0.76344  0.15000  1.0000
  H   H884      1.0  0.68927  0.90303  0.16446  1.0000
  H   H885      1.0  0.70731  0.95597  0.10365  1.0000
  H   H886      1.0  0.70766  0.76120  0.21415  1.0000
  H   H887      1.0  0.91572  0.82312  0.20855  1.0000
  C   C906      1.0  0.90399  0.78089  0.20627  1.0000
  C   C907      1.0  0.51991  0.78114  0.04998  1.0000
  H   H888      1.0  0.63078  0.87935  0.10291  1.0000
  C   C908      1.0  0.56425  0.58049  0.03651  1.0000
  C   C909      1.0  0.58183  0.56972  0.03388  1.0000
  H   H889      1.0  0.60254  0.55885  0.01587  1.0000
  H   H890      1.0  0.71466  0.66434  0.00958  1.0000
  H   H891      1.0  0.51632  0.80640  0.01905  1.0000
  H   H892      1.0  0.97598  0.79952  0.22088  1.0000
  N   N77       1.0  0.70157  0.72215  0.22068  1.0000
  H   H893      1.0  0.96215  0.83510  0.21826  1.0000
  H   H894      1.0  0.96423  0.61939  0.04616  1.0000
  H   H895      1.0  0.69060  0.68896  0.01962  1.0000
  C   C910      1.0  0.69753  0.71286  0.24905  1.0000
  H   H896      1.0  0.54819  0.80890  0.02591  1.0000
  H   H897      1.0  0.98979  0.59199  0.00970  1.0000
  H   H898      1.0  0.69799  0.68584  0.23066  1.0000
  H   H899      1.0  0.54456  0.62059  0.02204  1.0000
  H   H900      1.0  0.99582  0.67074  0.00568  1.0000
  H   H901      1.0  0.54194  0.83679  0.02875  1.0000
  H   H902      1.0  0.50910  0.83512  0.04851  1.0000
  S   S291      1.0  0.99148  0.74469  0.18438  1.0000
  C   C911      1.0  0.56019  0.58526  0.00831  1.0000
  Fe  Fe148     1.0  0.75542  0.99300  0.15863  1.0000
  H   H903      1.0  0.96092  0.62903  0.01714  1.0000
  H   H904      1.0  0.61437  0.98782  0.08865  1.0000
  H   H905      1.0  0.58139  0.99814  0.07833  1.0000
  H   H906      1.0  0.50881  0.75290  0.06937  1.0000
  C   C912      1.0  0.69141  0.68562  0.00676  1.0000
  H   H907      1.0  0.65850  0.98901  0.08716  1.0000
  H   H908      1.0  0.49965  0.92525  0.06514  1.0000
  C   C913      1.0  0.65155  0.99713  0.07743  1.0000
  C   C914      1.0  0.99730  0.66683  0.01836  1.0000
  Fe  Fe149     1.0  0.97826  0.80068  0.33263  1.0000
  S   S292      1.0  0.96524  0.75638  0.33299  1.0000
  S   S293      1.0  0.95000  0.81887  0.32872  1.0000
  H   H909      1.0  0.65842  0.62889  0.42508  1.0000
  C   C915      1.0  0.81813  0.73923  0.31204  1.0000
  C   C916      1.0  0.63003  0.87715  0.42470  1.0000
  Fe  Fe150     1.0  0.78353  0.98088  0.34411  1.0000
  S   S294      1.0  0.74815  0.96938  0.32730  1.0000
  S   S295      1.0  0.79271  0.95051  0.35663  1.0000
  H   H910      1.0  0.69837  0.95466  0.40196  1.0000
  Fe  Fe151     1.0  0.79805  0.77939  0.34095  1.0000
  S   S296      1.0  0.75914  0.74135  0.33737  1.0000
  S   S297      1.0  0.83107  0.77409  0.35391  1.0000
  Fe  Fe152     1.0  0.77554  0.81332  0.32457  1.0000
  S   S298      1.0  0.73545  0.77771  0.31968  1.0000
  S   S299      1.0  0.77888  0.85124  0.31349  1.0000
  Fe  Fe153     1.0  0.73890  0.76590  0.34522  1.0000
  S   S300      1.0  0.70717  0.76116  0.36373  1.0000
  Fe  Fe154     1.0  0.75939  0.75690  0.31233  1.0000
  S   S301      1.0  0.75391  0.73278  0.28916  1.0000
  S   S302      1.0  0.77805  0.80320  0.35045  1.0000
  S   S303      1.0  0.79931  0.79323  0.31555  1.0000
  Fe  Fe155     1.0  0.60934  0.93305  0.42903  1.0000
  S   S304      1.0  0.61235  0.91928  0.45410  1.0000
  S   S305      1.0  0.64958  0.94650  0.41655  1.0000
  Fe  Fe156     1.0  0.54954  0.91670  0.43341  1.0000
  S   S306      1.0  0.54915  0.90110  0.45826  1.0000
  Fe  Fe157     1.0  0.58802  0.93903  0.46238  1.0000
  S   S307      1.0  0.59168  0.95881  0.48723  1.0000
  Fe  Fe158     1.0  0.57367  0.88235  0.44802  1.0000
  S   S308      1.0  0.57440  0.84457  0.45770  1.0000
  S   S309      1.0  0.58763  0.95574  0.43793  1.0000
  S   S310      1.0  0.57141  0.89513  0.42258  1.0000
  Fe  Fe159     1.0  0.59396  0.67600  0.45830  1.0000
  S   S311      1.0  0.58131  0.63888  0.44294  1.0000
  S   S312      1.0  0.61970  0.68395  0.48121  1.0000
  Fe  Fe160     1.0  0.56510  0.69870  0.43620  1.0000
  S   S313      1.0  0.54996  0.66219  0.41946  1.0000
  S   S314      1.0  0.55241  0.73013  0.42806  1.0000
  Fe  Fe161     1.0  0.54049  0.63708  0.44181  1.0000
  Fe  Fe162     1.0  0.59201  0.66726  0.42199  1.0000
  S   S315      1.0  0.61654  0.66311  0.40150  1.0000
  S   S316      1.0  0.55290  0.67342  0.45836  1.0000
  S   S317      1.0  0.60748  0.70463  0.43753  1.0000
  H   H911      1.0  0.65936  0.98511  0.49661  1.0000
  H   H912      1.0  0.62688  0.62991  0.42480  1.0000
  H   H913      1.0  0.95331  0.61415  0.48084  1.0000
  H   H914      1.0  0.69306  0.74295  0.43756  1.0000
  C   C917      1.0  0.78207  0.99296  0.25328  1.0000
  C   C918      1.0  0.80770  0.91989  0.28044  1.0000
  C   C919      1.0  0.66208  0.97899  0.37144  1.0000
  C   C920      1.0  0.61299  0.63226  0.48519  1.0000
  N   N78       1.0  0.62864  0.85555  0.43285  1.0000
  C   C921      1.0  0.61534  0.61223  0.49407  1.0000
  C   C922      1.0  0.56730  0.81255  0.44930  1.0000
  C   C923      1.0  0.55498  0.80356  0.43407  1.0000
  C   C924      1.0  0.55053  0.77827  0.42783  1.0000
  C   C925      1.0  0.55855  0.76178  0.43661  1.0000
  C   C926      1.0  0.57092  0.77081  0.45181  1.0000
  C   C927      1.0  0.57504  0.79592  0.45814  1.0000
  H   H915      1.0  0.54882  0.81603  0.42714  1.0000
  H   H916      1.0  0.54080  0.77144  0.41609  1.0000
  H   H917      1.0  0.57704  0.75833  0.45877  1.0000
  H   H918      1.0  0.58438  0.80254  0.46999  1.0000
  H   H919      1.0  0.76773  0.81103  0.25735  1.0000
  H   H920      1.0  0.51519  0.97572  0.43081  1.0000
  H   H921      1.0  0.64139  0.62609  0.44361  1.0000
  C   C928      1.0  0.68215  0.73335  0.37397  1.0000
  C   C929      1.0  0.67696  0.70679  0.37093  1.0000
  C   C930      1.0  0.65658  0.68552  0.37927  1.0000
  C   C931      1.0  0.64127  0.69051  0.39081  1.0000
  C   C932      1.0  0.64665  0.71708  0.39396  1.0000
  C   C933      1.0  0.66689  0.73830  0.38556  1.0000
  H   H922      1.0  0.68846  0.70261  0.36205  1.0000
  H   H923      1.0  0.65262  0.66506  0.37673  1.0000
  H   H924      1.0  0.63511  0.72129  0.40279  1.0000
  H   H925      1.0  0.67067  0.75873  0.38801  1.0000
  C   C934      1.0  0.76325  0.77737  0.27152  1.0000
  C   C935      1.0  0.76071  0.75142  0.27127  1.0000
  H   H926      1.0  0.81931  0.89006  0.28799  1.0000
  H   H927      1.0  0.76212  0.78659  0.28282  1.0000
  H   H928      1.0  0.59918  0.80711  0.40384  1.0000
  C   C936      1.0  0.78838  0.92263  0.34477  1.0000
  C   C937      1.0  0.79587  0.90396  0.35108  1.0000
  C   C938      1.0  0.79242  0.88148  0.34175  1.0000
  C   C939      1.0  0.78176  0.87786  0.32603  1.0000
  C   C940      1.0  0.77416  0.89645  0.31978  1.0000
  C   C941      1.0  0.77748  0.91880  0.32911  1.0000
  H   H929      1.0  0.80439  0.90692  0.36320  1.0000
  H   H930      1.0  0.79848  0.86727  0.34660  1.0000
  H   H931      1.0  0.76597  0.89375  0.30759  1.0000
  H   H932      1.0  0.77185  0.93317  0.32410  1.0000
  C   C942      1.0  0.66294  0.95921  0.39734  1.0000
  C   C943      1.0  0.64991  0.96797  0.38619  1.0000
  C   C944      1.0  0.83090  0.73090  0.32354  1.0000
  C   C945      1.0  0.53013  0.98113  0.44094  1.0000
  C   C946      1.0  0.70004  0.97200  0.37863  1.0000
  C   C947      1.0  0.68804  0.96129  0.39344  1.0000
  H   H933      1.0  0.63065  0.96662  0.38899  1.0000
  C   C948      1.0  0.63924  0.85932  0.44949  1.0000
  C   C949      1.0  0.82089  0.95774  0.29888  1.0000
  C   C950      1.0  0.53702  0.58740  0.48537  1.0000
  H   H934      1.0  0.82014  0.72008  0.33401  1.0000
  H   H935      1.0  0.79750  0.90901  0.26943  1.0000
  C   C951      1.0  0.91716  0.80636  0.33609  1.0000
  C   C952      1.0  0.90800  0.78794  0.34857  1.0000
  C   C953      1.0  0.88171  0.77861  0.35408  1.0000
  C   C954      1.0  0.86418  0.78707  0.34692  1.0000
  C   C955      1.0  0.87320  0.80510  0.33423  1.0000
  C   C956      1.0  0.89966  0.81492  0.32898  1.0000
  H   H936      1.0  0.92131  0.78128  0.35417  1.0000
  H   H937      1.0  0.87490  0.76469  0.36392  1.0000
  H   H938      1.0  0.85992  0.81179  0.32864  1.0000
  H   H939      1.0  0.90663  0.82920  0.31933  1.0000
  S   S318      1.0  0.51422  0.92064  0.42182  1.0000
  H   H940      1.0  0.60154  0.62700  0.47395  1.0000
  C   C957      1.0  0.68722  0.98113  0.36757  1.0000
  H   H941      1.0  0.97741  0.56201  0.45552  1.0000
  C   C958      1.0  0.62016  0.87415  0.40880  1.0000
  H   H942      1.0  0.69989  0.74480  0.26472  1.0000
  H   H943      1.0  0.90178  0.74504  0.29828  1.0000
  H   H944      1.0  0.76049  0.71974  0.25622  1.0000
  C   C959      1.0  0.62452  0.65871  0.49122  1.0000
  H   H945      1.0  0.60079  0.84618  0.38899  1.0000
  C   C960      1.0  0.61203  0.99238  0.49419  1.0000
  H   H946      1.0  0.90955  0.75757  0.31886  1.0000
  H   H947      1.0  0.84181  0.91473  0.31318  1.0000
  H   H948      1.0  0.63444  0.87373  0.45624  1.0000
  C   C961      1.0  0.53255  0.95880  0.46573  1.0000
  H   H949      1.0  0.61721  0.81360  0.43181  1.0000
  C   C962      1.0  0.84571  0.96144  0.32417  1.0000
  H   H950      1.0  0.60559  0.59166  0.48954  1.0000
  C   C963      1.0  0.80814  0.94427  0.28447  1.0000
  H   H951      1.0  0.79839  0.95261  0.27660  1.0000
  H   H952      1.0  0.87072  0.77277  0.28775  1.0000
  C   C964      1.0  0.90014  0.75901  0.30724  1.0000
  H   H953      1.0  0.62102  0.89138  0.40250  1.0000
  H   H954      1.0  0.63858  0.89685  0.43055  1.0000
  N   N79       1.0  0.72075  0.84516  0.34103  1.0000
  C   C965      1.0  0.72463  0.86920  0.34762  1.0000
  C   C966      1.0  0.72540  0.82752  0.35010  1.0000
  C   C967      1.0  0.73441  0.87651  0.36352  1.0000
  C   C968      1.0  0.73512  0.83411  0.36603  1.0000
  C   C969      1.0  0.73986  0.85889  0.37272  1.0000
  C   C970      1.0  0.71064  0.83771  0.32434  1.0000
  H   H955      1.0  0.72102  0.88328  0.34046  1.0000
  H   H956      1.0  0.72184  0.80826  0.34499  1.0000
  H   H957      1.0  0.73864  0.89614  0.36844  1.0000
  H   H958      1.0  0.73910  0.82006  0.37303  1.0000
  H   H959      1.0  0.74800  0.86453  0.38493  1.0000
  H   H960      1.0  0.68861  0.82471  0.32418  1.0000
  H   H961      1.0  0.71549  0.85577  0.31702  1.0000
  H   H962      1.0  0.72029  0.82669  0.31837  1.0000
  C   C971      1.0  0.85959  0.76086  0.29779  1.0000
  C   C972      1.0  0.83281  0.92344  0.30505  1.0000
  N   N80       1.0  0.87197  0.75261  0.30914  1.0000
  C   C973      1.0  0.82016  0.90939  0.29076  1.0000
  S   S319      1.0  0.70260  0.99689  0.34935  1.0000
  C   C974      1.0  0.98928  0.57146  0.48062  1.0000
  C   C975      1.0  0.99063  0.73900  0.25664  1.0000
  C   C976      1.0  0.76233  0.73978  0.25647  1.0000
  C   C977      1.0  0.85793  0.73761  0.32183  1.0000
  C   C978      1.0  0.77123  0.99683  0.26761  1.0000
  H   H963      1.0  0.86779  0.73142  0.33099  1.0000
  H   H964      1.0  0.79721  0.73428  0.31326  1.0000
  C   C979      1.0  0.97039  0.62080  0.48910  1.0000
  H   H965      1.0  0.86644  0.97709  0.32187  1.0000
  H   H966      1.0  0.53284  0.93837  0.48756  1.0000
  N   N81       1.0  0.65999  0.66547  0.43372  1.0000
  C   C980      1.0  0.65719  0.67739  0.44754  1.0000
  C   C981      1.0  0.67447  0.68083  0.42127  1.0000
  C   C982      1.0  0.66928  0.70540  0.44922  1.0000
  C   C983      1.0  0.68674  0.70890  0.42249  1.0000
  C   C984      1.0  0.68405  0.72122  0.43656  1.0000
  C   C985      1.0  0.64599  0.63612  0.43175  1.0000
  H   H967      1.0  0.64532  0.66529  0.45732  1.0000
  H   H968      1.0  0.67575  0.67139  0.41004  1.0000
  H   H969      1.0  0.66667  0.71467  0.46017  1.0000
  H   H970      1.0  0.69754  0.72092  0.41236  1.0000
  C   C986      1.0  0.60895  0.84885  0.40122  1.0000
  S   S320      1.0  0.50207  0.60158  0.45090  1.0000
  H   H971      1.0  0.66127  0.86701  0.44953  1.0000
  Fe  Fe163     1.0  0.99392  0.76448  0.31267  1.0000
  H   H972      1.0  0.91213  0.78007  0.30330  1.0000
  C   C987      1.0  0.83249  0.75428  0.29906  1.0000
  C   C988      1.0  0.99404  0.57072  0.46420  1.0000
  C   C989      1.0  0.76645  0.79121  0.25705  1.0000
  H   H973      1.0  0.84629  0.94747  0.33338  1.0000
  H   H974      1.0  0.55336  0.96448  0.46340  1.0000
  C   C990      1.0  0.61839  0.83080  0.42536  1.0000
  C   C991      1.0  0.60816  0.82701  0.40950  1.0000
  N   N82       1.0  0.83264  0.94706  0.30907  1.0000
  H   H975      1.0  0.82261  0.76094  0.29015  1.0000
  H   H976      1.0  0.62976  0.84023  0.45618  1.0000
  H   H977      1.0  0.71942  0.97359  0.37590  1.0000
  S   S321      1.0  0.98422  0.73897  0.28956  1.0000
  H   H978      1.0  0.83435  0.97116  0.32958  1.0000
  H   H979      1.0  0.79920  0.98917  0.25386  1.0000
  H   H980      1.0  0.96893  0.56355  0.48485  1.0000
  H   H981      1.0  0.53922  0.62576  0.48009  1.0000
  H   H982      1.0  0.52618  0.57788  0.47419  1.0000
  H   H983      1.0  0.65196  0.98600  0.36300  1.0000
  C   C992      1.0  0.54432  0.61434  0.48869  1.0000
  C   C993      1.0  0.52104  0.94411  0.47951  1.0000
  H   H984      1.0  0.54599  0.97641  0.43646  1.0000
  H   H985      1.0  0.98411  0.71769  0.25769  1.0000
  S   S322      1.0  0.78714  0.99661  0.28617  1.0000
  C   C994      1.0  0.99652  0.63525  0.48319  1.0000
  C   C995      1.0  0.69953  0.73814  0.25231  1.0000
  H   H986      1.0  0.82093  0.97659  0.30196  1.0000
  H   H987      1.0  0.50446  0.69051  0.44364  1.0000
  H   H988      1.0  0.69624  0.69982  0.25893  1.0000
  N   N83       1.0  0.51772  0.96562  0.45529  1.0000
  C   C996      1.0  0.54389  0.57291  0.49641  1.0000
  H   H989      1.0  0.53865  0.55205  0.49385  1.0000
  S   S323      1.0  0.99898  0.74699  0.37389  1.0000
  C   C997      1.0  0.99157  0.75427  0.27044  1.0000
  H   H990      1.0  0.50362  0.68421  0.41395  1.0000
  Fe  Fe164     1.0  0.64170  0.53945  0.56336  1.0000
  S   S324      1.0  0.66098  0.55474  0.53955  1.0000
  Fe  Fe165     1.0  0.67010  0.59683  0.57835  1.0000
  S   S325      1.0  0.68995  0.61577  0.55519  1.0000
  S   S326      1.0  0.67783  0.61688  0.60345  1.0000
  Fe  Fe166     1.0  0.65000  0.58816  0.54307  1.0000
  S   S327      1.0  0.62637  0.59122  0.52106  1.0000
  Fe  Fe167     1.0  0.69933  0.58088  0.55340  1.0000
  S   S328      1.0  0.73998  0.58816  0.54369  1.0000
  S   S329      1.0  0.62914  0.57175  0.56651  1.0000
  S   S330      1.0  0.68124  0.56308  0.57697  1.0000
  Fe  Fe168     1.0  0.87581  0.57447  0.56338  1.0000
  S   S331      1.0  0.90358  0.57765  0.58429  1.0000
  S   S332      1.0  0.83274  0.56313  0.57087  1.0000
  Fe  Fe169     1.0  0.92166  0.59014  0.53915  1.0000
  S   S333      1.0  0.95177  0.59462  0.55846  1.0000
  S   S334      1.0  0.93289  0.59842  0.51264  1.0000
  Fe  Fe170     1.0  0.91901  0.55567  0.56781  1.0000
  Fe  Fe171     1.0  0.93366  0.61586  0.57314  1.0000
  S   S335      1.0  0.95748  0.65902  0.58311  1.0000
  S   S336      1.0  0.88953  0.55014  0.54764  1.0000
  S   S337      1.0  0.90519  0.61370  0.55305  1.0000
  C   C998      1.0  0.93417  0.71697  0.63726  1.0000
  C   C999      1.0  0.90434  0.65507  0.61063  1.0000
  S   S338      1.0  0.96137  0.80817  0.65645  1.0000
  S   S339      1.0  0.97319  0.75365  0.67946  1.0000
  Fe  Fe172     1.0  0.77452  0.97104  0.67148  1.0000
  C   C1000     1.0  0.98658  0.70949  0.62242  1.0000
  S   S340      1.0  0.75664  0.92540  0.66909  1.0000
  C   C1001     1.0  0.97923  0.69899  0.60652  1.0000
  C   C1002     1.0  0.78077  0.70376  0.62053  1.0000
  Fe  Fe173     1.0  0.79997  0.81179  0.66566  1.0000
  S   S341      1.0  0.75561  0.78628  0.66675  1.0000
  S   S342      1.0  0.81997  0.85706  0.66264  1.0000
  Fe  Fe174     1.0  0.81047  0.76337  0.66991  1.0000
  S   S343      1.0  0.76660  0.73446  0.67190  1.0000
  S   S344      1.0  0.83763  0.74393  0.67114  1.0000
  Fe  Fe175     1.0  0.76110  0.75639  0.65084  1.0000
  S   S345      1.0  0.73962  0.74024  0.62649  1.0000
  Fe  Fe176     1.0  0.76567  0.76698  0.68771  1.0000
  S   S346      1.0  0.74423  0.76381  0.71113  1.0000
  S   S347      1.0  0.80515  0.78372  0.64812  1.0000
  S   S348      1.0  0.80994  0.79408  0.68732  1.0000
  C   C1003     1.0  0.75925  0.76157  0.72965  1.0000
  C   C1004     1.0  0.78118  0.75630  0.72999  1.0000
  H   H991      1.0  0.80869  0.74898  0.74502  1.0000
  H   H992      1.0  0.78935  0.75364  0.71880  1.0000
  C   C1005     1.0  0.73030  0.52117  0.53889  1.0000
  C   C1006     1.0  0.77489  0.90705  0.66744  1.0000
  C   C1007     1.0  0.76116  0.87897  0.66883  1.0000
  C   C1008     1.0  0.77478  0.86347  0.66762  1.0000
  C   C1009     1.0  0.80226  0.87590  0.66477  1.0000
  C   C1010     1.0  0.81603  0.90399  0.66341  1.0000
  C   C1011     1.0  0.80246  0.91955  0.66486  1.0000
  H   H993      1.0  0.73984  0.86915  0.67090  1.0000
  H   H994      1.0  0.76394  0.84192  0.66879  1.0000
  H   H995      1.0  0.83733  0.91379  0.66124  1.0000
  H   H996      1.0  0.81325  0.94117  0.66378  1.0000
  C   C1012     1.0  0.98313  0.69226  0.63523  1.0000
  C   C1013     1.0  0.69082  0.50933  0.55456  1.0000
  H   H997      1.0  0.95708  0.63265  0.61362  1.0000
  C   C1014     1.0  0.92656  0.78954  0.65935  1.0000
  C   C1015     1.0  0.91521  0.76302  0.66450  1.0000
  C   C1016     1.0  0.88773  0.74903  0.66757  1.0000
  C   C1017     1.0  0.87140  0.76154  0.66569  1.0000
  C   C1018     1.0  0.88253  0.78792  0.66023  1.0000
  C   C1019     1.0  0.91004  0.80179  0.65694  1.0000
  H   H998      1.0  0.92753  0.75322  0.66617  1.0000
  H   H999      1.0  0.87921  0.72862  0.67177  1.0000
  H   H1000     1.0  0.87004  0.79768  0.65870  1.0000
  H   H1001     1.0  0.91864  0.82226  0.65281  1.0000
  Fe  Fe177     1.0  0.98896  0.79240  0.66644  1.0000
  H   H1002     1.0  0.78826  0.70762  0.64629  1.0000
  C   C1020     1.0  0.96820  0.67119  0.60322  1.0000
  H   H1003     1.0  0.73177  0.76880  0.74416  1.0000
  H   H1004     1.0  0.91799  0.72195  0.64062  1.0000
  H   H1005     1.0  0.63629  0.96979  0.55101  1.0000
  C   C1021     1.0  0.94868  0.83060  0.69407  1.0000
  C   C1022     1.0  0.96531  0.65404  0.61597  1.0000
  H   H1006     1.0  0.69764  0.52901  0.53168  1.0000
  N   N84       1.0  0.74065  0.51135  0.55058  1.0000
  H   H1007     1.0  0.98178  0.71249  0.59673  1.0000
  H   H1008     1.0  0.56454  0.62337  0.53824  1.0000
  C   C1023     1.0  0.69464  0.65138  0.60948  1.0000
  C   C1024     1.0  0.70247  0.67210  0.59838  1.0000
  C   C1025     1.0  0.71600  0.69918  0.60381  1.0000
  C   C1026     1.0  0.72227  0.70584  0.62031  1.0000
  C   C1027     1.0  0.71466  0.68511  0.63137  1.0000
  C   C1028     1.0  0.70073  0.65807  0.62598  1.0000
  H   H1009     1.0  0.69778  0.66727  0.58567  1.0000
  H   H1010     1.0  0.72166  0.71506  0.59516  1.0000
  H   H1011     1.0  0.71917  0.68989  0.64410  1.0000
  H   H1012     1.0  0.69466  0.64220  0.63467  1.0000
  C   C1029     1.0  0.76668  0.58354  0.55232  1.0000
  C   C1030     1.0  0.76488  0.57184  0.56737  1.0000
  C   C1031     1.0  0.78575  0.56666  0.57309  1.0000
  C   C1032     1.0  0.80878  0.57329  0.56395  1.0000
  C   C1033     1.0  0.81086  0.58560  0.54911  1.0000
  C   C1034     1.0  0.78987  0.59055  0.54332  1.0000
  H   H1013     1.0  0.74715  0.56623  0.57441  1.0000
  H   H1014     1.0  0.78386  0.55703  0.58456  1.0000
  H   H1015     1.0  0.82829  0.59064  0.54187  1.0000
  H   H1016     1.0  0.79149  0.59958  0.53165  1.0000
  H   H1017     1.0  0.89240  0.61435  0.61762  1.0000
  C   C1035     1.0  0.88672  0.76917  0.70564  1.0000
  H   H1018     1.0  0.74650  0.89713  0.70195  1.0000
  H   H1019     1.0  0.99471  0.73086  0.62479  1.0000
  S   S349      1.0  0.93093  0.52373  0.57635  1.0000
  C   C1036     1.0  0.96616  0.61526  0.50563  1.0000
  C   C1037     1.0  0.76942  0.68574  0.60742  1.0000
  C   C1038     1.0  0.94600  0.66471  0.51673  1.0000
  H   H1020     1.0  0.78983  0.72528  0.61878  1.0000
  C   C1039     1.0  0.57922  0.62496  0.52902  1.0000
  C   C1040     1.0  0.63943  0.66509  0.50585  1.0000
  H   H1021     1.0  0.59701  0.98359  0.51831  1.0000
  H   H1022     1.0  0.95406  0.84517  0.70435  1.0000
  C   C1041     1.0  0.91848  0.66928  0.64287  1.0000
  C   C1042     1.0  0.65177  0.98610  0.54452  1.0000
  N   N85       1.0  0.75701  0.65858  0.60970  1.0000
  C   C1043     1.0  0.75571  0.64867  0.62485  1.0000
  C   C1044     1.0  0.76693  0.66612  0.63823  1.0000
  C   C1045     1.0  0.77962  0.69384  0.63601  1.0000
  C   C1046     1.0  0.74604  0.64011  0.59570  1.0000
  H   H1023     1.0  0.74554  0.62716  0.62670  1.0000
  H   H1024     1.0  0.76554  0.65827  0.65026  1.0000
  H   H1025     1.0  0.73578  0.64747  0.58703  1.0000
  H   H1026     1.0  0.76227  0.63801  0.58947  1.0000
  H   H1027     1.0  0.73061  0.61986  0.59931  1.0000
  N   N86       1.0  0.77138  0.87992  0.70943  1.0000
  C   C1047     1.0  0.79578  0.88283  0.70481  1.0000
  C   C1048     1.0  0.75228  0.85572  0.71475  1.0000
  C   C1049     1.0  0.80137  0.86103  0.70521  1.0000
  C   C1050     1.0  0.75730  0.83357  0.71543  1.0000
  C   C1051     1.0  0.78201  0.83631  0.71062  1.0000
  C   C1052     1.0  0.76551  0.90276  0.70890  1.0000
  H   H1028     1.0  0.81083  0.90186  0.70036  1.0000
  H   H1029     1.0  0.73297  0.85340  0.71845  1.0000
  H   H1030     1.0  0.76372  0.90930  0.72132  1.0000
  H   H1031     1.0  0.57148  0.50644  0.56887  1.0000
  H   H1032     1.0  0.98551  0.61985  0.52890  1.0000
  S   S350      1.0  0.98938  0.70391  0.65569  1.0000
  H   H1033     1.0  0.78133  0.92028  0.70272  1.0000
  N   N87       1.0  0.56519  0.61215  0.51379  1.0000
  C   C1053     1.0  0.79209  0.75363  0.74487  1.0000
  S   S351      1.0  0.75118  0.98676  0.68629  1.0000
  H   H1034     1.0  0.89977  0.64984  0.59789  1.0000
  H   H1035     1.0  0.59350  0.64650  0.52730  1.0000
  C   C1054     1.0  0.97286  0.66457  0.63186  1.0000
  C   C1055     1.0  0.91546  0.68192  0.61597  1.0000
  C   C1056     1.0  0.70532  0.52037  0.54073  1.0000
  N   N88       1.0  0.93090  0.80340  0.69946  1.0000
  H   H1036     1.0  0.69372  0.99327  0.50155  1.0000
  H   H1037     1.0  0.90493  0.62698  0.64662  1.0000
  C   C1057     1.0  0.92498  0.76146  0.71013  1.0000
  H   H1038     1.0  0.88427  0.73238  0.71482  1.0000
  N   N89       1.0  0.92267  0.68874  0.63188  1.0000
  H   H1039     1.0  0.89539  0.80755  0.69603  1.0000
  C   C1058     1.0  0.62914  0.61830  0.50907  1.0000
  C   C1059     1.0  0.90390  0.79483  0.70013  1.0000
  H   H1040     1.0  0.93364  0.74872  0.71405  1.0000
  C   C1060     1.0  0.98840  0.62394  0.51616  1.0000
  C   C1061     1.0  0.89738  0.75240  0.71064  1.0000
  C   C1062     1.0  0.61091  0.99882  0.51052  1.0000
  H   H1041     1.0  0.92479  0.67475  0.65542  1.0000
  H   H1042     1.0  0.78603  0.81920  0.71103  1.0000
  H   H1043     1.0  0.77005  0.69361  0.59546  1.0000
  C   C1063     1.0  0.90030  0.63514  0.62172  1.0000
  H   H1044     1.0  0.96294  0.79408  0.70412  1.0000
  H   H1045     1.0  0.65244  0.64994  0.52630  1.0000
  C   C1064     1.0  0.64178  0.64498  0.51476  1.0000
  H   H1046     1.0  0.94630  0.73068  0.62768  1.0000
  H   H1047     1.0  0.56374  0.57441  0.51908  1.0000
  H   H1048     1.0  0.75107  0.99103  0.72971  1.0000
  N   N90       1.0  0.97266  0.67396  0.52424  1.0000
  C   C1065     1.0  0.94153  0.78720  0.70451  1.0000
  H   H1049     1.0  0.86521  0.76211  0.70566  1.0000
  H   H1050     1.0  0.94515  0.65649  0.50433  1.0000
  N   N91       1.0  0.77986  0.83978  0.62582  1.0000
  C   C1066     1.0  0.76265  0.81281  0.62580  1.0000
  C   C1067     1.0  0.77056  0.85805  0.62847  1.0000
  C   C1068     1.0  0.73551  0.80347  0.62899  1.0000
  C   C1069     1.0  0.74352  0.84942  0.63168  1.0000
  C   C1070     1.0  0.72597  0.82193  0.63205  1.0000
  C   C1071     1.0  0.80815  0.84907  0.62226  1.0000
  H   H1051     1.0  0.76989  0.79829  0.62347  1.0000
  H   H1052     1.0  0.78418  0.87946  0.62858  1.0000
  H   H1053     1.0  0.72209  0.78200  0.62923  1.0000
  H   H1054     1.0  0.73644  0.86401  0.63425  1.0000
  H   H1055     1.0  0.70503  0.81493  0.63477  1.0000
  H   H1056     1.0  0.81553  0.83574  0.62783  1.0000
  H   H1057     1.0  0.81078  0.84936  0.60901  1.0000
  H   H1058     1.0  0.82099  0.86951  0.62754  1.0000
  C   C1072     1.0  0.55846  0.62648  0.50305  1.0000
  C   C1073     1.0  0.97522  0.67159  0.54052  1.0000
  H   H1059     1.0  0.94806  0.72106  0.64784  1.0000
  S   S352      1.0  0.99117  0.77451  0.72376  1.0000
  H   H1060     1.0  0.93044  0.64797  0.52355  1.0000
  H   H1061     1.0  0.93897  0.83644  0.68419  1.0000
  C   C1074     1.0  0.65504  0.98319  0.52802  1.0000
  H   H1062     1.0  0.64863  0.68555  0.51056  1.0000
  H   H1063     1.0  0.74214  0.81426  0.71957  1.0000
  S   S353      1.0  0.78133  0.99974  0.65107  1.0000
  H   H1064     1.0  0.96737  0.83177  0.68903  1.0000
  H   H1065     1.0  0.91909  0.69733  0.60720  1.0000
  H   H1066     1.0  0.82038  0.86313  0.70102  1.0000
  C   C1075     1.0  0.90731  0.64222  0.63796  1.0000
  C   C1076     1.0  0.55793  0.58563  0.51070  1.0000
  H   H1067     1.0  0.59131  0.61536  0.53367  1.0000
  H   H1068     1.0  0.94087  0.68151  0.51624  1.0000
  H   H1069     1.0  0.95766  0.66247  0.54792  1.0000
  H   H1070     1.0  0.97028  0.65108  0.64165  1.0000
  H   H1071     1.0  0.77973  0.52850  0.54062  1.0000
  C   C1077     1.0  0.74876  0.76479  0.74431  1.0000
  H   H1072     1.0  0.74170  0.53047  0.52829  1.0000
  C   C1078     1.0  0.76643  0.51145  0.54820  1.0000
  H   H1073     1.0  0.64181  0.96441  0.52180  1.0000
  H   H1074     1.0  0.56455  0.64762  0.50536  1.0000
  C   C1079     1.0  0.99492  0.68595  0.51501  1.0000
  H   H1075     1.0  0.77751  0.51414  0.55990  1.0000
  S   S354      1.0  0.81385  0.99740  0.68412  1.0000
  H   H1076     1.0  0.99292  0.68759  0.50208  1.0000
  H   H1077     1.0  0.67149  0.50879  0.55619  1.0000
  C   C1080     1.0  0.76198  0.99801  0.74111  1.0000
  C   C1081     1.0  0.67829  0.00017  0.50267  1.0000
  Fe  Fe178     1.0  0.63827  0.55174  0.93298  1.0000
  S   S355      1.0  0.66090  0.54797  0.95452  1.0000
  Fe  Fe179     1.0  0.68107  0.61112  0.92775  1.0000
  S   S356      1.0  0.70587  0.61051  0.94928  1.0000
  S   S357      1.0  0.69678  0.65309  0.91694  1.0000
  Fe  Fe180     1.0  0.69833  0.56979  0.94001  1.0000
  S   S358      1.0  0.72741  0.55219  0.93608  1.0000
  Fe  Fe181     1.0  0.66644  0.58918  0.96180  1.0000
  S   S359      1.0  0.66240  0.59946  0.98805  1.0000
  S   S360      1.0  0.67534  0.57126  0.91779  1.0000
  S   S361      1.0  0.64194  0.59197  0.94100  1.0000
  Fe  Fe182     1.0  0.88378  0.58372  0.94561  1.0000
  S   S362      1.0  0.88513  0.56424  0.92213  1.0000
  S   S363      1.0  0.85299  0.59806  0.95220  1.0000
  Fe  Fe183     1.0  0.93916  0.58885  0.95686  1.0000
  S   S364      1.0  0.94416  0.57075  0.93347  1.0000
  S   S365      1.0  0.96299  0.59112  0.98004  1.0000
  Fe  Fe184     1.0  0.92815  0.59677  0.92138  1.0000
  S   S366      1.0  0.93676  0.61700  0.89670  1.0000
  Fe  Fe185     1.0  0.90106  0.54016  0.93615  1.0000
  S   S367      1.0  0.92639  0.61699  0.94463  1.0000
  S   S368      1.0  0.89632  0.55744  0.95979  1.0000
  N   N92       1.0  0.83888  0.92068  0.83355  1.0000
  Fe  Fe186     1.0  0.97471  0.77514  0.82749  1.0000
  S   S369      1.0  0.93353  0.76665  0.81808  1.0000
  S   S370      1.0  0.98394  0.74018  0.82672  1.0000
  H   H1078     1.0  0.69145  0.69445  0.82232  1.0000
  C   C1082     1.0  0.75996  0.76253  0.75922  1.0000
  C   C1083     1.0  0.61689  0.63858  0.99121  1.0000
  Fe  Fe187     1.0  0.78437  0.97289  0.84113  1.0000
  S   S371      1.0  0.78381  0.93700  0.85397  1.0000
  S   S372      1.0  0.74965  0.98160  0.83618  1.0000
  Fe  Fe188     1.0  0.81555  0.78789  0.83465  1.0000
  S   S373      1.0  0.79812  0.74609  0.82429  1.0000
  S   S374      1.0  0.85583  0.80745  0.84761  1.0000
  Fe  Fe189     1.0  0.76799  0.79529  0.82397  1.0000
  S   S375      1.0  0.74633  0.75334  0.81301  1.0000
  S   S376      1.0  0.75028  0.82366  0.81939  1.0000
  Fe  Fe190     1.0  0.75983  0.74020  0.83555  1.0000
  S   S377      1.0  0.73413  0.69871  0.84624  1.0000
  Fe  Fe191     1.0  0.78613  0.76243  0.80276  1.0000
  S   S378      1.0  0.79528  0.75189  0.77789  1.0000
  S   S379      1.0  0.77802  0.78144  0.84736  1.0000
  S   S380      1.0  0.80696  0.80491  0.81232  1.0000
  C   C1084     1.0  0.98737  0.70393  0.87945  1.0000
  C   C1085     1.0  0.78151  0.75663  0.75955  1.0000
  H   H1079     1.0  0.83955  0.95545  0.84477  1.0000
  C   C1086     1.0  0.67640  0.69558  0.83037  1.0000
  H   H1080     1.0  0.75160  0.76482  0.77043  1.0000
  C   C1087     1.0  0.77458  0.90567  0.84415  1.0000
  C   C1088     1.0  0.77968  0.88637  0.85197  1.0000
  C   C1089     1.0  0.77288  0.86133  0.84443  1.0000
  C   C1090     1.0  0.76050  0.85527  0.82909  1.0000
  C   C1091     1.0  0.75533  0.87453  0.82131  1.0000
  C   C1092     1.0  0.76263  0.89975  0.82871  1.0000
  H   H1081     1.0  0.78893  0.89082  0.86393  1.0000
  H   H1082     1.0  0.77684  0.84662  0.85058  1.0000
  H   H1083     1.0  0.74560  0.86994  0.80949  1.0000
  H   H1084     1.0  0.75853  0.91442  0.82259  1.0000
  H   H1085     1.0  0.71425  0.65486  0.98036  1.0000
  C   C1093     1.0  0.99453  0.61504  0.98828  1.0000
  C   C1094     1.0  0.70497  0.77753  0.84419  1.0000
  C   C1095     1.0  0.91451  0.78159  0.82575  1.0000
  C   C1096     1.0  0.89104  0.77715  0.81725  1.0000
  C   C1097     1.0  0.87352  0.78593  0.82366  1.0000
  C   C1098     1.0  0.87941  0.79944  0.83861  1.0000
  C   C1099     1.0  0.90345  0.80491  0.84688  1.0000
  C   C1100     1.0  0.92096  0.79588  0.84049  1.0000
  H   H1086     1.0  0.88614  0.76645  0.80573  1.0000
  H   H1087     1.0  0.85534  0.78203  0.81703  1.0000
  H   H1088     1.0  0.90815  0.81542  0.85845  1.0000
  H   H1089     1.0  0.93904  0.79941  0.84713  1.0000
  C   C1101     1.0  0.69366  0.76830  0.82882  1.0000
  H   H1090     1.0  0.98510  0.65812  0.84666  1.0000
  C   C1102     1.0  0.95567  0.65109  0.89087  1.0000
  C   C1103     1.0  0.97640  0.67034  0.90059  1.0000
  H   H1091     1.0  0.80916  0.67853  0.82979  1.0000
  H   H1092     1.0  0.81658  0.90599  0.81138  1.0000
  C   C1104     1.0  0.96600  0.68497  0.86997  1.0000
  C   C1105     1.0  0.95051  0.65864  0.87557  1.0000
  C   C1106     1.0  0.96966  0.50448  0.96147  1.0000
  H   H1093     1.0  0.96184  0.69038  0.85816  1.0000
  H   H1094     1.0  0.93454  0.64393  0.86793  1.0000
  N   N93       1.0  0.84217  0.71351  0.84001  1.0000
  H   H1095     1.0  0.65669  0.68721  0.82388  1.0000
  C   C1107     1.0  0.72565  0.68664  0.86622  1.0000
  C   C1108     1.0  0.71202  0.65870  0.86851  1.0000
  C   C1109     1.0  0.70371  0.64805  0.88396  1.0000
  C   C1110     1.0  0.70855  0.66526  0.89734  1.0000
  C   C1111     1.0  0.72234  0.69324  0.89506  1.0000
  C   C1112     1.0  0.73107  0.70390  0.87964  1.0000
  H   H1096     1.0  0.70761  0.64511  0.85823  1.0000
  H   H1097     1.0  0.69302  0.62652  0.88546  1.0000
  H   H1098     1.0  0.72619  0.70677  0.90530  1.0000
  H   H1099     1.0  0.74152  0.72543  0.87815  1.0000
  C   C1113     1.0  0.76222  0.56509  0.94105  1.0000
  C   C1114     1.0  0.77544  0.55022  0.93634  1.0000
  C   C1115     1.0  0.80304  0.55969  0.93984  1.0000
  C   C1116     1.0  0.81781  0.58420  0.94818  1.0000
  C   C1117     1.0  0.80456  0.59902  0.95293  1.0000
  C   C1118     1.0  0.77700  0.58961  0.94936  1.0000
  H   H1100     1.0  0.76426  0.53119  0.92994  1.0000
  H   H1101     1.0  0.81288  0.54805  0.93607  1.0000
  H   H1102     1.0  0.81573  0.61799  0.95939  1.0000
  H   H1103     1.0  0.76719  0.60128  0.95312  1.0000
  H   H1104     1.0  0.70944  0.66830  0.95292  1.0000
  C   C1119     1.0  0.63028  0.62477  0.98491  1.0000
  H   H1105     1.0  0.67429  0.68260  0.84086  1.0000
  C   C1120     1.0  0.69632  0.73248  0.85057  1.0000
  H   H1106     1.0  0.62970  0.62091  0.97206  1.0000
  S   S381      1.0  0.74531  0.98619  0.78883  1.0000
  C   C1121     1.0  0.67780  0.69389  0.99580  1.0000
  C   C1122     1.0  0.80488  0.71790  0.85975  1.0000
  H   H1107     1.0  0.97558  0.54538  0.96221  1.0000
  H   H1108     1.0  0.69782  0.71871  0.85909  1.0000
  H   H1109     1.0  0.72760  0.97448  0.75553  1.0000
  C   C1123     1.0  0.83178  0.73723  0.86076  1.0000
  H   H1110     1.0  0.86133  0.88631  0.85732  1.0000
  H   H1111     1.0  0.82150  0.94546  0.82604  1.0000
  H   H1112     1.0  0.86096  0.93025  0.85591  1.0000
  H   H1113     1.0  0.71329  0.79877  0.84738  1.0000
  H   H1114     1.0  0.85775  0.96133  0.82619  1.0000
  H   H1115     1.0  0.58302  0.57252  0.99295  1.0000
  H   H1116     1.0  0.71547  0.76660  0.86706  1.0000
  H   H1117     1.0  0.67615  0.73435  0.81242  1.0000
  H   H1118     1.0  0.69333  0.78238  0.82006  1.0000
  C   C1124     1.0  0.85028  0.73457  0.85084  1.0000
  C   C1125     1.0  0.79681  0.69641  0.84873  1.0000
  N   N94       1.0  0.68536  0.72361  0.83544  1.0000
  H   H1119     1.0  0.68804  0.68309  0.94894  1.0000
  C   C1126     1.0  0.68402  0.74115  0.82459  1.0000
  H   H1120     1.0  0.85816  0.69073  0.82777  1.0000
  H   H1121     1.0  0.67279  0.99947  0.96012  1.0000
  S   S382      1.0  0.80201  0.98491  0.81667  1.0000
  H   H1122     1.0  0.60611  0.64532  0.98309  1.0000
  N   N95       1.0  0.86633  0.62452  0.91249  1.0000
  C   C1127     1.0  0.84370  0.62538  0.91743  1.0000
  C   C1128     1.0  0.86450  0.60511  0.90167  1.0000
  C   C1129     1.0  0.81837  0.60624  0.91170  1.0000
  C   C1130     1.0  0.83948  0.58536  0.89592  1.0000
  C   C1131     1.0  0.81628  0.58592  0.90105  1.0000
  C   C1132     1.0  0.89251  0.64466  0.91892  1.0000
  H   H1123     1.0  0.84511  0.64027  0.92637  1.0000
  H   H1124     1.0  0.88239  0.60442  0.89767  1.0000
  H   H1125     1.0  0.80043  0.60644  0.91610  1.0000
  H   H1126     1.0  0.83816  0.56950  0.88779  1.0000
  H   H1127     1.0  0.79668  0.57036  0.89705  1.0000
  H   H1128     1.0  0.89260  0.64464  0.93235  1.0000
  H   H1129     1.0  0.90899  0.64042  0.91504  1.0000
  H   H1130     1.0  0.89695  0.66493  0.91468  1.0000
  H   H1131     1.0  0.98077  0.66488  0.91233  1.0000
  H   H1132     1.0  0.99136  0.76653  0.78246  1.0000
  C   C1133     1.0  0.82678  0.90196  0.82138  1.0000
  H   H1133     1.0  0.97874  0.66385  0.81739  1.0000
  C   C1134     1.0  0.85134  0.91537  0.84629  1.0000
  C   C1135     1.0  0.69063  0.66839  0.95666  1.0000
  H   H1134     1.0  0.85948  0.71913  0.81697  1.0000
  H   H1135     1.0  0.55250  0.59212  0.99828  1.0000
  C   C1136     1.0  0.64446  0.61615  0.99528  1.0000
  H   H1136     1.0  0.97431  0.77321  0.75606  1.0000
  H   H1137     1.0  0.77580  0.68168  0.84758  1.0000
  N   N96       1.0  0.69171  0.67524  0.97388  1.0000
  C   C1137     1.0  0.86148  0.71175  0.82905  1.0000
  C   C1138     1.0  0.99168  0.76978  0.75652  1.0000
  C   C1139     1.0  0.70474  0.66666  0.98456  1.0000
  H   H1138     1.0  0.64465  0.51602  0.89984  1.0000
  C   C1140     1.0  0.85161  0.89062  0.84717  1.0000
  C   C1141     1.0  0.70630  0.75954  0.85517  1.0000
  H   H1139     1.0  0.88253  0.72421  0.83349  1.0000
  C   C1142     1.0  0.81577  0.69473  0.83874  1.0000
  H   H1140     1.0  0.79016  0.71988  0.86715  1.0000
  C   C1143     1.0  0.67809  0.68844  0.97930  1.0000
  H   H1141     1.0  0.67367  0.64814  0.95410  1.0000
  Fe  Fe192     1.0  0.76952  0.99664  0.81233  1.0000
  C   C1144     1.0  0.82663  0.87700  0.82189  1.0000
  C   C1145     1.0  0.83961  0.94705  0.83254  1.0000
  H   H1142     1.0  0.67884  0.51505  0.91910  1.0000
  H   H1143     1.0  0.87111  0.74971  0.85167  1.0000
  S   S383      1.0  0.59938  0.51703  0.92224  1.0000
  H   H1144     1.0  0.93549  0.50164  0.92458  1.0000
  H   H1145     1.0  0.83824  0.75459  0.86886  1.0000
  H   H1146     1.0  0.81630  0.86196  0.81243  1.0000
  C   C1146     1.0  0.83917  0.87135  0.83487  1.0000
  H   H1147     1.0  0.66676  0.69418  0.97092  1.0000
  H   H1148     1.0  0.83918  0.85204  0.83548  1.0000
  H   H1149     1.0  0.66314  0.98887  0.93945  1.0000
  C   C1147     1.0  0.93570  0.51697  0.96894  1.0000
  C   C1148     1.0  0.99231  0.69647  0.89482  1.0000
  C   C1149     1.0  0.74872  0.98870  0.75575  1.0000
  H   H1150     1.0  0.98959  0.50979  0.95729  1.0000
  H   H1151     1.0  0.92975  0.53254  0.97087  1.0000
  S   S384      1.0  0.99653  0.79219  0.85116  1.0000
  C   C1150     1.0  0.76264  0.99763  0.77064  1.0000
  C   C1151     1.0  0.96179  0.52436  0.96410  1.0000
  C   C1152     1.0  0.99666  0.67820  0.82391  1.0000
  H   H1152     1.0  0.66621  0.70353  0.00014  1.0000
