data_image0
_chemical_formula_structural       FeS2H2CHC2FeS2FeS2FeSFeS3HSC2HC6H4C2HCHCHC2HCHCH2NHC6H5C2HCH3SCH4C3HCHSHNHC4FeCH2C3HCHCHCNCHCHCHCFeH2C4FeHC2H2NC2FeS2FeS2FeSFeS4FeCS2FeS2FeS2FeHFeS3FeS2FeS2FeSFeCS2FeS4FeS2FeHCFeS2H3SFeC6H2CHC6H4C6H5C6H4C6H4CHC6H4C6H5FeHC2H3C4H4CHNC2SC4HCHCHCHFeCHCH5NCH3C2NC3H2CH2NHSCNC6H8C3H4CNH3CHCHCH3CSHSN2C3SH4C2HCH2CH2CH3SH2CH2CH4C3H2S2HCH2C2FeH2CH2CH2SH2CFeS2FeS2FeS2FeSFeS3FeS2HCHCFeNCSC6H4CHC3HC2H3C6H4CHCHNC3H2NCH3CHC3H8CH3C3H5CH2C3NC3SH2C2HCNHC3HCHSCHCFeCHC2H4C2FeS3FeS2FeS2FeSFeS3C2SC6H4C2HC2H2C6H7C3HSHCNCHCH2C2HNH2CNHCH3C2SC4H3CFeH3FeHNH4C2H3SC2H4SCHC3FeHNHC2H3C2H2CSNCHC2HFeS2FeS2FeSFeS3CSC2HFeSFeSCSHC2H2FeSHFeS2FeS2FeHFeS3FeS2FeS2FeHFeS3FeS3HSFeS2FeCFeSHSH3SCH3C6H4C6H4C6H2NH3C6H4C6H4CNH5CHC2SH4CH2C7H4C6H5C3HCH2CNC6H2CH5NC6H8NC5H3CHCNCHCHC3H2C4H2NH3NC2HSC2SHFeH2CHCHCH2NHCHCHCHCSCHSH2CHCH2C2H3C3H2CHSFeC2H2CSCH2CH2C2H2C2H2C2HFeSHSCFeS2FeS2FeSFeS3CS3H2C9H4CH2FeHC2H2SC6H4C2HC2H4CHCHCHSH2N2CH2C3HC2FeHNC3H2CH3C2H3C2HCHNCH3FeH2C2Fe2CSFeSHCH2SFeHSCH2C2SHFeS2FeS2FeSFeS3FeS2FeS2FeSFeS5HSFe3SHC6H4CFeH2NC6H4C2SH2C2HC6H6CSCHC6H5C5H2C2H2NSH3CHCH3C3H2NHCHSC2HNC3SHCH4CSHCHCHCFeHN2C6H8NCSC2H3CH2CHCH2CH3C2SCH2C2HCH2C2SFeSHCS2C5H2C4HCH3C4HCHC8H2CHCHC4SH2CH2FeCHCFeS2H2NH3NHCH5C2FeSCHC2HCHNH2NC2HCSCHC2H5SHCFeHC2FeHSH2FeS2FeCFeCSCHSFeS2FeS2FeSFeS3FeS2FeS2FeSFeS3FeSH2SHFeSFeSCSHCH2C6H4C4HSC9H4CHC2H2SCHC6H5NC6H4CH5C4H2CH2CH4CNC6H8C2HC2H2FeHNC2SCH2SHC2H3NSC4H4FeCH3C3HNHSH2CH2NC2HC4SCFeSH5CHSC2SCHFeSHFeS2FeS2FeSFeS3FeS2FeS2FeSFeS5FeSFeSC2HCHC7H6NHC7H4C3FeH3C7H5C2HNH2C6H6NHCH3C3SCH3CH2CH4FeHC5H2C2HC4HSCNCNC6H8CNH2C4HCHC2HCNC6H10C2HCSCH6CHCH4C2FeNH4CHCHFeHCHS2HFeSHCH2SH2C3HSH3C5HFeC2HCHC6H2CNH3C5H4SNSHC3HC3SCH2CHC2H4FeHC2SHCNCH2CHSH2CHC4H3SHCH2C3HCHSC2HCNFeCSFeSHSFeS2FeS2FeSFeS3FeS2FeS2FeSFeS3CSHCSHFeHFeSCSHCH2C2HC6H4CHC6H5CH2C3H2NC6H4C4HCHC6H4NC2H2CH4CNCH3NC6H2CH6CSH3C2HCSCSFeC2H3NHCH2SH4CH4C5H2CHFeC2H2CNCSFeH3CHCNH2CFeHSFeCSC2FeHSCHSCFeS2FeS2FeSFeS3CSCSHFeSFeCSFeS2FeS2FeSFe2S2HCH3C3NH3C6H4C6H5C3HC6H5C2H2CNH2C7H6C3NC6H8NCHC2H3CHSC2H2NC6NHCH2SHCH2CNC3H4CFeCH2CH2SFeC2H3CH4NHNH2C4HCSCH3S2C3HCHSCHC3H3SH3C2SHCH4FeH3C3H2CHCHCHFeCSH2SC2HFeCSH3S3H2CHCHCH3C6N2CHC6H2CH2CFeHCSNH3CHCHCH2NSHCHC5HSCH2C2HC3HCS2FeSCH3CHCHCH3C4H3C2H3C2SCFeS2FeSFeS2FeS2FeSFeS3FeSNS2CFeSFeSHSFeS2FeS2FeSFeHS2CHC4H5CHC6H4C6H4C2H3C2HC6H4C6H4FeC2HN2C6H8NC6H8CHCHC2H2SHSFeH2C2H3NC2SCH4CH2NCFeHSCHC2HCSNC4H4CHCHCHCH3CH2CH4C4HCHFeSNSCFeSCSFeSCFeSFeS2FeS2FeS2FeSFeS3FeS2FeS2FeSFeCS2CHC5H2CH3C7H4C3H3C7H4C2H4C6H4C2SHSFeC6H4SCH2NCHC2HSNH2NC2H4NC5H7C2SHC5H2CH2CHCH3CH2C2H2CHCHCHC2H4NHC2H2CSHCH2C2HFe2S3CFeS2CHFeCSFeS2HSHC2HC3FeCHCNC7H3CHCSHC5H2SHCH2CHCNHNHCH2CSCHC4HC2H2CH6CHCHCNH2CSHC2H2C2H3CH4CSCH2CSC2HCSCH3CHCH4Fe2SH4CFeHSC2SHCSCHSHFeSFeCSHFeS2FeS2FeSFeS3FeSCFeS2FeSFeS3C7H4CH3C3HC6H4C3SHC6H7CFeCSFeH2C6H4CHCHCHCHNCHCH4C2H2C3NCHNC6H8CH3C3H4C2HCH3SCNCHCH2CHSCNHCNCHCH3CNC2S2C2SFeS2FeS2FeSFeS3C2HCHC5H3C6H4CHC6H6CNHNC6H14CSHC2SCHSHCHNH2FeHC3H3C2HNHFeCHC2H5FeS2FeS2FeSFeS3HCSFeSH2CSFeS2HCFeNC2FeS2FeS2FeSFeS3FeS2FeS2FeSFeCS2FeS2FeSFeHS3C8H2CHCH2C6H4C6H7C6H6C7H7C7H4C6H4CHCSHC2H4CNHCH3FeC2HCHNC7H2CH5CNCHCHC3HCNC3H3SHC2HC2H12CHC2HCHN3CHCHCHCHC2HCHC2HC2H2CH3SCNHCHC2H2NHC3HC2H2SH6CH2CFeSC4H2NCSH2CFeSHSH2SFeS2FeS2FeSFeS3HC4H3C4FeH2CHC6H6CHC6H4CH2NHCNC3HNCHSH2CH5SH5C2HFeC2HNC6H2CH2C2HNSCHCHC2H2CHC2H2CHC2HSCH2C3H2C2HSCHFeS2FeS2FeSFeS4C2HCH2C6H5CHC7H4CHC2SFeHCH3NHCFeCHC2NC6H10NC3H2CHC2HCH3C3HC2FeS2FeS2FeSFeS3FeHSFeHC2S4HFeSFeHNCFeS2FeS2FeS2FeSFeS3FeS2FeS2FeSFeS3FeSH3CHFeSCS2C2HC6HSH2C6H4C6H4SHFe2HCHC6H4NHC6H6CHCHNC8H4C6H4CHSH2CHSC2NC6H8NC6H10FeC3HCH2NC6H3C2H3NC6H3SH3CHCH3SC3H2SHCSCH2NH7FeH2C2HSH6NC2HCHCH2FeHCHC2H3CH2C6HSHC3SCH2C2HC3H3CFeSFeS2FeS2FeSFeS3HC2HSH3CHC6H6C6H4C6H4NH5CN2HSC5HSCHC2SH2C2FeH3C3H3CH2CSC4HCS
_chemical_formula_sum              "Fe288 S576 H1728 C1728 N144"
_cell_length_a       72.5213
_cell_length_b       72.511
_cell_length_c       72.4204
_cell_angle_alpha    84.7075
_cell_angle_beta     85.6018
_cell_angle_gamma    85.2507

_space_group_name_H-M_alt    "P 1"
_space_group_IT_number       1

loop_
  _space_group_symop_operation_xyz
  'x, y, z'

loop_
  _atom_site_type_symbol
  _atom_site_label
  _atom_site_symmetry_multiplicity
  _atom_site_fract_x
  _atom_site_fract_y
  _atom_site_fract_z
  _atom_site_occupancy
  Fe  Fe1       1.0  0.02013  0.38859  0.08964  1.0000
  S   S1        1.0  0.02524  0.39512  0.05861  1.0000
  S   S2        1.0  0.03979  0.37292  0.10989  1.0000
  H   H1        1.0  0.14254  0.27456  0.31023  1.0000
  H   H2        1.0  0.03695  0.46678  0.10933  1.0000
  C   C1        1.0  0.23356  0.37615  0.11968  1.0000
  H   H3        1.0  0.13516  0.33062  0.13697  1.0000
  C   C2        1.0  0.10993  0.36257  0.32015  1.0000
  C   C3        1.0  0.13248  0.48867  0.18666  1.0000
  Fe  Fe2       1.0  0.13051  0.39666  0.16097  1.0000
  S   S3        1.0  0.12704  0.40956  0.18825  1.0000
  S   S4        1.0  0.11079  0.40591  0.13799  1.0000
  Fe  Fe3       1.0  0.16909  0.37763  0.16943  1.0000
  S   S5        1.0  0.16769  0.38906  0.19762  1.0000
  S   S6        1.0  0.19347  0.35763  0.15898  1.0000
  Fe  Fe4       1.0  0.13792  0.38143  0.20122  1.0000
  S   S7        1.0  0.12071  0.37136  0.22811  1.0000
  Fe  Fe5       1.0  0.15676  0.41616  0.18276  1.0000
  S   S8        1.0  0.16976  0.44328  0.18639  1.0000
  S   S9        1.0  0.13977  0.36824  0.17387  1.0000
  S   S10       1.0  0.15983  0.40500  0.15462  1.0000
  H   H4        1.0  0.04952  0.41101  0.14757  1.0000
  S   S11       1.0  0.12034  0.30983  0.29822  1.0000
  C   C4        1.0  0.17077  0.48132  0.18205  1.0000
  C   C5        1.0  0.15711  0.34911  0.13184  1.0000
  H   H5        1.0  0.11237  0.35231  0.12013  1.0000
  C   C6        1.0  0.12053  0.35314  0.24665  1.0000
  C   C7        1.0  0.10462  0.35193  0.25908  1.0000
  C   C8        1.0  0.10411  0.33860  0.27466  1.0000
  C   C9        1.0  0.11956  0.32620  0.27809  1.0000
  C   C10       1.0  0.13535  0.32718  0.26549  1.0000
  C   C11       1.0  0.13586  0.34052  0.24991  1.0000
  H   H6        1.0  0.09261  0.36151  0.25672  1.0000
  H   H7        1.0  0.09181  0.33807  0.28408  1.0000
  H   H8        1.0  0.14739  0.31767  0.26786  1.0000
  H   H9        1.0  0.14820  0.34116  0.24055  1.0000
  C   C12       1.0  0.21369  0.35931  0.14313  1.0000
  C   C13       1.0  0.22611  0.34346  0.14120  1.0000
  H   H10       1.0  0.09815  0.24025  0.30511  1.0000
  C   C14       1.0  0.21760  0.37571  0.13225  1.0000
  H   H11       1.0  0.22330  0.33065  0.14945  1.0000
  C   C15       1.0  0.11950  0.25888  0.30609  1.0000
  H   H12       1.0  0.20833  0.38808  0.13351  1.0000
  C   C16       1.0  0.15933  0.46638  0.18383  1.0000
  C   C17       1.0  0.01235  0.46529  0.00262  1.0000
  H   H13       1.0  0.15473  0.39758  0.09164  1.0000
  C   C18       1.0  0.02649  0.46545  0.06447  1.0000
  H   H14       1.0  0.14579  0.36625  0.27803  1.0000
  C   C19       1.0  0.14009  0.47022  0.18563  1.0000
  H   H15       1.0  0.18567  0.47850  0.18061  1.0000
  H   H16       1.0  0.01984  0.36094  0.01843  1.0000
  N   N1        1.0  0.00497  0.40360  0.14159  1.0000
  H   H17       1.0  0.13112  0.45889  0.18706  1.0000
  C   C20       1.0  0.05954  0.38224  0.11753  1.0000
  C   C21       1.0  0.06926  0.37238  0.13191  1.0000
  C   C22       1.0  0.08474  0.37953  0.13865  1.0000
  C   C23       1.0  0.09078  0.39658  0.13093  1.0000
  C   C24       1.0  0.08104  0.40643  0.11659  1.0000
  C   C25       1.0  0.06546  0.39939  0.10998  1.0000
  H   H18       1.0  0.06475  0.35913  0.13791  1.0000
  H   H19       1.0  0.09206  0.37180  0.14971  1.0000
  H   H20       1.0  0.08560  0.41962  0.11048  1.0000
  H   H21       1.0  0.05813  0.40717  0.09896  1.0000
  H   H22       1.0  0.00281  0.45060  0.13879  1.0000
  C   C26       1.0  0.03172  0.45909  0.08227  1.0000
  C   C27       1.0  0.03334  0.47176  0.09543  1.0000
  H   H23       1.0  0.03457  0.44442  0.08589  1.0000
  C   C28       1.0  0.11167  0.24183  0.30996  1.0000
  H   H24       1.0  0.16714  0.33989  0.13930  1.0000
  H   H25       1.0  0.14378  0.40777  0.11203  1.0000
  H   H26       1.0  0.02553  0.46701  0.00897  1.0000
  S   S12       1.0  0.00919  0.41746  0.09521  1.0000
  C   C29       1.0  0.02752  0.43255  0.14321  1.0000
  H   H27       1.0  0.03646  0.44383  0.14336  1.0000
  H   H28       1.0  0.11604  0.38564  0.27727  1.0000
  H   H29       1.0  0.18355  0.46066  0.22498  1.0000
  H   H30       1.0  0.23630  0.38893  0.11136  1.0000
  C   C30       1.0  0.11910  0.37654  0.28961  1.0000
  C   C31       1.0  0.15424  0.39688  0.10704  1.0000
  C   C32       1.0  0.02396  0.48455  0.05948  1.0000
  H   H31       1.0  0.17584  0.37053  0.12531  1.0000
  C   C33       1.0  0.00866  0.43634  0.14061  1.0000
  H   H32       1.0  0.02916  0.38550  0.14640  1.0000
  S   S13       1.0  0.02146  0.44970  0.04896  1.0000
  H   H33       1.0  0.11051  0.20366  0.31048  1.0000
  N   N2        1.0  0.14924  0.37849  0.11502  1.0000
  H   H34       1.0  0.15198  0.44960  0.22899  1.0000
  C   C34       1.0  0.01864  0.43197  0.99998  1.0000
  C   C35       1.0  0.01207  0.36685  0.00684  1.0000
  C   C36       1.0  0.12644  0.35605  0.12110  1.0000
  C   C37       1.0  0.16195  0.36654  0.12395  1.0000
  Fe  Fe6       1.0  0.01222  0.42335  0.06429  1.0000
  C   C38       1.0  0.13919  0.34392  0.13053  1.0000
  H   H35       1.0  0.12170  0.38284  0.10624  1.0000
  H   H36       1.0  0.11761  0.49136  0.18887  1.0000
  C   C39       1.0  0.10599  0.37498  0.30471  1.0000
  C   C40       1.0  0.13927  0.35328  0.30562  1.0000
  C   C41       1.0  0.13586  0.36566  0.29004  1.0000
  H   H37       1.0  0.16792  0.40020  0.11128  1.0000
  C   C42       1.0  0.13179  0.37332  0.11325  1.0000
  H   H38       1.0  0.12464  0.47233  0.23296  1.0000
  C   C43       1.0  0.02328  0.39978  0.14484  1.0000
  H   H39       1.0  0.01976  0.43006  0.01493  1.0000
  C   C44       1.0  0.03486  0.41416  0.14556  1.0000
  N   N3        1.0  0.12074  0.22744  0.32003  1.0000
  C   C45       1.0  0.13855  0.47699  0.23187  1.0000
  H   H40       1.0  0.09272  0.38305  0.30431  1.0000
  C   C46       1.0  0.15388  0.46422  0.22975  1.0000
  H   H41       1.0  0.11228  0.27032  0.29815  1.0000
  C   C47       1.0  0.17166  0.47045  0.22749  1.0000
  H   H42       1.0  0.00828  0.47844  0.99430  1.0000
  C   C48       1.0  0.11217  0.20972  0.32372  1.0000
  Fe  Fe7       1.0  0.99578  0.38819  0.05677  1.0000
  H   H43       1.0  0.00114  0.37723  0.13235  1.0000
  H   H44       1.0  0.00144  0.46299  0.01408  1.0000
  C   C49       1.0  0.13655  0.26125  0.31288  1.0000
  C   C50       1.0  0.99746  0.42159  0.14005  1.0000
  C   C51       1.0  0.17385  0.48947  0.22724  1.0000
  C   C52       1.0  0.02995  0.49081  0.09071  1.0000
  Fe  Fe8       1.0  0.10052  0.30289  0.32399  1.0000
  H   H45       1.0  0.02444  0.40276  0.99651  1.0000
  C   C53       1.0  0.14564  0.24656  0.32328  1.0000
  C   C54       1.0  0.99451  0.37592  0.01021  1.0000
  H   H46       1.0  0.02015  0.48954  0.04564  1.0000
  H   H47       1.0  0.15203  0.34435  0.30557  1.0000
  N   N4        1.0  0.12644  0.35197  0.32046  1.0000
  C   C55       1.0  0.99333  0.38826  0.14019  1.0000
  C   C56       1.0  0.24212  0.34392  0.12872  1.0000
  Fe  Fe9       1.0  0.07337  0.38792  0.46987  1.0000
  S   S14       1.0  0.06240  0.37353  0.49675  1.0000
  S   S15       1.0  0.06416  0.37690  0.44383  1.0000
  Fe  Fe10      1.0  0.08728  0.41922  0.49005  1.0000
  S   S16       1.0  0.07727  0.40698  0.51840  1.0000
  S   S17       1.0  0.10323  0.44527  0.48623  1.0000
  Fe  Fe11      1.0  0.08862  0.37949  0.50859  1.0000
  S   S18       1.0  0.10366  0.35539  0.52498  1.0000
  Fe  Fe12      1.0  0.05191  0.40193  0.50419  1.0000
  S   S19       1.0  0.02281  0.40726  0.51644  1.0000
  S   S20       1.0  0.10081  0.39188  0.48102  1.0000
  S   S21       1.0  0.06093  0.41621  0.47668  1.0000
  S   S22       1.0  0.08770  0.03293  0.40454  1.0000
  Fe  Fe13      1.0  0.09869  0.27506  0.64368  1.0000
  C   C57       1.0  0.11213  0.41774  0.55259  1.0000
  S   S23       1.0  0.13070  0.01819  0.60487  1.0000
  S   S24       1.0  0.08319  0.01921  0.57805  1.0000
  Fe  Fe14      1.0  0.16750  0.10644  0.40067  1.0000
  S   S25       1.0  0.18996  0.10049  0.42049  1.0000
  S   S26       1.0  0.15973  0.07912  0.39087  1.0000
  Fe  Fe15      1.0  0.17113  0.14881  0.39908  1.0000
  S   S27       1.0  0.19446  0.14473  0.41860  1.0000
  S   S28       1.0  0.16411  0.17991  0.38986  1.0000
  Fe  Fe16      1.0  0.20598  0.12101  0.40177  1.0000
  H   H48       1.0  0.11357  0.39155  0.56959  1.0000
  Fe  Fe17      1.0  0.17681  0.12443  0.43555  1.0000
  S   S29       1.0  0.16849  0.12097  0.46683  1.0000
  S   S30       1.0  0.18403  0.12627  0.38122  1.0000
  S   S31       1.0  0.15295  0.12926  0.41691  1.0000
  Fe  Fe18      1.0  0.16714  0.12000  0.59720  1.0000
  S   S32       1.0  0.19430  0.11194  0.58192  1.0000
  S   S33       1.0  0.14043  0.10530  0.59897  1.0000
  Fe  Fe19      1.0  0.17927  0.15757  0.60595  1.0000
  S   S34       1.0  0.20756  0.15216  0.59102  1.0000
  S   S35       1.0  0.17216  0.18306  0.62277  1.0000
  Fe  Fe20      1.0  0.19231  0.14119  0.56869  1.0000
  S   S36       1.0  0.20197  0.14809  0.53810  1.0000
  Fe  Fe21      1.0  0.20792  0.12320  0.60528  1.0000
  C   C58       1.0  0.13226  0.14502  0.63152  1.0000
  S   S37       1.0  0.16422  0.14888  0.58255  1.0000
  S   S38       1.0  0.18056  0.12902  0.62161  1.0000
  Fe  Fe22      1.0  0.09296  0.31715  0.63284  1.0000
  S   S39       1.0  0.07574  0.29345  0.63006  1.0000
  S   S40       1.0  0.09331  0.34371  0.61328  1.0000
  S   S41       1.0  0.10629  0.24793  0.62925  1.0000
  S   S42       1.0  0.11675  0.29889  0.64458  1.0000
  Fe  Fe23      1.0  0.09355  0.26966  0.35346  1.0000
  S   S43       1.0  0.11537  0.29009  0.34896  1.0000
  S   S44       1.0  0.09860  0.23792  0.35997  1.0000
  Fe  Fe24      1.0  0.06228  0.30041  0.34574  1.0000
  H   H49       1.0  0.13789  0.15843  0.46014  1.0000
  C   C59       1.0  0.24184  0.11374  0.56006  1.0000
  Fe  Fe25      1.0  0.09573  0.30885  0.36583  1.0000
  S   S45       1.0  0.10866  0.32429  0.38705  1.0000
  S   S46       1.0  0.07469  0.28762  0.37206  1.0000
  H   H50       1.0  0.21342  0.08394  0.33561  1.0000
  H   H51       1.0  0.99765  0.01771  0.61953  1.0000
  H   H52       1.0  0.05618  0.00198  0.53332  1.0000
  S   S47       1.0  0.07960  0.28112  0.32731  1.0000
  Fe  Fe26      1.0  0.10889  0.00536  0.59012  1.0000
  C   C60       1.0  0.12549  0.23084  0.62693  1.0000
  C   C61       1.0  0.12562  0.21821  0.61319  1.0000
  C   C62       1.0  0.13997  0.20388  0.61131  1.0000
  C   C63       1.0  0.15436  0.20175  0.62336  1.0000
  C   C64       1.0  0.15430  0.21444  0.63700  1.0000
  C   C65       1.0  0.14006  0.22889  0.63875  1.0000
  H   H53       1.0  0.15495  0.16695  0.43100  1.0000
  H   H54       1.0  0.13976  0.19435  0.60071  1.0000
  C   C66       1.0  0.09377  0.33659  0.47847  1.0000
  H   H55       1.0  0.99555  0.43800  0.50170  1.0000
  C   C67       1.0  0.14534  0.19580  0.38227  1.0000
  C   C68       1.0  0.12805  0.19005  0.37885  1.0000
  C   C69       1.0  0.11388  0.20318  0.37249  1.0000
  C   C70       1.0  0.11663  0.22228  0.36949  1.0000
  C   C71       1.0  0.13385  0.22807  0.37313  1.0000
  C   C72       1.0  0.14807  0.21493  0.37938  1.0000
  H   H56       1.0  0.12562  0.17546  0.38098  1.0000
  H   H57       1.0  0.10065  0.19845  0.36980  1.0000
  H   H58       1.0  0.13629  0.24265  0.37092  1.0000
  H   H59       1.0  0.16133  0.21963  0.38197  1.0000
  C   C73       1.0  0.17908  0.12745  0.48643  1.0000
  C   C74       1.0  0.19466  0.13782  0.48468  1.0000
  C   C75       1.0  0.20167  0.14374  0.50065  1.0000
  C   C76       1.0  0.19328  0.13933  0.51854  1.0000
  C   C77       1.0  0.17790  0.12871  0.52029  1.0000
  C   C78       1.0  0.17085  0.12285  0.50434  1.0000
  H   H60       1.0  0.20115  0.14149  0.47103  1.0000
  H   H61       1.0  0.21360  0.15192  0.49910  1.0000
  H   H62       1.0  0.17127  0.12518  0.53392  1.0000
  H   H63       1.0  0.15878  0.11487  0.50590  1.0000
  H   H64       1.0  0.03398  0.30504  0.60283  1.0000
  C   C79       1.0  0.13379  0.04238  0.60179  1.0000
  C   C80       1.0  0.11970  0.05530  0.59560  1.0000
  C   C81       1.0  0.12209  0.07448  0.59456  1.0000
  C   C82       1.0  0.13873  0.08096  0.59923  1.0000
  C   C83       1.0  0.15304  0.06803  0.60493  1.0000
  C   C84       1.0  0.15047  0.04885  0.60641  1.0000
  H   H65       1.0  0.10675  0.05056  0.59211  1.0000
  H   H66       1.0  0.11091  0.08434  0.59022  1.0000
  H   H67       1.0  0.16587  0.07281  0.60869  1.0000
  H   H68       1.0  0.16143  0.03899  0.61127  1.0000
  C   C85       1.0  0.10820  0.04513  0.40190  1.0000
  C   C86       1.0  0.12547  0.03674  0.39606  1.0000
  C   C87       1.0  0.14105  0.04735  0.39283  1.0000
  C   C88       1.0  0.13971  0.06635  0.39582  1.0000
  C   C89       1.0  0.12259  0.07460  0.40227  1.0000
  C   C90       1.0  0.10691  0.06409  0.40506  1.0000
  H   H69       1.0  0.12667  0.02223  0.39341  1.0000
  H   H70       1.0  0.15420  0.04081  0.38780  1.0000
  H   H71       1.0  0.12127  0.08920  0.40453  1.0000
  H   H72       1.0  0.09361  0.07076  0.40947  1.0000
  C   C91       1.0  0.01088  0.28148  0.34207  1.0000
  H   H73       1.0  0.03389  0.29169  0.62521  1.0000
  C   C92       1.0  0.07713  0.36323  0.42753  1.0000
  C   C93       1.0  0.06774  0.35602  0.41384  1.0000
  C   C94       1.0  0.07722  0.34427  0.40119  1.0000
  C   C95       1.0  0.09628  0.33977  0.40201  1.0000
  C   C96       1.0  0.10576  0.34732  0.41543  1.0000
  C   C97       1.0  0.09624  0.35894  0.42819  1.0000
  H   H74       1.0  0.05297  0.35933  0.41315  1.0000
  H   H75       1.0  0.06975  0.33862  0.39091  1.0000
  H   H76       1.0  0.12054  0.34402  0.41607  1.0000
  H   H77       1.0  0.10369  0.36458  0.43849  1.0000
  C   C98       1.0  0.09880  0.35120  0.54934  1.0000
  C   C99       1.0  0.10646  0.33487  0.55878  1.0000
  C   C100      1.0  0.10406  0.33187  0.57832  1.0000
  C   C101      1.0  0.09434  0.34541  0.58863  1.0000
  C   C102      1.0  0.08654  0.36165  0.57915  1.0000
  C   C103      1.0  0.08847  0.36440  0.55961  1.0000
  H   H78       1.0  0.11451  0.32459  0.55099  1.0000
  H   H79       1.0  0.11028  0.31938  0.58544  1.0000
  H   H80       1.0  0.07900  0.37220  0.58700  1.0000
  H   H81       1.0  0.08240  0.37697  0.55254  1.0000
  H   H82       1.0  0.09833  0.21197  0.33129  1.0000
  Fe  Fe27      1.0  0.09297  0.00502  0.55260  1.0000
  H   H83       1.0  0.02841  0.31605  0.62425  1.0000
  C   C104      1.0  0.09332  0.46797  0.49014  1.0000
  C   C105      1.0  0.07454  0.47130  0.49571  1.0000
  H   H84       1.0  0.13017  0.37419  0.54455  1.0000
  H   H85       1.0  0.10417  0.36282  0.64502  1.0000
  H   H86       1.0  0.06563  0.45993  0.49746  1.0000
  C   C106      1.0  0.00565  0.99542  0.58415  1.0000
  C   C107      1.0  0.01363  0.38281  0.49244  1.0000
  C   C108      1.0  0.00798  0.39259  0.50795  1.0000
  C   C109      1.0  0.13984  0.15369  0.64535  1.0000
  H   H87       1.0  0.02723  0.38414  0.48559  1.0000
  H   H88       1.0  0.23815  0.06520  0.38609  1.0000
  H   H89       1.0  0.14022  0.23835  0.64944  1.0000
  H   H90       1.0  0.14460  0.21833  0.33494  1.0000
  C   C110      1.0  0.16036  0.17118  0.49577  1.0000
  H   H91       1.0  0.13258  0.32456  0.33232  1.0000
  N   N5        1.0  0.22404  0.07478  0.36186  1.0000
  C   C111      1.0  0.08600  0.30952  0.43845  1.0000
  C   C112      1.0  0.15984  0.17910  0.43696  1.0000
  S   S48       1.0  0.23380  0.10526  0.61518  1.0000
  C   C113      1.0  0.17296  0.18433  0.46609  1.0000
  C   C114      1.0  0.01089  0.30038  0.34454  1.0000
  C   C115      1.0  0.06691  0.31296  0.43723  1.0000
  C   C116      1.0  0.14746  0.16284  0.48660  1.0000
  H   H92       1.0  0.00554  0.36498  0.47273  1.0000
  C   C117      1.0  0.12557  0.41723  0.52167  1.0000
  H   H93       1.0  0.10447  0.42515  0.56344  1.0000
  C   C118      1.0  0.13060  0.39820  0.52468  1.0000
  H   H94       1.0  0.10800  0.12931  0.61258  1.0000
  C   C119      1.0  0.12652  0.38900  0.54210  1.0000
  H   H95       1.0  0.09960  0.36133  0.33177  1.0000
  Fe  Fe28      1.0  0.08364  0.00185  0.40950  1.0000
  C   C120      1.0  0.06721  0.48945  0.49888  1.0000
  H   H96       1.0  0.13730  0.39055  0.51350  1.0000
  C   C121      1.0  0.14765  0.16538  0.46719  1.0000
  H   H97       1.0  0.08541  0.33631  0.49202  1.0000
  H   H98       1.0  0.12872  0.42425  0.50804  1.0000
  H   H99       1.0  0.12056  0.19946  0.33263  1.0000
  H   H100      1.0  0.09622  0.44807  0.52769  1.0000
  H   H101      1.0  0.02392  0.27314  0.34069  1.0000
  N   N6        1.0  0.08446  0.32781  0.46467  1.0000
  C   C122      1.0  0.13055  0.33895  0.33660  1.0000
  H   H102      1.0  0.02998  0.41342  0.45100  1.0000
  H   H103      1.0  0.04196  0.32736  0.44852  1.0000
  H   H104      1.0  0.23284  0.12206  0.35611  1.0000
  C   C123      1.0  0.23896  0.06694  0.37100  1.0000
  C   C124      1.0  0.01540  0.41436  0.45580  1.0000
  N   N7        1.0  0.00715  0.30069  0.61567  1.0000
  C   C125      1.0  0.11625  0.17897  0.64178  1.0000
  C   C126      1.0  0.09345  0.00893  0.48913  1.0000
  C   C127      1.0  0.03675  0.00099  0.49251  1.0000
  H   H105      1.0  0.03203  0.00811  0.53018  1.0000
  H   H106      1.0  0.10752  0.32936  0.48121  1.0000
  C   C128      1.0  0.11720  0.39877  0.55616  1.0000
  H   H107      1.0  0.01888  0.43222  0.47715  1.0000
  H   H108      1.0  0.16531  0.21302  0.64642  1.0000
  N   N8        1.0  0.16036  0.17595  0.45721  1.0000
  H   H109      1.0  0.00619  0.01015  0.58032  1.0000
  S   S49       1.0  0.11963  0.99318  0.56369  1.0000
  C   C129      1.0  0.09585  0.99563  0.47615  1.0000
  N   N9        1.0  0.13210  0.05314  0.47945  1.0000
  C   C130      1.0  0.14350  0.06745  0.47759  1.0000
  C   C131      1.0  0.12791  0.04498  0.46414  1.0000
  C   C132      1.0  0.15128  0.07369  0.46008  1.0000
  C   C133      1.0  0.13541  0.05094  0.44642  1.0000
  C   C134      1.0  0.14722  0.06535  0.44444  1.0000
  C   C135      1.0  0.12389  0.04666  0.49779  1.0000
  H   H110      1.0  0.14668  0.07416  0.48963  1.0000
  H   H111      1.0  0.11870  0.03379  0.46555  1.0000
  H   H112      1.0  0.16039  0.08497  0.45862  1.0000
  H   H113      1.0  0.13202  0.04447  0.43430  1.0000
  H   H114      1.0  0.15318  0.07012  0.43080  1.0000
  H   H115      1.0  0.10871  0.05052  0.49877  1.0000
  H   H116      1.0  0.12610  0.03129  0.50020  1.0000
  H   H117      1.0  0.13004  0.05264  0.50929  1.0000
  C   C136      1.0  0.99471  0.31573  0.61267  1.0000
  C   C137      1.0  0.11068  0.44654  0.53205  1.0000
  C   C138      1.0  0.00903  0.42495  0.47055  1.0000
  H   H118      1.0  0.18305  0.19269  0.45817  1.0000
  H   H119      1.0  0.09418  0.30167  0.42820  1.0000
  H   H120      1.0  0.13783  0.15386  0.49440  1.0000
  H   H121      1.0  0.02909  0.99439  0.46569  1.0000
  C   C139      1.0  0.09462  0.31715  0.45230  1.0000
  N   N10       1.0  0.11716  0.15323  0.62294  1.0000
  H   H122      1.0  0.11925  0.48052  0.48373  1.0000
  H   H123      1.0  0.11449  0.21954  0.60391  1.0000
  H   H124      1.0  0.10956  0.31496  0.45269  1.0000
  C   C140      1.0  0.02680  0.30350  0.61693  1.0000
  H   H125      1.0  0.00784  0.39576  0.43661  1.0000
  C   C141      1.0  0.06576  0.33143  0.46343  1.0000
  H   H126      1.0  0.01128  0.27113  0.61936  1.0000
  C   C142      1.0  0.10470  0.48294  0.48802  1.0000
  H   H127      1.0  0.15875  0.24834  0.32890  1.0000
  H   H128      1.0  0.12030  0.14440  0.59571  1.0000
  H   H129      1.0  0.19989  0.06711  0.37835  1.0000
  C   C143      1.0  0.12842  0.34362  0.64592  1.0000
  S   S50       1.0  0.03177  0.31164  0.34488  1.0000
  H   H130      1.0  0.16079  0.16879  0.51076  1.0000
  S   S51       1.0  0.08249  0.32292  0.34070  1.0000
  N   N11       1.0  0.04665  0.99525  0.50762  1.0000
  N   N12       1.0  0.11661  0.42678  0.53561  1.0000
  C   C144      1.0  0.10920  0.17006  0.62780  1.0000
  C   C145      1.0  0.05668  0.32399  0.44978  1.0000
  C   C146      1.0  0.17322  0.18200  0.48549  1.0000
  S   S52       1.0  0.09187  0.02000  0.52418  1.0000
  H   H131      1.0  0.08886  0.02314  0.48480  1.0000
  H   H132      1.0  0.09755  0.17689  0.62068  1.0000
  H   H133      1.0  0.15037  0.19148  0.43316  1.0000
  H   H134      1.0  0.18357  0.18816  0.49251  1.0000
  C   C147      1.0  0.20669  0.07980  0.37262  1.0000
  C   C148      1.0  0.04609  0.00724  0.52292  1.0000
  H   H135      1.0  0.06019  0.30765  0.42613  1.0000
  C   C149      1.0  0.00146  0.28306  0.61684  1.0000
  H   H136      1.0  0.11917  0.33929  0.34780  1.0000
  H   H137      1.0  0.13869  0.13181  0.62745  1.0000
  C   C150      1.0  0.22519  0.07760  0.34286  1.0000
  H   H138      1.0  0.09576  0.35128  0.47342  1.0000
  H   H139      1.0  0.12652  0.33849  0.63263  1.0000
  C   C151      1.0  0.00125  0.37209  0.48502  1.0000
  H   H140      1.0  0.05784  0.34064  0.47262  1.0000
  H   H141      1.0  0.20950  0.08781  0.38433  1.0000
  H   H142      1.0  0.17384  0.18127  0.43010  1.0000
  S   S53       1.0  0.23683  0.11133  0.39600  1.0000
  H   H143      1.0  0.02876  0.01432  0.49179  1.0000
  H   H144      1.0  0.11138  0.45414  0.54457  1.0000
  C   C152      1.0  0.11007  0.14411  0.60797  1.0000
  H   H145      1.0  0.19668  0.08863  0.36412  1.0000
  H   H146      1.0  0.09367  0.99974  0.46176  1.0000
  C   C153      1.0  0.11592  0.35738  0.65285  1.0000
  H   H147      1.0  0.09661  0.15086  0.60359  1.0000
  H   H148      1.0  0.11966  0.45337  0.52071  1.0000
  H   H149      1.0  0.11029  0.19257  0.64524  1.0000
  H   H150      1.0  0.14332  0.34240  0.34265  1.0000
  C   C154      1.0  0.09646  0.00372  0.50778  1.0000
  C   C155      1.0  0.00294  0.40443  0.44770  1.0000
  C   C156      1.0  0.99374  0.31097  0.34627  1.0000
  H   H151      1.0  0.04996  0.02137  0.51756  1.0000
  H   H152      1.0  0.99927  0.32968  0.61158  1.0000
  S   S54       1.0  0.03962  0.99711  0.59802  1.0000
  S   S55       1.0  0.06754  0.99572  0.43693  1.0000
  H   H153      1.0  0.15227  0.14753  0.65161  1.0000
  C   C157      1.0  0.13177  0.17077  0.65046  1.0000
  H   H154      1.0  0.99418  0.25876  0.33908  1.0000
  H   H155      1.0  0.22940  0.11938  0.55268  1.0000
  C   C158      1.0  0.99397  0.27336  0.34116  1.0000
  C   C159      1.0  0.13755  0.22960  0.32663  1.0000
  Fe  Fe29      1.0  0.06988  0.99251  0.58718  1.0000
  H   H156      1.0  0.23745  0.15049  0.55137  1.0000
  H   H157      1.0  0.23709  0.10297  0.57094  1.0000
  C   C160      1.0  0.24174  0.07279  0.33255  1.0000
  H   H158      1.0  0.15221  0.32482  0.65133  1.0000
  H   H159      1.0  0.99359  0.32562  0.34812  1.0000
  C   C161      1.0  0.14302  0.33607  0.65647  1.0000
  H   H160      1.0  0.24276  0.13468  0.63801  1.0000
  H   H161      1.0  0.21512  0.31957  0.89563  1.0000
  S   S56       1.0  0.01681  0.40882  0.91405  1.0000
  H   H162      1.0  0.24027  0.33546  0.81920  1.0000
  H   H163      1.0  0.99591  0.25002  0.66201  1.0000
  C   C162      1.0  0.02132  0.41647  0.98965  1.0000
  Fe  Fe30      1.0  0.01731  0.39900  0.88546  1.0000
  S   S57       1.0  0.03763  0.40676  0.86095  1.0000
  S   S58       1.0  0.03222  0.30459  0.66470  1.0000
  Fe  Fe31      1.0  0.17840  0.37342  0.80566  1.0000
  S   S59       1.0  0.17277  0.38938  0.77805  1.0000
  S   S60       1.0  0.20621  0.35691  0.81119  1.0000
  Fe  Fe32      1.0  0.13912  0.38337  0.82154  1.0000
  S   S61       1.0  0.13087  0.40045  0.79556  1.0000
  S   S62       1.0  0.12164  0.37557  0.84802  1.0000
  Fe  Fe33      1.0  0.14506  0.37677  0.78004  1.0000
  S   S63       1.0  0.12768  0.36840  0.75682  1.0000
  Fe  Fe34      1.0  0.15893  0.41182  0.79530  1.0000
  S   S64       1.0  0.16782  0.44118  0.78637  1.0000
  S   S65       1.0  0.15176  0.35917  0.80638  1.0000
  S   S66       1.0  0.16619  0.39637  0.82256  1.0000
  Fe  Fe35      1.0  0.10227  0.30310  0.67302  1.0000
  S   S67       1.0  0.08533  0.27804  0.67281  1.0000
  S   S68       1.0  0.12024  0.30902  0.69682  1.0000
  H   H164      1.0  0.05511  0.34349  0.83705  1.0000
  C   C163      1.0  0.01330  0.45173  0.97255  1.0000
  H   H165      1.0  0.01024  0.46545  0.96565  1.0000
  C   C164      1.0  0.13344  0.35624  0.68001  1.0000
  Fe  Fe36      1.0  0.00581  0.38156  0.92459  1.0000
  N   N13       1.0  0.21690  0.42374  0.80726  1.0000
  C   C165      1.0  0.18281  0.33648  0.84946  1.0000
  S   S69       1.0  0.01790  0.36688  0.95052  1.0000
  C   C166      1.0  0.12554  0.35123  0.74077  1.0000
  C   C167      1.0  0.13836  0.33584  0.73890  1.0000
  C   C168      1.0  0.13617  0.32293  0.72581  1.0000
  C   C169      1.0  0.12121  0.32509  0.71423  1.0000
  C   C170      1.0  0.10825  0.34036  0.71624  1.0000
  C   C171      1.0  0.11045  0.35329  0.72932  1.0000
  H   H166      1.0  0.15001  0.33387  0.74755  1.0000
  H   H167      1.0  0.14627  0.31118  0.72460  1.0000
  H   H168      1.0  0.09661  0.34231  0.70758  1.0000
  H   H169      1.0  0.10035  0.36502  0.73057  1.0000
  C   C172      1.0  0.22164  0.35770  0.82916  1.0000
  H   H170      1.0  0.04792  0.38411  0.81745  1.0000
  C   C173      1.0  0.23697  0.39066  0.79951  1.0000
  C   C174      1.0  0.21848  0.37029  0.84282  1.0000
  C   C175      1.0  0.23063  0.41649  0.81839  1.0000
  H   H171      1.0  0.20629  0.37995  0.84267  1.0000
  C   C176      1.0  0.14635  0.46595  0.80819  1.0000
  C   C177      1.0  0.16092  0.46335  0.79464  1.0000
  H   H172      1.0  0.05070  0.36586  0.84630  1.0000
  H   H173      1.0  0.13886  0.45423  0.81402  1.0000
  H   H174      1.0  0.99440  0.31840  0.66187  1.0000
  C   C178      1.0  0.06150  0.39939  0.85880  1.0000
  C   C179      1.0  0.06972  0.38642  0.87180  1.0000
  C   C180      1.0  0.08835  0.37962  0.86857  1.0000
  C   C181      1.0  0.09885  0.38568  0.85234  1.0000
  C   C182      1.0  0.09076  0.39900  0.83961  1.0000
  C   C183      1.0  0.07219  0.40585  0.84287  1.0000
  H   H175      1.0  0.06163  0.38138  0.88414  1.0000
  H   H176      1.0  0.09455  0.36939  0.87855  1.0000
  H   H177      1.0  0.09873  0.40387  0.82713  1.0000
  H   H178      1.0  0.06595  0.41598  0.83281  1.0000
  C   C184      1.0  0.00897  0.37140  0.97329  1.0000
  H   H179      1.0  0.21269  0.44891  0.82105  1.0000
  C   C185      1.0  0.99983  0.48970  0.93045  1.0000
  H   H180      1.0  0.03253  0.35693  0.98608  1.0000
  N   N14       1.0  0.20245  0.33750  0.87458  1.0000
  C   C186      1.0  0.09705  0.36514  0.80072  1.0000
  C   C187      1.0  0.06162  0.35606  0.84018  1.0000
  C   C188      1.0  0.11841  0.36377  0.67002  1.0000
  H   H181      1.0  0.09457  0.38529  0.77711  1.0000
  H   H182      1.0  0.02196  0.40688  0.96224  1.0000
  N   N15       1.0  0.14541  0.34244  0.67326  1.0000
  C   C189      1.0  0.23118  0.37042  0.85667  1.0000
  H   H183      1.0  0.02526  0.26522  0.66357  1.0000
  H   H184      1.0  0.17417  0.33534  0.67584  1.0000
  H   H185      1.0  0.07168  0.35213  0.85097  1.0000
  C   C190      1.0  0.16071  0.33403  0.68406  1.0000
  H   H186      1.0  0.22856  0.38020  0.86716  1.0000
  C   C191      1.0  0.99481  0.30346  0.66172  1.0000
  C   C192      1.0  0.14120  0.48386  0.81398  1.0000
  C   C193      1.0  0.19061  0.35117  0.88175  1.0000
  H   H187      1.0  0.23990  0.09011  0.69556  1.0000
  H   H188      1.0  0.19201  0.43746  0.81812  1.0000
  H   H189      1.0  0.15853  0.35579  0.84941  1.0000
  H   H190      1.0  0.15872  0.31906  0.68786  1.0000
  H   H191      1.0  0.22995  0.32423  0.87478  1.0000
  H   H192      1.0  0.10859  0.37423  0.67572  1.0000
  H   H193      1.0  0.01151  0.44656  0.90275  1.0000
  H   H194      1.0  0.13512  0.36110  0.69347  1.0000
  C   C194      1.0  0.19862  0.33000  0.85876  1.0000
  H   H195      1.0  0.11087  0.35975  0.79607  1.0000
  H   H196      1.0  0.06290  0.39767  0.78797  1.0000
  H   H197      1.0  0.20807  0.31932  0.85291  1.0000
  C   C195      1.0  0.21280  0.41463  0.79253  1.0000
  C   C196      1.0  0.17043  0.47885  0.78724  1.0000
  C   C197      1.0  0.21888  0.33035  0.88439  1.0000
  H   H198      1.0  0.20168  0.42014  0.78393  1.0000
  H   H199      1.0  0.20359  0.45007  0.79864  1.0000
  H   H200      1.0  0.03443  0.46998  0.90264  1.0000
  H   H201      1.0  0.09578  0.34694  0.82580  1.0000
  H   H202      1.0  0.16529  0.36889  0.87836  1.0000
  C   C198      1.0  0.02132  0.47162  0.91076  1.0000
  H   H203      1.0  0.22512  0.34171  0.89051  1.0000
  H   H204      1.0  0.18166  0.47708  0.77668  1.0000
  C   C199      1.0  0.08785  0.37950  0.79003  1.0000
  C   C200      1.0  0.17078  0.35054  0.85655  1.0000
  C   C201      1.0  0.00841  0.45823  0.91098  1.0000
  N   N16       1.0  0.07089  0.36461  0.82320  1.0000
  C   C202      1.0  0.06169  0.37861  0.81273  1.0000
  C   C203      1.0  0.08836  0.35787  0.81741  1.0000
  C   C204      1.0  0.07008  0.38637  0.79609  1.0000
  S   S70       1.0  0.00887  0.37061  0.89617  1.0000
  H   H205      1.0  0.13798  0.17801  0.66061  1.0000
  H   H206      1.0  0.19357  0.35702  0.89435  1.0000
  C   C205      1.0  0.20584  0.44086  0.81157  1.0000
  C   C206      1.0  0.17464  0.35793  0.87282  1.0000
  H   H207      1.0  0.18019  0.33099  0.83654  1.0000
  C   C207      1.0  0.01192  0.29288  0.66277  1.0000
  N   N17       1.0  0.01472  0.44932  0.99140  1.0000
  H   H208      1.0  0.01457  0.43839  0.94692  1.0000
  C   C208      1.0  0.01681  0.48764  0.92003  1.0000
  C   C209      1.0  0.01989  0.41879  0.97045  1.0000
  C   C210      1.0  0.01579  0.43650  0.96183  1.0000
  H   H209      1.0  0.16133  0.34063  0.69724  1.0000
  C   C211      1.0  0.01223  0.27357  0.66261  1.0000
  H   H210      1.0  0.99675  0.33267  0.93009  1.0000
  S   S71       1.0  0.07982  0.32269  0.66113  1.0000
  C   C212      1.0  0.22273  0.39796  0.78846  1.0000
  H   H211      1.0  0.01174  0.46903  0.85910  1.0000
  C   C213      1.0  0.99968  0.47474  0.86710  1.0000
  Fe  Fe37      1.0  0.06362  0.29779  0.65894  1.0000
  C   C214      1.0  0.99555  0.26500  0.66176  1.0000
  H   H212      1.0  0.21907  0.39047  0.77713  1.0000
  C   C215      1.0  0.23763  0.34527  0.82966  1.0000
  C   C216      1.0  0.01918  0.36447  0.98848  1.0000
  H   H213      1.0  0.24151  0.09885  0.67128  1.0000
  H   H214      1.0  0.12974  0.48570  0.82428  1.0000
  H   H215      1.0  0.23355  0.42337  0.83039  1.0000
  H   H216      1.0  0.99324  0.33727  0.96374  1.0000
  C   C217      1.0  0.24098  0.39994  0.81458  1.0000
  C   C218      1.0  0.00016  0.49160  0.87488  1.0000
  Fe  Fe38      1.0  0.01813  0.57456  0.10750  1.0000
  S   S72       1.0  0.03042  0.59038  0.12879  1.0000
  S   S73       1.0  0.02938  0.50622  0.10802  1.0000
  S   S74       1.0  0.03482  0.55742  0.08711  1.0000
  Fe  Fe39      1.0  0.17284  0.58435  0.17250  1.0000
  S   S75       1.0  0.16544  0.56918  0.20058  1.0000
  S   S76       1.0  0.20256  0.58443  0.15848  1.0000
  Fe  Fe40      1.0  0.13179  0.59093  0.16423  1.0000
  S   S77       1.0  0.12175  0.57713  0.19173  1.0000
  S   S78       1.0  0.11618  0.59797  0.13809  1.0000
  Fe  Fe41      1.0  0.14294  0.59254  0.20425  1.0000
  S   S79       1.0  0.13852  0.60088  0.23457  1.0000
  Fe  Fe42      1.0  0.14464  0.55488  0.18649  1.0000
  S   S80       1.0  0.13372  0.52589  0.19040  1.0000
  S   S81       1.0  0.15151  0.60833  0.17665  1.0000
  S   S82       1.0  0.15360  0.56804  0.15852  1.0000
  C   C219      1.0  0.22626  0.63267  0.13832  1.0000
  C   C220      1.0  0.14395  0.50352  0.18565  1.0000
  S   S83       1.0  0.10370  0.66433  0.28682  1.0000
  C   C221      1.0  0.11301  0.64621  0.27268  1.0000
  C   C222      1.0  0.11312  0.64948  0.25317  1.0000
  C   C223      1.0  0.12063  0.63584  0.24131  1.0000
  C   C224      1.0  0.12838  0.61867  0.24876  1.0000
  C   C225      1.0  0.12836  0.61546  0.26830  1.0000
  C   C226      1.0  0.12068  0.62903  0.28016  1.0000
  H   H217      1.0  0.10729  0.66267  0.24710  1.0000
  H   H218      1.0  0.12052  0.63864  0.22639  1.0000
  H   H219      1.0  0.13427  0.60228  0.27431  1.0000
  H   H220      1.0  0.12078  0.62618  0.29508  1.0000
  C   C227      1.0  0.21803  0.60101  0.14783  1.0000
  C   C228      1.0  0.07246  0.55073  0.15495  1.0000
  H   H221      1.0  0.22283  0.64747  0.13833  1.0000
  C   C229      1.0  0.21392  0.62023  0.14776  1.0000
  C   C230      1.0  0.06956  0.52868  0.12616  1.0000
  H   H222      1.0  0.03671  0.71394  0.27957  1.0000
  H   H223      1.0  0.20118  0.62552  0.15485  1.0000
  C   C231      1.0  0.05447  0.59134  0.13141  1.0000
  C   C232      1.0  0.06801  0.58671  0.11743  1.0000
  C   C233      1.0  0.08690  0.58847  0.11981  1.0000
  C   C234      1.0  0.09249  0.59425  0.13639  1.0000
  C   C235      1.0  0.07902  0.59820  0.15064  1.0000
  C   C236      1.0  0.06009  0.59701  0.14804  1.0000
  H   H224      1.0  0.06389  0.58238  0.10456  1.0000
  H   H225      1.0  0.09718  0.58556  0.10862  1.0000
  H   H226      1.0  0.08309  0.60293  0.16337  1.0000
  H   H227      1.0  0.04972  0.60067  0.15891  1.0000
  H   H228      1.0  0.13102  0.71026  0.31153  1.0000
  H   H229      1.0  0.10545  0.54945  0.16719  1.0000
  H   H230      1.0  0.16856  0.52615  0.21420  1.0000
  C   C237      1.0  0.23478  0.59452  0.13854  1.0000
  C   C238      1.0  0.08685  0.53133  0.13247  1.0000
  C   C239      1.0  0.14695  0.67380  0.28783  1.0000
  H   H231      1.0  0.04877  0.71121  0.30084  1.0000
  S   S84       1.0  0.02204  0.57252  0.03760  1.0000
  H   H232      1.0  0.00724  0.68693  0.29797  1.0000
  C   C240      1.0  0.05365  0.65750  0.29100  1.0000
  N   N18       1.0  0.03672  0.68713  0.29401  1.0000
  C   C241      1.0  0.02575  0.49724  0.07259  1.0000
  H   H233      1.0  0.00580  0.61278  0.03774  1.0000
  C   C242      1.0  0.05497  0.54841  0.14896  1.0000
  H   H234      1.0  0.14024  0.67745  0.27495  1.0000
  H   H235      1.0  0.11584  0.53239  0.15265  1.0000
  C   C243      1.0  0.02026  0.65952  0.29552  1.0000
  C   C244      1.0  0.13532  0.70407  0.29821  1.0000
  H   H236      1.0  0.20565  0.57835  0.11643  1.0000
  N   N19       1.0  0.18344  0.59960  0.11533  1.0000
  H   H237      1.0  0.22933  0.84842  0.31872  1.0000
  H   H238      1.0  0.17152  0.63745  0.30984  1.0000
  C   C245      1.0  0.02034  0.67878  0.29578  1.0000
  N   N20       1.0  0.00636  0.61400  0.00814  1.0000
  H   H239      1.0  0.07346  0.55980  0.16588  1.0000
  C   C246      1.0  0.18840  0.63213  0.11125  1.0000
  H   H240      1.0  0.03748  0.57029  0.00023  1.0000
  H   H241      1.0  0.15667  0.64642  0.28012  1.0000
  H   H242      1.0  0.03723  0.63386  0.29319  1.0000
  C   C247      1.0  0.16363  0.66387  0.32084  1.0000
  C   C248      1.0  0.16513  0.60375  0.12050  1.0000
  S   S85       1.0  0.00191  0.55098  0.12035  1.0000
  C   C249      1.0  0.16453  0.65118  0.30735  1.0000
  C   C250      1.0  0.16314  0.49981  0.18280  1.0000
  C   C251      1.0  0.10638  0.54526  0.15274  1.0000
  C   C252      1.0  0.05357  0.53731  0.13449  1.0000
  H   H243      1.0  0.04262  0.55570  0.15505  1.0000
  H   H244      1.0  0.12919  0.50584  0.23221  1.0000
  H   H245      1.0  0.15583  0.59278  0.12395  1.0000
  C   C253      1.0  0.15625  0.65620  0.29067  1.0000
  Fe  Fe43      1.0  0.01180  0.56567  0.06790  1.0000
  H   H246      1.0  0.14407  0.71375  0.28940  1.0000
  H   H247      1.0  0.17216  0.51106  0.18190  1.0000
  H   H248      1.0  0.16465  0.65080  0.11810  1.0000
  Fe  Fe44      1.0  0.01717  0.53466  0.09855  1.0000
  H   H249      1.0  0.02359  0.51197  0.06874  1.0000
  N   N21       1.0  0.08810  0.54211  0.14681  1.0000
  H   H250      1.0  0.18382  0.57114  0.12576  1.0000
  H   H251      1.0  0.09927  0.52478  0.12578  1.0000
  H   H252      1.0  0.20950  0.61027  0.10623  1.0000
  H   H253      1.0  0.04013  0.53558  0.12956  1.0000
  C   C254      1.0  0.19054  0.58016  0.11436  1.0000
  C   C255      1.0  0.01166  0.56883  0.01694  1.0000
  H   H254      1.0  0.16996  0.52496  0.23919  1.0000
  H   H255      1.0  0.14811  0.53051  0.22893  1.0000
  H   H256      1.0  0.11261  0.55646  0.14338  1.0000
  S   S86       1.0  0.99611  0.58497  0.08758  1.0000
  C   C256      1.0  0.16988  0.63645  0.11707  1.0000
  C   C257      1.0  0.16148  0.52184  0.22789  1.0000
  H   H257      1.0  0.19779  0.64305  0.10785  1.0000
  H   H258      1.0  0.06847  0.52013  0.11478  1.0000
  H   H259      1.0  0.12240  0.70265  0.29128  1.0000
  H   H260      1.0  0.06620  0.68339  0.28976  1.0000
  S   S87       1.0  0.08900  0.69851  0.32293  1.0000
  C   C258      1.0  0.15416  0.68134  0.31754  1.0000
  H   H261      1.0  0.23824  0.57972  0.13854  1.0000
  C   C259      1.0  0.05321  0.67679  0.29139  1.0000
  C   C260      1.0  0.19496  0.61352  0.11035  1.0000
  C   C261      1.0  0.15811  0.62219  0.12162  1.0000
  Fe  Fe45      1.0  0.09783  0.66862  0.31803  1.0000
  H   H262      1.0  0.00724  0.65294  0.29751  1.0000
  N   N22       1.0  0.14558  0.68591  0.30137  1.0000
  H   H263      1.0  0.18796  0.57538  0.10074  1.0000
  C   C262      1.0  0.99772  0.61334  0.02565  1.0000
  C   C263      1.0  0.03705  0.64883  0.29320  1.0000
  H   H264      1.0  0.03002  0.62963  0.00509  1.0000
  H   H265      1.0  0.14363  0.62532  0.12610  1.0000
  H   H266      1.0  0.03345  0.60684  0.01739  1.0000
  C   C264      1.0  0.03657  0.70735  0.29402  1.0000
  C   C265      1.0  0.14123  0.49593  0.23145  1.0000
  H   H267      1.0  0.06682  0.64936  0.28916  1.0000
  H   H268      1.0  0.02415  0.71306  0.30225  1.0000
  C   C266      1.0  0.02266  0.56954  0.00006  1.0000
  S   S88       1.0  0.99548  0.54132  0.07806  1.0000
  N   N23       1.0  0.15873  0.50194  0.22909  1.0000
  C   C267      1.0  0.02653  0.61497  0.00570  1.0000
  H   H269      1.0  0.18767  0.49428  0.22483  1.0000
  C   C268      1.0  0.99624  0.61424  0.99292  1.0000
  C   C269      1.0  0.24283  0.87296  0.32289  1.0000
  H   H270      1.0  0.03233  0.60875  0.99283  1.0000
  Fe  Fe46      1.0  0.09928  0.58986  0.48279  1.0000
  S   S89       1.0  0.10884  0.56571  0.50298  1.0000
  S   S90       1.0  0.11622  0.60545  0.45950  1.0000
  Fe  Fe47      1.0  0.06140  0.59410  0.50267  1.0000
  S   S91       1.0  0.06752  0.57077  0.52411  1.0000
  S   S92       1.0  0.03442  0.61138  0.50101  1.0000
  Fe  Fe48      1.0  0.09474  0.58304  0.52523  1.0000
  S   S93       1.0  0.10390  0.58459  0.55442  1.0000
  Fe  Fe49      1.0  0.08070  0.55514  0.50046  1.0000
  S   S94       1.0  0.06828  0.52706  0.50058  1.0000
  S   S95       1.0  0.08746  0.60765  0.50539  1.0000
  S   S96       1.0  0.07240  0.57808  0.47874  1.0000
  C   C270      1.0  0.24144  0.81706  0.53782  1.0000
  S   S97       1.0  0.07008  0.95263  0.42805  1.0000
  C   C271      1.0  0.18073  0.76374  0.43418  1.0000
  C   C272      1.0  0.99931  0.60073  0.50005  1.0000
  H   H271      1.0  0.00716  0.52827  0.52082  1.0000
  Fe  Fe50      1.0  0.08579  0.96096  0.40123  1.0000
  S   S98       1.0  0.09283  0.93576  0.38475  1.0000
  Fe  Fe51      1.0  0.08804  0.97111  0.44026  1.0000
  S   S99       1.0  0.10110  0.95987  0.46641  1.0000
  C   C273      1.0  0.22878  0.89039  0.34784  1.0000
  S   S100      1.0  0.08872  0.64627  0.65026  1.0000
  H   H272      1.0  0.14149  0.78884  0.42989  1.0000
  C   C274      1.0  0.00496  0.56920  0.46561  1.0000
  C   C275      1.0  0.10951  0.77350  0.61098  1.0000
  H   H273      1.0  0.14657  0.96681  0.63975  1.0000
  H   H274      1.0  0.06568  0.95386  0.49450  1.0000
  Fe  Fe52      1.0  0.10429  0.96822  0.57423  1.0000
  S   S101      1.0  0.11973  0.94134  0.56572  1.0000
  H   H275      1.0  0.15873  0.79094  0.44580  1.0000
  Fe  Fe53      1.0  0.17435  0.84882  0.59934  1.0000
  S   S102      1.0  0.20042  0.85688  0.58288  1.0000
  S   S103      1.0  0.15265  0.86898  0.61257  1.0000
  Fe  Fe54      1.0  0.18323  0.80722  0.59620  1.0000
  S   S104      1.0  0.21036  0.81252  0.57950  1.0000
  S   S105      1.0  0.17245  0.77785  0.59890  1.0000
  Fe  Fe55      1.0  0.21488  0.83332  0.60010  1.0000
  H   H276      1.0  0.19825  0.89521  0.36955  1.0000
  Fe  Fe56      1.0  0.19421  0.83574  0.56352  1.0000
  S   S106      1.0  0.19691  0.84521  0.53229  1.0000
  S   S107      1.0  0.18891  0.82619  0.61784  1.0000
  S   S108      1.0  0.16706  0.82955  0.57892  1.0000
  Fe  Fe57      1.0  0.16713  0.80951  0.39338  1.0000
  S   S109      1.0  0.19531  0.80007  0.40340  1.0000
  S   S110      1.0  0.14471  0.78992  0.38754  1.0000
  Fe  Fe58      1.0  0.17240  0.85046  0.40043  1.0000
  S   S111      1.0  0.20084  0.84305  0.41103  1.0000
  S   S112      1.0  0.16473  0.88157  0.40162  1.0000
  Fe  Fe59      1.0  0.20583  0.82566  0.38674  1.0000
  H   H277      1.0  0.16027  0.96769  0.56389  1.0000
  Fe  Fe60      1.0  0.18808  0.81858  0.42688  1.0000
  S   S113      1.0  0.19130  0.80629  0.45697  1.0000
  S   S114      1.0  0.17792  0.83415  0.37526  1.0000
  S   S115      1.0  0.15944  0.82693  0.41775  1.0000
  Fe  Fe61      1.0  0.10053  0.66390  0.62573  1.0000
  S   S116      1.0  0.08412  0.69031  0.63337  1.0000
  S   S117      1.0  0.09979  0.65934  0.59507  1.0000
  S   S118      1.0  0.12006  0.72387  0.65095  1.0000
  H   H278      1.0  0.06463  0.97383  0.52047  1.0000
  S   S119      1.0  0.12575  0.66966  0.64009  1.0000
  Fe  Fe62      1.0  0.09087  0.65689  0.36000  1.0000
  S   S120      1.0  0.08189  0.68596  0.36729  1.0000
  S   S121      1.0  0.08538  0.63190  0.38055  1.0000
  Fe  Fe63      1.0  0.06553  0.68728  0.34181  1.0000
  C   C276      1.0  0.10459  0.97200  0.50040  1.0000
  Fe  Fe64      1.0  0.10619  0.69488  0.34793  1.0000
  S   S122      1.0  0.12948  0.71416  0.35195  1.0000
  H   H279      1.0  0.02985  0.66023  0.34217  1.0000
  S   S123      1.0  0.11625  0.66525  0.34210  1.0000
  H   H280      1.0  0.13505  0.75827  0.65679  1.0000
  H   H281      1.0  0.01166  0.98761  0.39524  1.0000
  H   H282      1.0  0.20501  0.85326  0.34392  1.0000
  S   S124      1.0  0.07815  0.97929  0.56068  1.0000
  C   C277      1.0  0.15373  0.97159  0.59293  1.0000
  H   H283      1.0  0.16994  0.66011  0.33391  1.0000
  H   H284      1.0  0.13683  0.80464  0.58727  1.0000
  H   H285      1.0  0.16853  0.91944  0.60232  1.0000
  C   C278      1.0  0.14080  0.76911  0.37695  1.0000
  C   C279      1.0  0.15497  0.75852  0.36754  1.0000
  C   C280      1.0  0.15121  0.74191  0.36007  1.0000
  C   C281      1.0  0.13323  0.73547  0.36174  1.0000
  C   C282      1.0  0.11909  0.74604  0.37117  1.0000
  C   C283      1.0  0.12286  0.76264  0.37868  1.0000
  H   H286      1.0  0.16886  0.76313  0.36602  1.0000
  H   H287      1.0  0.16235  0.73401  0.35283  1.0000
  H   H288      1.0  0.10518  0.74149  0.37264  1.0000
  H   H289      1.0  0.11169  0.77058  0.38585  1.0000
  C   C284      1.0  0.15869  0.76265  0.61414  1.0000
  C   C285      1.0  0.15402  0.74594  0.60776  1.0000
  C   C286      1.0  0.14243  0.73385  0.61880  1.0000
  C   C287      1.0  0.13535  0.73821  0.63653  1.0000
  C   C288      1.0  0.14031  0.75473  0.64308  1.0000
  C   C289      1.0  0.15181  0.76689  0.63198  1.0000
  H   H290      1.0  0.15924  0.74243  0.59401  1.0000
  H   H291      1.0  0.13883  0.72125  0.61347  1.0000
  H   H292      1.0  0.03204  0.57907  0.46698  1.0000
  H   H293      1.0  0.15529  0.77957  0.63721  1.0000
  C   C290      1.0  0.19461  0.83409  0.51167  1.0000
  C   C291      1.0  0.19513  0.84483  0.49442  1.0000
  C   C292      1.0  0.19389  0.83666  0.47761  1.0000
  C   C293      1.0  0.19233  0.81753  0.47779  1.0000
  C   C294      1.0  0.19190  0.80678  0.49504  1.0000
  C   C295      1.0  0.19293  0.81498  0.51187  1.0000
  H   H294      1.0  0.19647  0.85961  0.49404  1.0000
  H   H295      1.0  0.19433  0.84513  0.46451  1.0000
  N   N24       1.0  0.16229  0.76644  0.43107  1.0000
  H   H296      1.0  0.10516  0.93057  0.44189  1.0000
  H   H297      1.0  0.03013  0.58271  0.53121  1.0000
  H   H298      1.0  0.04308  0.95939  0.37337  1.0000
  C   C296      1.0  0.12800  0.92111  0.57917  1.0000
  C   C297      1.0  0.12371  0.91822  0.59833  1.0000
  C   C298      1.0  0.13121  0.90209  0.60841  1.0000
  C   C299      1.0  0.14317  0.88888  0.59945  1.0000
  C   C300      1.0  0.14746  0.89183  0.58032  1.0000
  C   C301      1.0  0.13979  0.90779  0.57024  1.0000
  H   H299      1.0  0.11461  0.92834  0.60535  1.0000
  H   H300      1.0  0.12778  0.89987  0.62321  1.0000
  H   H301      1.0  0.15659  0.88176  0.57324  1.0000
  H   H302      1.0  0.14314  0.90989  0.55541  1.0000
  C   C302      1.0  0.14470  0.89626  0.39613  1.0000
  C   C303      1.0  0.14363  0.91472  0.40085  1.0000
  C   C304      1.0  0.12781  0.92685  0.39754  1.0000
  C   C305      1.0  0.11296  0.92076  0.38912  1.0000
  C   C306      1.0  0.11412  0.90238  0.38410  1.0000
  C   C307      1.0  0.12985  0.89011  0.38773  1.0000
  H   H303      1.0  0.15506  0.91966  0.40726  1.0000
  H   H304      1.0  0.12721  0.94099  0.40129  1.0000
  H   H305      1.0  0.10277  0.89757  0.37746  1.0000
  H   H306      1.0  0.13051  0.87596  0.38395  1.0000
  C   C308      1.0  0.16017  0.96128  0.57803  1.0000
  N   N25       1.0  0.01447  0.54423  0.49547  1.0000
  H   H307      1.0  0.22638  0.81509  0.53798  1.0000
  H   H308      1.0  0.13556  0.94218  0.44626  1.0000
  H   H309      1.0  0.13320  0.93021  0.46914  1.0000
  H   H310      1.0  0.17398  0.67517  0.64028  1.0000
  H   H311      1.0  0.10865  0.95768  0.50488  1.0000
  C   C309      1.0  0.02233  0.56910  0.47271  1.0000
  H   H312      1.0  0.12455  0.77447  0.58409  1.0000
  C   C310      1.0  0.13158  0.82511  0.61619  1.0000
  C   C311      1.0  0.01658  0.66806  0.34090  1.0000
  S   S125      1.0  0.07328  0.65801  0.33542  1.0000
  H   H313      1.0  0.03218  0.95816  0.60197  1.0000
  H   H314      1.0  0.14157  0.77436  0.45171  1.0000
  H   H315      1.0  0.22918  0.90173  0.35653  1.0000
  H   H316      1.0  0.12405  0.83297  0.62729  1.0000
  C   C312      1.0  0.00048  0.65875  0.33946  1.0000
  H   H317      1.0  0.13873  0.86877  0.43795  1.0000
  H   H318      1.0  0.15234  0.98741  0.62541  1.0000
  C   C313      1.0  0.01951  0.53105  0.51119  1.0000
  C   C314      1.0  0.10828  0.61182  0.43707  1.0000
  C   C315      1.0  0.11736  0.62516  0.42514  1.0000
  C   C316      1.0  0.11066  0.63145  0.40770  1.0000
  C   C317      1.0  0.09500  0.62416  0.40193  1.0000
  C   C318      1.0  0.08627  0.61045  0.41365  1.0000
  C   C319      1.0  0.09278  0.60439  0.43117  1.0000
  H   H319      1.0  0.12947  0.63086  0.42954  1.0000
  H   H320      1.0  0.11761  0.64188  0.39873  1.0000
  H   H321      1.0  0.07429  0.60456  0.40918  1.0000
  H   H322      1.0  0.08588  0.59387  0.44003  1.0000
  C   C320      1.0  0.10365  0.60553  0.56535  1.0000
  C   C321      1.0  0.10645  0.60469  0.58444  1.0000
  C   C322      1.0  0.10550  0.62101  0.59379  1.0000
  C   C323      1.0  0.10192  0.63835  0.58404  1.0000
  C   C324      1.0  0.09929  0.63918  0.56494  1.0000
  C   C325      1.0  0.10007  0.62288  0.55565  1.0000
  H   H323      1.0  0.10929  0.59132  0.59204  1.0000
  H   H324      1.0  0.10762  0.62017  0.60847  1.0000
  H   H325      1.0  0.09658  0.65254  0.55727  1.0000
  H   H326      1.0  0.09799  0.62375  0.54097  1.0000
  H   H327      1.0  0.10627  0.51250  0.48948  1.0000
  C   C326      1.0  0.01823  0.93693  0.40600  1.0000
  C   C327      1.0  0.01767  0.58443  0.52382  1.0000
  C   C328      1.0  0.01581  0.59818  0.50909  1.0000
  H   H328      1.0  0.00667  0.67106  0.61843  1.0000
  C   C329      1.0  0.10244  0.98536  0.51335  1.0000
  H   H329      1.0  0.05108  0.94553  0.39329  1.0000
  H   H330      1.0  0.10463  0.75988  0.60998  1.0000
  C   C330      1.0  0.20119  0.88043  0.36665  1.0000
  N   N26       1.0  0.05583  0.63108  0.58389  1.0000
  C   C331      1.0  0.05086  0.64207  0.56838  1.0000
  C   C332      1.0  0.05936  0.61231  0.58319  1.0000
  C   C333      1.0  0.04957  0.63432  0.55156  1.0000
  C   C334      1.0  0.05825  0.60412  0.56658  1.0000
  C   C335      1.0  0.05332  0.61523  0.55069  1.0000
  C   C336      1.0  0.05656  0.63934  0.60155  1.0000
  H   H331      1.0  0.04815  0.65695  0.56891  1.0000
  H   H332      1.0  0.06366  0.60362  0.59534  1.0000
  C   C337      1.0  0.24159  0.86883  0.53312  1.0000
  H   H333      1.0  0.06187  0.58935  0.56586  1.0000
  H   H334      1.0  0.02871  0.93506  0.41607  1.0000
  H   H335      1.0  0.05998  0.65409  0.59918  1.0000
  H   H336      1.0  0.04303  0.63865  0.60978  1.0000
  H   H337      1.0  0.06770  0.63206  0.60983  1.0000
  N   N27       1.0  0.07129  0.64286  0.44664  1.0000
  C   C338      1.0  0.06239  0.64756  0.43068  1.0000
  C   C339      1.0  0.08665  0.65151  0.44988  1.0000
  C   C340      1.0  0.06910  0.66094  0.41724  1.0000
  C   C341      1.0  0.09369  0.66503  0.43677  1.0000
  C   C342      1.0  0.08487  0.66969  0.42032  1.0000
  C   C343      1.0  0.06416  0.62881  0.46063  1.0000
  H   H338      1.0  0.05038  0.64054  0.42796  1.0000
  H   H339      1.0  0.09395  0.64744  0.46234  1.0000
  H   H340      1.0  0.06252  0.66399  0.40421  1.0000
  H   H341      1.0  0.10624  0.67137  0.43910  1.0000
  H   H342      1.0  0.09050  0.67971  0.40977  1.0000
  H   H343      1.0  0.05584  0.61910  0.45441  1.0000
  H   H344      1.0  0.07580  0.62020  0.46699  1.0000
  H   H345      1.0  0.05541  0.63559  0.47174  1.0000
  N   N28       1.0  0.12343  0.80760  0.61423  1.0000
  C   C344      1.0  0.11265  0.79959  0.62864  1.0000
  C   C345      1.0  0.12759  0.79879  0.59835  1.0000
  C   C346      1.0  0.10544  0.78249  0.62719  1.0000
  C   C347      1.0  0.12062  0.78169  0.59644  1.0000
  C   C348      1.0  0.13872  0.92873  0.45455  1.0000
  H   H346      1.0  0.15326  0.89393  0.45077  1.0000
  H   H347      1.0  0.15405  0.92618  0.45414  1.0000
  H   H348      1.0  0.03623  0.67264  0.63333  1.0000
  C   C349      1.0  0.13927  0.89652  0.44634  1.0000
  H   H349      1.0  0.04763  0.96407  0.46698  1.0000
  C   C350      1.0  0.00662  0.67023  0.63343  1.0000
  N   N29       1.0  0.13004  0.91372  0.44708  1.0000
  C   C351      1.0  0.15043  0.78082  0.44012  1.0000
  H   H350      1.0  0.18682  0.77226  0.44328  1.0000
  C   C352      1.0  0.13104  0.88214  0.43925  1.0000
  H   H351      1.0  0.15949  0.73344  0.40149  1.0000
  C   C353      1.0  0.11244  0.91694  0.44132  1.0000
  C   C354      1.0  0.15462  0.75544  0.41983  1.0000
  C   C355      1.0  0.19216  0.75024  0.42531  1.0000
  H   H352      1.0  0.14001  0.75766  0.41729  1.0000
  H   H353      1.0  0.20687  0.74852  0.42746  1.0000
  C   C356      1.0  0.16559  0.74173  0.41082  1.0000
  C   C357      1.0  0.10385  0.90292  0.43401  1.0000
  C   C358      1.0  0.11327  0.88543  0.43293  1.0000
  C   C359      1.0  0.18452  0.73925  0.41348  1.0000
  H   H354      1.0  0.09024  0.90583  0.42867  1.0000
  H   H355      1.0  0.10704  0.87461  0.42672  1.0000
  N   N30       1.0  0.21512  0.87830  0.35107  1.0000
  H   H356      1.0  0.19073  0.79197  0.49541  1.0000
  H   H357      1.0  0.19325  0.72892  0.40628  1.0000
  H   H358      1.0  0.19253  0.80649  0.52496  1.0000
  N   N31       1.0  0.15259  0.96334  0.61070  1.0000
  C   C360      1.0  0.07854  0.50448  0.49666  1.0000
  C   C361      1.0  0.16234  0.69655  0.65727  1.0000
  H   H359      1.0  0.00488  0.56209  0.54041  1.0000
  S   S126      1.0  0.02071  0.97426  0.43331  1.0000
  C   C362      1.0  0.10088  0.97706  0.48187  1.0000
  C   C363      1.0  0.09738  0.50111  0.49128  1.0000
  S   S127      1.0  0.09505  0.97949  0.60176  1.0000
  H   H360      1.0  0.05265  0.49186  0.50307  1.0000
  Fe  Fe65      1.0  0.05069  0.97787  0.42218  1.0000
  H   H361      1.0  0.18776  0.87535  0.36369  1.0000
  H   H362      1.0  0.05267  0.60912  0.53765  1.0000
  C   C364      1.0  0.02035  0.96617  0.59627  1.0000
  H   H363      1.0  0.04590  0.64303  0.53918  1.0000
  C   C365      1.0  0.04722  0.97271  0.47849  1.0000
  H   H364      1.0  0.13107  0.83443  0.60311  1.0000
  C   C366      1.0  0.00351  0.95788  0.59578  1.0000
  H   H365      1.0  0.00528  0.98563  0.62870  1.0000
  H   H366      1.0  0.04034  0.55645  0.49323  1.0000
  N   N32       1.0  0.02279  0.94280  0.38783  1.0000
  H   H367      1.0  0.02977  0.53668  0.51942  1.0000
  C   C367      1.0  0.02692  0.55635  0.48765  1.0000
  H   H368      1.0  0.15652  0.93810  0.62813  1.0000
  C   C368      1.0  0.16476  0.93420  0.59962  1.0000
  H   H369      1.0  0.04796  0.93454  0.37270  1.0000
  C   C369      1.0  0.04212  0.94568  0.38150  1.0000
  H   H370      1.0  0.23353  0.86140  0.63721  1.0000
  C   C370      1.0  0.02343  0.67114  0.64183  1.0000
  S   S128      1.0  0.03566  0.69997  0.34054  1.0000
  C   C371      1.0  0.21519  0.86345  0.34070  1.0000
  H   H371      1.0  0.02589  0.51789  0.50600  1.0000
  S   S129      1.0  0.10531  0.97796  0.41399  1.0000
  H   H372      1.0  0.20615  0.87240  0.37936  1.0000
  H   H373      1.0  0.00264  0.94344  0.60084  1.0000
  C   C372      1.0  0.99963  0.97765  0.42201  1.0000
  H   H374      1.0  0.15331  0.69104  0.32820  1.0000
  C   C373      1.0  0.22895  0.86062  0.32639  1.0000
  H   H375      1.0  0.00105  0.57928  0.45431  1.0000
  H   H376      1.0  0.10983  0.80625  0.64146  1.0000
  C   C374      1.0  0.99983  0.93401  0.41207  1.0000
  C   C375      1.0  0.15786  0.94484  0.61416  1.0000
  H   H377      1.0  0.14628  0.82228  0.61958  1.0000
  H   H378      1.0  0.09732  0.77589  0.63879  1.0000
  H   H379      1.0  0.10513  0.98130  0.52769  1.0000
  C   C376      1.0  0.00329  0.57286  0.52914  1.0000
  C   C377      1.0  0.05721  0.96693  0.49397  1.0000
  C   C378      1.0  0.01554  0.68746  0.34032  1.0000
  H   H380      1.0  0.17019  0.93418  0.56995  1.0000
  H   H381      1.0  0.99616  0.93009  0.42662  1.0000
  C   C379      1.0  0.14507  0.97443  0.62587  1.0000
  H   H382      1.0  0.16400  0.70769  0.64633  1.0000
  S   S130      1.0  0.23178  0.82441  0.36620  1.0000
  Fe  Fe66      1.0  0.10876  0.69519  0.64902  1.0000
  C   C380      1.0  0.99811  0.69734  0.33863  1.0000
  C   C381      1.0  0.16576  0.94248  0.58144  1.0000
  H   H383      1.0  0.99708  0.71235  0.33823  1.0000
  H   H384      1.0  0.01299  0.95058  0.36098  1.0000
  C   C382      1.0  0.02135  0.98514  0.59102  1.0000
  S   S131      1.0  0.06514  0.98542  0.39418  1.0000
  C   C383      1.0  0.03685  0.98981  0.47774  1.0000
  H   H385      1.0  0.13010  0.97846  0.62431  1.0000
  H   H386      1.0  0.14937  0.98620  0.59019  1.0000
  C   C384      1.0  0.00940  0.94575  0.37533  1.0000
  H   H387      1.0  0.18432  0.64360  0.65571  1.0000
  H   H388      1.0  0.23583  0.84792  0.51567  1.0000
  C   C385      1.0  0.99906  0.98389  0.40319  1.0000
  C   C386      1.0  0.05668  0.97839  0.50856  1.0000
  H   H389      1.0  0.15993  0.64002  0.65502  1.0000
  H   H390      1.0  0.00157  0.64377  0.33960  1.0000
  C   C387      1.0  0.16795  0.67814  0.65396  1.0000
  C   C388      1.0  0.24042  0.85049  0.52906  1.0000
  H   H391      1.0  0.99783  0.61132  0.48860  1.0000
  H   H392      1.0  0.23816  0.88025  0.52290  1.0000
  C   C389      1.0  0.99756  0.54395  0.48835  1.0000
  C   C390      1.0  0.24278  0.88796  0.33366  1.0000
  H   H393      1.0  0.16069  0.58944  0.86618  1.0000
  Fe  Fe67      1.0  0.01657  0.57151  0.89545  1.0000
  S   S132      1.0  0.03263  0.58621  0.87111  1.0000
  H   H394      1.0  0.23178  0.59351  0.89781  1.0000
  S   S133      1.0  0.02530  0.55959  0.92354  1.0000
  C   C391      1.0  0.23905  0.58965  0.84823  1.0000
  Fe  Fe68      1.0  0.17877  0.58071  0.82086  1.0000
  S   S134      1.0  0.17168  0.57037  0.79360  1.0000
  S   S135      1.0  0.20850  0.58167  0.83042  1.0000
  Fe  Fe69      1.0  0.13767  0.58242  0.83577  1.0000
  S   S136      1.0  0.12791  0.57305  0.80989  1.0000
  S   S137      1.0  0.12082  0.58522  0.86331  1.0000
  Fe  Fe70      1.0  0.15223  0.55151  0.81103  1.0000
  S   S138      1.0  0.14297  0.52169  0.81409  1.0000
  Fe  Fe71      1.0  0.14759  0.59253  0.79418  1.0000
  S   S139      1.0  0.13605  0.61472  0.77191  1.0000
  S   S140      1.0  0.16108  0.56035  0.83771  1.0000
  S   S141      1.0  0.15575  0.60354  0.82061  1.0000
  C   C392      1.0  0.24197  0.61736  0.86433  1.0000
  S   S142      1.0  0.09690  0.67993  0.67553  1.0000
  S   S143      1.0  0.12866  0.63167  0.68390  1.0000
  S   S144      1.0  0.00859  0.54452  0.88724  1.0000
  H   H395      1.0  0.12974  0.53673  0.84901  1.0000
  H   H396      1.0  0.15473  0.65658  0.69535  1.0000
  C   C393      1.0  0.18787  0.61042  0.89287  1.0000
  C   C394      1.0  0.06879  0.64373  0.71925  1.0000
  C   C395      1.0  0.15121  0.68598  0.68837  1.0000
  C   C396      1.0  0.13103  0.62755  0.70838  1.0000
  C   C397      1.0  0.12399  0.64035  0.72097  1.0000
  C   C398      1.0  0.12612  0.63633  0.74022  1.0000
  C   C399      1.0  0.13517  0.61945  0.74726  1.0000
  C   C400      1.0  0.14225  0.60670  0.73463  1.0000
  C   C401      1.0  0.14028  0.61078  0.71536  1.0000
  H   H397      1.0  0.11684  0.65330  0.71592  1.0000
  H   H398      1.0  0.12055  0.64633  0.74980  1.0000
  H   H399      1.0  0.14921  0.59365  0.73972  1.0000
  H   H400      1.0  0.14585  0.60075  0.70582  1.0000
  C   C402      1.0  0.11582  0.53678  0.85567  1.0000
  H   H401      1.0  0.21812  0.63720  0.86317  1.0000
  H   H402      1.0  0.05098  0.54463  0.87270  1.0000
  Fe  Fe72      1.0  0.01501  0.53319  0.91584  1.0000
  H   H403      1.0  0.17275  0.50849  0.78721  1.0000
  C   C403      1.0  0.22112  0.59611  0.84305  1.0000
  C   C404      1.0  0.21375  0.61340  0.84854  1.0000
  H   H404      1.0  0.10298  0.59836  0.75168  1.0000
  H   H405      1.0  0.20005  0.61868  0.84469  1.0000
  S   S145      1.0  0.03165  0.50571  0.91710  1.0000
  C   C405      1.0  0.05720  0.58502  0.86918  1.0000
  C   C406      1.0  0.06657  0.58675  0.85146  1.0000
  C   C407      1.0  0.08607  0.58644  0.84944  1.0000
  C   C408      1.0  0.09635  0.58483  0.86516  1.0000
  C   C409      1.0  0.08697  0.58304  0.88288  1.0000
  C   C410      1.0  0.06750  0.58290  0.88490  1.0000
  H   H406      1.0  0.05872  0.58852  0.83923  1.0000
  H   H407      1.0  0.09312  0.58793  0.83573  1.0000
  H   H408      1.0  0.09480  0.58189  0.89512  1.0000
  H   H409      1.0  0.06044  0.58176  0.89862  1.0000
  C   C411      1.0  0.22409  0.62391  0.85904  1.0000
  C   C412      1.0  0.15392  0.70044  0.67459  1.0000
  H   H410      1.0  0.02317  0.57156  0.97002  1.0000
  C   C413      1.0  0.07432  0.63615  0.70252  1.0000
  C   C414      1.0  0.21875  0.60071  0.90358  1.0000
  H   H411      1.0  0.07902  0.60091  0.76052  1.0000
  H   H412      1.0  0.21622  0.59560  0.91840  1.0000
  H   H413      1.0  0.18786  0.62296  0.89996  1.0000
  H   H414      1.0  0.14909  0.71463  0.67713  1.0000
  C   C415      1.0  0.17246  0.60763  0.88323  1.0000
  H   H415      1.0  0.07005  0.64325  0.68951  1.0000
  C   C416      1.0  0.20287  0.58181  0.88423  1.0000
  H   H416      1.0  0.10298  0.53584  0.83004  1.0000
  C   C417      1.0  0.17244  0.59162  0.87394  1.0000
  H   H417      1.0  0.14434  0.68882  0.70176  1.0000
  S   S146      1.0  0.04431  0.67204  0.67252  1.0000
  H   H418      1.0  0.18807  0.56638  0.86679  1.0000
  H   H419      1.0  0.22128  0.61572  0.90263  1.0000
  N   N33       1.0  0.20289  0.59767  0.89311  1.0000
  N   N34       1.0  0.08008  0.53722  0.87261  1.0000
  C   C418      1.0  0.08279  0.53656  0.85375  1.0000
  H   H420      1.0  0.09277  0.53797  0.89812  1.0000
  H   H421      1.0  0.16064  0.61783  0.88278  1.0000
  C   C419      1.0  0.15708  0.66775  0.68463  1.0000
  C   C420      1.0  0.15063  0.49939  0.80651  1.0000
  C   C421      1.0  0.00670  0.66864  0.67200  1.0000
  H   H422      1.0  0.21486  0.57183  0.88408  1.0000
  C   C422      1.0  0.06127  0.53673  0.88160  1.0000
  C   C423      1.0  0.18769  0.57859  0.87446  1.0000
  Fe  Fe73      1.0  0.11242  0.65422  0.66571  1.0000
  H   H423      1.0  0.09484  0.61846  0.76308  1.0000
  N   N35       1.0  0.08541  0.61815  0.73592  1.0000
  C   C424      1.0  0.09077  0.61054  0.71955  1.0000
  C   C425      1.0  0.07448  0.63447  0.73594  1.0000
  C   C426      1.0  0.10070  0.53633  0.84500  1.0000
  H   H424      1.0  0.01259  0.49910  0.87308  1.0000
  H   H425      1.0  0.09022  0.61377  0.68961  1.0000
  C   C427      1.0  0.09073  0.60846  0.75364  1.0000
  H   H426      1.0  0.09967  0.59777  0.71943  1.0000
  H   H427      1.0  0.07019  0.64047  0.74892  1.0000
  H   H428      1.0  0.07109  0.53630  0.84536  1.0000
  C   C428      1.0  0.01459  0.57018  0.98289  1.0000
  C   C429      1.0  0.08541  0.61949  0.70262  1.0000
  H   H429      1.0  0.00663  0.66806  0.68698  1.0000
  H   H430      1.0  0.06018  0.65672  0.71917  1.0000
  H   H431      1.0  0.06009  0.54328  0.89497  1.0000
  C   C430      1.0  0.09489  0.53744  0.88319  1.0000
  C   C431      1.0  0.02357  0.67043  0.66120  1.0000
  H   H432      1.0  0.12465  0.53817  0.88315  1.0000
  C   C432      1.0  0.11295  0.53741  0.87486  1.0000
  H   H433      1.0  0.99948  0.57556  0.85499  1.0000
  N   N36       1.0  0.16536  0.66404  0.66760  1.0000
  C   C433      1.0  0.17051  0.64480  0.66346  1.0000
  H   H434      1.0  0.17114  0.63522  0.67636  1.0000
  H   H435      1.0  0.00307  0.61433  0.97905  1.0000
  H   H436      1.0  0.99497  0.60696  0.86585  1.0000
  Fe  Fe74      1.0  0.99533  0.56601  0.93340  1.0000
  H   H437      1.0  0.05756  0.52212  0.88451  1.0000
  H   H438      1.0  0.99658  0.50167  0.93824  1.0000
  C   C434      1.0  0.99533  0.57035  0.98240  1.0000
  C   C435      1.0  0.16541  0.49673  0.79318  1.0000
  Fe  Fe75      1.0  0.07376  0.67289  0.65874  1.0000
  Fe  Fe76      1.0  0.40362  0.46718  0.07462  1.0000
  C   C436      1.0  0.45019  0.12143  0.11198  1.0000
  S   S147      1.0  0.37818  0.45082  0.07302  1.0000
  Fe  Fe77      1.0  0.44670  0.05685  0.99665  1.0000
  S   S148      1.0  0.39462  0.07269  0.99458  1.0000
  H   H439      1.0  0.37365  0.41734  0.02547  1.0000
  C   C437      1.0  0.44849  0.10529  0.10335  1.0000
  H   H440      1.0  0.33234  0.22659  0.14771  1.0000
  H   H441      1.0  0.44381  0.09412  0.07761  1.0000
  S   S149      1.0  0.43378  0.45663  0.07243  1.0000
  Fe  Fe78      1.0  0.41221  0.07189  0.01910  1.0000
  H   H442      1.0  0.24290  0.07563  0.31755  1.0000
  S   S150      1.0  0.40246  0.07558  0.04935  1.0000
  C   C438      1.0  0.32495  0.38236  0.13367  1.0000
  H   H443      1.0  0.38402  0.20364  0.19841  1.0000
  H   H444      1.0  0.39686  0.03627  0.05321  1.0000
  C   C439      1.0  0.34013  0.29800  0.02895  1.0000
  C   C440      1.0  0.37951  0.37100  0.05594  1.0000
  S   S151      1.0  0.42488  0.04301  0.01511  1.0000
  H   H445      1.0  0.25139  0.33155  0.12748  1.0000
  Fe  Fe79      1.0  0.33558  0.35240  0.09148  1.0000
  S   S152      1.0  0.31291  0.36502  0.07404  1.0000
  S   S153      1.0  0.35836  0.36826  0.10143  1.0000
  Fe  Fe80      1.0  0.32335  0.31276  0.09092  1.0000
  S   S154      1.0  0.29943  0.32308  0.07313  1.0000
  S   S155      1.0  0.32843  0.28094  0.09676  1.0000
  Fe  Fe81      1.0  0.31979  0.34100  0.05642  1.0000
  S   S156      1.0  0.32839  0.34620  0.02532  1.0000
  Fe  Fe82      1.0  0.29400  0.34635  0.09226  1.0000
  S   S157      1.0  0.26628  0.36203  0.10201  1.0000
  S   S158      1.0  0.34377  0.32940  0.07302  1.0000
  S   S159      1.0  0.31665  0.33501  0.11095  1.0000
  Fe  Fe83      1.0  0.40011  0.15816  0.11772  1.0000
  S   S160      1.0  0.41939  0.18063  0.11947  1.0000
  S   S161      1.0  0.39795  0.15184  0.08767  1.0000
  Fe  Fe84      1.0  0.39009  0.15542  0.16022  1.0000
  S   S162      1.0  0.40885  0.17781  0.16439  1.0000
  S   S163      1.0  0.36968  0.14217  0.18279  1.0000
  Fe  Fe85      1.0  0.39701  0.19342  0.13867  1.0000
  S   S164      1.0  0.38976  0.22512  0.13717  1.0000
  Fe  Fe86      1.0  0.42969  0.16341  0.14451  1.0000
  S   S165      1.0  0.46019  0.15244  0.14643  1.0000
  S   S166      1.0  0.37712  0.17195  0.13562  1.0000
  S   S167      1.0  0.41145  0.14007  0.14173  1.0000
  S   S168      1.0  0.45402  0.47519  0.02257  1.0000
  S   S169      1.0  0.36522  0.05571  0.29970  1.0000
  H   H446      1.0  0.39626  0.42942  0.04360  1.0000
  S   S170      1.0  0.32502  0.07464  0.28694  1.0000
  Fe  Fe87      1.0  0.33598  0.04720  0.30094  1.0000
  Fe  Fe88      1.0  0.43833  0.47953  0.09026  1.0000
  Fe  Fe89      1.0  0.35381  0.08393  0.28754  1.0000
  S   S171      1.0  0.37257  0.09837  0.26422  1.0000
  H   H447      1.0  0.41426  0.41340  0.03418  1.0000
  C   C441      1.0  0.37083  0.13046  0.20565  1.0000
  C   C442      1.0  0.38748  0.12662  0.21435  1.0000
  C   C443      1.0  0.38761  0.11718  0.23235  1.0000
  C   C444      1.0  0.37116  0.11138  0.24201  1.0000
  C   C445      1.0  0.35448  0.11533  0.23337  1.0000
  C   C446      1.0  0.35436  0.12474  0.21535  1.0000
  H   H448      1.0  0.40028  0.13090  0.20721  1.0000
  H   H449      1.0  0.40061  0.11430  0.23883  1.0000
  H   H450      1.0  0.34168  0.11105  0.24052  1.0000
  H   H451      1.0  0.34136  0.12763  0.20886  1.0000
  C   C447      1.0  0.40534  0.00719  0.05308  1.0000
  Fe  Fe90      1.0  0.43676  0.47903  0.04917  1.0000
  H   H452      1.0  0.44946  0.09186  0.11130  1.0000
  H   H453      1.0  0.46846  0.19103  0.15005  1.0000
  N   N37       1.0  0.31683  0.28369  0.01455  1.0000
  C   C448      1.0  0.34609  0.26579  0.10757  1.0000
  C   C449      1.0  0.34605  0.24644  0.10658  1.0000
  C   C450      1.0  0.35949  0.23385  0.11510  1.0000
  C   C451      1.0  0.37312  0.24038  0.12499  1.0000
  C   C452      1.0  0.37310  0.25970  0.12605  1.0000
  C   C453      1.0  0.35980  0.27232  0.11733  1.0000
  H   H454      1.0  0.33556  0.24113  0.09910  1.0000
  H   H455      1.0  0.35922  0.21907  0.11412  1.0000
  H   H456      1.0  0.38350  0.26499  0.13365  1.0000
  H   H457      1.0  0.36009  0.28708  0.11833  1.0000
  C   C454      1.0  0.30158  0.33133  0.00669  1.0000
  C   C455      1.0  0.31839  0.33968  0.00543  1.0000
  S   S172      1.0  0.43546  0.08558  0.00256  1.0000
  H   H458      1.0  0.29393  0.32923  0.02004  1.0000
  H   H459      1.0  0.28434  0.35518  0.16237  1.0000
  C   C456      1.0  0.33941  0.21647  0.15727  1.0000
  C   C457      1.0  0.36461  0.37429  0.04470  1.0000
  H   H460      1.0  0.43330  0.15786  0.06152  1.0000
  C   C458      1.0  0.40162  0.09686  0.05985  1.0000
  C   C459      1.0  0.40255  0.11390  0.04923  1.0000
  C   C460      1.0  0.40106  0.13056  0.05803  1.0000
  C   C461      1.0  0.39910  0.13037  0.07752  1.0000
  C   C462      1.0  0.39850  0.11331  0.08818  1.0000
  C   C463      1.0  0.39957  0.09665  0.07936  1.0000
  H   H461      1.0  0.40399  0.11429  0.03422  1.0000
  H   H462      1.0  0.40143  0.14369  0.04965  1.0000
  H   H463      1.0  0.39697  0.11297  0.10319  1.0000
  H   H464      1.0  0.39874  0.08354  0.08770  1.0000
  H   H465      1.0  0.49105  0.48752  0.03703  1.0000
  H   H466      1.0  0.45669  0.16206  0.06658  1.0000
  C   C464      1.0  0.36253  0.39099  0.03360  1.0000
  S   S173      1.0  0.40770  0.48848  0.09466  1.0000
  C   C465      1.0  0.44107  0.46371  0.00842  1.0000
  H   H467      1.0  0.35126  0.30724  0.02786  1.0000
  C   C466      1.0  0.37289  0.42794  0.08150  1.0000
  C   C467      1.0  0.38417  0.41653  0.09337  1.0000
  C   C468      1.0  0.37940  0.39838  0.09951  1.0000
  C   C469      1.0  0.36350  0.39135  0.09366  1.0000
  C   C470      1.0  0.35230  0.40272  0.08169  1.0000
  C   C471      1.0  0.35692  0.42094  0.07578  1.0000
  H   H468      1.0  0.39645  0.42173  0.09795  1.0000
  H   H469      1.0  0.38815  0.38971  0.10880  1.0000
  H   H470      1.0  0.34005  0.39752  0.07703  1.0000
  H   H471      1.0  0.34810  0.42965  0.06659  1.0000
  H   H472      1.0  0.37539  0.22751  0.19415  1.0000
  C   C472      1.0  0.48138  0.18245  0.14931  1.0000
  C   C473      1.0  0.48117  0.16344  0.14742  1.0000
  C   C474      1.0  0.39466  0.02340  0.04741  1.0000
  C   C475      1.0  0.42502  0.45559  0.01596  1.0000
  C   C476      1.0  0.35878  0.19079  0.18077  1.0000
  H   H473      1.0  0.29914  0.26690  0.03267  1.0000
  H   H474      1.0  0.48975  0.47218  0.00059  1.0000
  C   C477      1.0  0.31885  0.39751  0.12180  1.0000
  C   C478      1.0  0.40319  0.41517  0.04550  1.0000
  H   H475      1.0  0.40959  0.41430  0.05906  1.0000
  H   H476      1.0  0.41571  0.00758  0.06304  1.0000
  N   N38       1.0  0.36342  0.20881  0.17842  1.0000
  S   S174      1.0  0.45717  0.47653  0.11412  1.0000
  H   H477      1.0  0.48696  0.48255  0.08383  1.0000
  H   H478      1.0  0.37063  0.04141  0.01269  1.0000
  H   H479      1.0  0.39100  0.21666  0.17699  1.0000
  C   C479      1.0  0.48098  0.48098  0.11355  1.0000
  H   H480      1.0  0.32365  0.19385  0.15189  1.0000
  C   C480      1.0  0.44845  0.13867  0.10164  1.0000
  H   H481      1.0  0.47970  0.48034  0.14339  1.0000
  H   H482      1.0  0.44971  0.15115  0.10851  1.0000
  H   H483      1.0  0.34086  0.17081  0.17316  1.0000
  C   C481      1.0  0.44543  0.10654  0.08447  1.0000
  C   C482      1.0  0.33461  0.19813  0.15956  1.0000
  C   C483      1.0  0.37539  0.40432  0.03404  1.0000
  H   H484      1.0  0.35456  0.36399  0.04475  1.0000
  H   H485      1.0  0.26618  0.36724  0.14955  1.0000
  N   N39       1.0  0.38212  0.02319  0.03426  1.0000
  H   H486      1.0  0.29519  0.41204  0.10921  1.0000
  C   C484      1.0  0.44297  0.15802  0.07270  1.0000
  H   H487      1.0  0.36647  0.18051  0.18965  1.0000
  S   S175      1.0  0.32568  0.02083  0.29138  1.0000
  C   C485      1.0  0.37921  0.21439  0.18751  1.0000
  C   C486      1.0  0.35390  0.22161  0.16692  1.0000
  H   H488      1.0  0.45264  0.12070  0.12665  1.0000
  N   N40       1.0  0.29364  0.37366  0.13949  1.0000
  C   C487      1.0  0.28754  0.38843  0.12779  1.0000
  C   C488      1.0  0.31211  0.37038  0.14229  1.0000
  C   C489      1.0  0.30004  0.40055  0.11874  1.0000
  S   S176      1.0  0.29113  0.09968  0.32290  1.0000
  H   H489      1.0  0.35990  0.02573  0.26888  1.0000
  C   C490      1.0  0.28054  0.36055  0.14820  1.0000
  H   H490      1.0  0.27298  0.39070  0.12508  1.0000
  H   H491      1.0  0.31707  0.35830  0.15100  1.0000
  H   H492      1.0  0.35091  0.39361  0.02488  1.0000
  H   H493      1.0  0.31445  0.27207  0.06109  1.0000
  C   C491      1.0  0.35269  0.99312  0.30211  1.0000
  S   S177      1.0  0.40652  0.48806  0.04968  1.0000
  H   H494      1.0  0.36078  0.00414  0.30532  1.0000
  C   C492      1.0  0.48838  0.48228  0.13062  1.0000
  H   H495      1.0  0.42119  0.45546  0.03068  1.0000
  C   C493      1.0  0.31928  0.27841  0.04758  1.0000
  H   H496      1.0  0.40108  0.44195  0.01013  1.0000
  C   C494      1.0  0.34424  0.18521  0.17147  1.0000
  Fe  Fe91      1.0  0.31940  0.08396  0.31600  1.0000
  H   H497      1.0  0.33602  0.30149  0.99978  1.0000
  N   N41       1.0  0.44492  0.13981  0.08327  1.0000
  N   N42       1.0  0.37898  0.05970  0.24023  1.0000
  C   C495      1.0  0.36341  0.06761  0.23219  1.0000
  C   C496      1.0  0.37784  0.04486  0.25326  1.0000
  C   C497      1.0  0.34611  0.06074  0.23729  1.0000
  C   C498      1.0  0.36082  0.03740  0.25839  1.0000
  C   C499      1.0  0.34485  0.04550  0.25044  1.0000
  C   C500      1.0  0.39699  0.06736  0.23538  1.0000
  H   H498      1.0  0.36423  0.07956  0.22208  1.0000
  H   H499      1.0  0.39007  0.03891  0.26002  1.0000
  H   H500      1.0  0.33372  0.06739  0.23131  1.0000
  H   H501      1.0  0.44114  0.12488  0.05995  1.0000
  H   H502      1.0  0.33149  0.04015  0.25475  1.0000
  H   H503      1.0  0.40758  0.05629  0.23123  1.0000
  H   H504      1.0  0.39630  0.07847  0.22374  1.0000
  H   H505      1.0  0.40149  0.07368  0.24757  1.0000
  N   N43       1.0  0.38978  0.40112  0.04539  1.0000
  C   C501      1.0  0.39209  0.38462  0.05606  1.0000
  S   S178      1.0  0.34765  0.09519  0.31573  1.0000
  C   C502      1.0  0.33505  0.99745  0.29559  1.0000
  C   C503      1.0  0.44386  0.12401  0.07454  1.0000
  H   H506      1.0  0.43669  0.16879  0.08177  1.0000
  H   H507      1.0  0.40338  0.38210  0.06519  1.0000
  H   H508      1.0  0.37766  0.05287  0.03155  1.0000
  C   C504      1.0  0.33137  0.29475  0.01313  1.0000
  H   H509      1.0  0.35700  0.04036  0.03477  1.0000
  H   H510      1.0  0.35801  0.23574  0.16455  1.0000
  C   C505      1.0  0.33411  0.28964  0.04624  1.0000
  H   H511      1.0  0.38095  0.35824  0.06500  1.0000
  C   C506      1.0  0.37128  0.04029  0.02807  1.0000
  H   H512      1.0  0.47340  0.08492  0.99802  1.0000
  H   H513      1.0  0.28046  0.34871  0.13950  1.0000
  C   C507      1.0  0.41375  0.44777  0.00440  1.0000
  H   H514      1.0  0.34083  0.29194  0.05863  1.0000
  H   H515      1.0  0.33963  0.37964  0.13575  1.0000
  H   H516      1.0  0.32876  0.40669  0.11479  1.0000
  C   C508      1.0  0.31072  0.27559  0.03150  1.0000
  C   C509      1.0  0.37926  0.00694  0.02708  1.0000
  S   S179      1.0  0.47617  0.04474  0.99781  1.0000
  C   C510      1.0  0.24598  0.36029  0.11777  1.0000
  H   H517      1.0  0.42694  0.00394  0.00131  1.0000
  H   H518      1.0  0.36951  0.00682  0.01645  1.0000
  C   C511      1.0  0.48754  0.07976  0.99972  1.0000
  C   C512      1.0  0.30771  0.28024  0.99793  1.0000
  H   H519      1.0  0.30970  0.26529  0.99550  1.0000
  C   C513      1.0  0.49255  0.06067  0.00036  1.0000
  H   H520      1.0  0.28165  0.31917  0.99173  1.0000
  H   H521      1.0  0.29263  0.28445  0.99962  1.0000
  C   C514      1.0  0.41987  0.99273  0.99687  1.0000
  C   C515      1.0  0.49251  0.48354  0.09712  1.0000
  S   S180      1.0  0.46318  0.06332  0.42330  1.0000
  Fe  Fe92      1.0  0.47018  0.07364  0.39367  1.0000
  S   S181      1.0  0.45018  0.08634  0.37222  1.0000
  H   H522      1.0  0.39428  0.12732  0.34916  1.0000
  C   C516      1.0  0.25417  0.16057  0.57091  1.0000
  S   S182      1.0  0.46430  0.10034  0.61268  1.0000
  S   S183      1.0  0.37332  0.05885  0.35343  1.0000
  C   C517      1.0  0.48807  0.99692  0.57757  1.0000
  C   C518      1.0  0.39516  0.11021  0.37505  1.0000
  C   C519      1.0  0.28274  0.11011  0.65180  1.0000
  C   C520      1.0  0.28210  0.09483  0.64143  1.0000
  C   C521      1.0  0.26718  0.09378  0.63017  1.0000
  H   H523      1.0  0.48166  0.08272  0.52606  1.0000
  H   H524      1.0  0.27141  0.16642  0.59234  1.0000
  C   C522      1.0  0.27671  0.10356  0.34356  1.0000
  C   C523      1.0  0.28219  0.09746  0.36137  1.0000
  C   C524      1.0  0.26994  0.10030  0.37720  1.0000
  C   C525      1.0  0.48087  0.03329  0.53213  1.0000
  H   H525      1.0  0.46113  0.10492  0.55140  1.0000
  C   C526      1.0  0.25886  0.11260  0.34191  1.0000
  H   H526      1.0  0.29580  0.09046  0.36294  1.0000
  H   H527      1.0  0.27434  0.09550  0.39087  1.0000
  H   H528      1.0  0.40428  0.10299  0.64981  1.0000
  C   C527      1.0  0.44330  0.09121  0.62222  1.0000
  C   C528      1.0  0.43869  0.07377  0.61810  1.0000
  C   C529      1.0  0.42168  0.06702  0.62517  1.0000
  C   C530      1.0  0.40916  0.07742  0.63668  1.0000
  H   H529      1.0  0.26674  0.08171  0.62252  1.0000
  C   C531      1.0  0.36773  0.09392  0.38409  1.0000
  H   H530      1.0  0.44813  0.06552  0.60928  1.0000
  C   C532      1.0  0.49198  0.08523  0.47896  1.0000
  C   C533      1.0  0.25565  0.06181  0.36111  1.0000
  C   C534      1.0  0.43030  0.07637  0.36590  1.0000
  C   C535      1.0  0.42133  0.06307  0.37775  1.0000
  C   C536      1.0  0.40422  0.05731  0.37333  1.0000
  C   C537      1.0  0.39600  0.06463  0.35698  1.0000
  C   C538      1.0  0.40534  0.07734  0.34474  1.0000
  C   C539      1.0  0.42236  0.08325  0.34925  1.0000
  H   H531      1.0  0.42724  0.05776  0.39064  1.0000
  H   H532      1.0  0.39708  0.04746  0.38288  1.0000
  C   C540      1.0  0.25197  0.10906  0.37550  1.0000
  H   H533      1.0  0.47251  0.13235  0.58911  1.0000
  C   C541      1.0  0.24652  0.11521  0.35771  1.0000
  H   H534      1.0  0.46644  0.08748  0.49618  1.0000
  C   C542      1.0  0.26854  0.12456  0.65015  1.0000
  C   C543      1.0  0.24662  0.14659  0.56248  1.0000
  C   C544      1.0  0.25271  0.10799  0.62896  1.0000
  C   C545      1.0  0.26985  0.13702  0.59109  1.0000
  S   S184      1.0  0.47759  0.01138  0.43146  1.0000
  H   H535      1.0  0.26765  0.05618  0.36842  1.0000
  H   H536      1.0  0.43422  0.11521  0.63698  1.0000
  C   C546      1.0  0.38671  0.11829  0.35929  1.0000
  H   H537      1.0  0.44930  0.00159  0.40676  1.0000
  H   H538      1.0  0.33391  0.10804  0.35532  1.0000
  Fe  Fe93      1.0  0.48790  0.07724  0.43063  1.0000
  C   C547      1.0  0.26208  0.12342  0.58232  1.0000
  H   H539      1.0  0.40937  0.11280  0.37718  1.0000
  C   C548      1.0  0.41385  0.09478  0.64107  1.0000
  Fe  Fe94      1.0  0.48392  0.03951  0.41822  1.0000
  S   S185      1.0  0.38766  0.06825  0.64445  1.0000
  S   S186      1.0  0.47964  0.06796  0.57240  1.0000
  H   H540      1.0  0.45485  0.11017  0.57477  1.0000
  H   H541      1.0  0.26504  0.10891  0.58707  1.0000
  N   N44       1.0  0.47980  0.12137  0.56297  1.0000
  H   H542      1.0  0.47965  0.03167  0.54724  1.0000
  H   H543      1.0  0.36075  0.08372  0.39340  1.0000
  H   H544      1.0  0.34123  0.08382  0.36007  1.0000
  N   N45       1.0  0.25024  0.12831  0.56856  1.0000
  H   H545      1.0  0.29290  0.08362  0.64241  1.0000
  C   C549      1.0  0.43080  0.10170  0.63374  1.0000
  H   H546      1.0  0.36244  0.12008  0.34382  1.0000
  H   H547      1.0  0.41817  0.05361  0.62165  1.0000
  H   H548      1.0  0.27016  0.06169  0.33396  1.0000
  H   H549      1.0  0.39250  0.09088  0.39931  1.0000
  H   H550      1.0  0.47354  0.04937  0.46772  1.0000
  C   C550      1.0  0.46522  0.03282  0.52216  1.0000
  C   C551      1.0  0.46104  0.11594  0.56111  1.0000
  Fe  Fe95      1.0  0.48541  0.08043  0.59848  1.0000
  S   S187      1.0  0.48068  0.09031  0.45804  1.0000
  C   C552      1.0  0.34061  0.09770  0.36553  1.0000
  H   H551      1.0  0.27867  0.13304  0.60250  1.0000
  C   C553      1.0  0.25366  0.12356  0.63882  1.0000
  C   C554      1.0  0.48139  0.08527  0.49608  1.0000
  H   H552      1.0  0.39919  0.08307  0.33211  1.0000
  C   C555      1.0  0.26573  0.15572  0.58542  1.0000
  H   H553      1.0  0.48510  0.02627  0.46740  1.0000
  N   N46       1.0  0.35937  0.10224  0.36883  1.0000
  H   H554      1.0  0.45207  0.12819  0.55597  1.0000
  H   H555      1.0  0.46609  0.01150  0.39043  1.0000
  N   N47       1.0  0.48380  0.03785  0.49346  1.0000
  C   C556      1.0  0.45374  0.00323  0.39169  1.0000
  C   C557      1.0  0.25705  0.06485  0.34177  1.0000
  H   H556      1.0  0.48242  0.99309  0.36831  1.0000
  C   C558      1.0  0.46695  0.03512  0.50270  1.0000
  S   S188      1.0  0.47599  0.01567  0.58786  1.0000
  C   C559      1.0  0.38566  0.09789  0.38752  1.0000
  H   H557      1.0  0.44258  0.01122  0.38400  1.0000
  C   C560      1.0  0.36873  0.11406  0.35632  1.0000
  C   C561      1.0  0.49000  0.08274  0.51303  1.0000
  H   H558      1.0  0.45474  0.03480  0.49500  1.0000
  H   H559      1.0  0.26279  0.03970  0.65364  1.0000
  H   H560      1.0  0.33155  0.09745  0.37862  1.0000
  H   H561      1.0  0.42922  0.09354  0.34000  1.0000
  H   H562      1.0  0.25078  0.17507  0.56642  1.0000
  S   S189      1.0  0.48887  0.04834  0.38795  1.0000
  H   H563      1.0  0.45184  0.03073  0.52951  1.0000
  C   C562      1.0  0.48524  0.03999  0.47308  1.0000
  Fe  Fe96      1.0  0.35723  0.06644  0.32758  1.0000
  H   H564      1.0  0.25204  0.10718  0.54996  1.0000
  C   C563      1.0  0.49035  0.99382  0.41992  1.0000
  C   C564      1.0  0.48337  0.12994  0.57824  1.0000
  Fe  Fe97      1.0  0.49113  0.04147  0.58713  1.0000
  H   H565      1.0  0.49068  0.11198  0.53692  1.0000
  S   S190      1.0  0.32854  0.05603  0.32968  1.0000
  H   H566      1.0  0.25446  0.11746  0.32825  1.0000
  H   H567      1.0  0.26886  0.13651  0.65802  1.0000
  Fe  Fe98      1.0  0.38801  0.45858  0.90609  1.0000
  S   S191      1.0  0.37748  0.46808  0.93373  1.0000
  S   S192      1.0  0.36498  0.44632  0.89260  1.0000
  Fe  Fe99      1.0  0.42599  0.47344  0.90949  1.0000
  C   C565      1.0  0.38139  0.15041  0.93675  1.0000
  Fe  Fe100     1.0  0.40487  0.45670  0.94331  1.0000
  C   C566      1.0  0.41397  0.12459  0.73336  1.0000
  S   S193      1.0  0.41486  0.44518  0.91636  1.0000
  C   C567      1.0  0.41844  0.44819  0.98530  1.0000
  H   H568      1.0  0.46785  0.11724  0.94832  1.0000
  S   S194      1.0  0.42072  0.11039  0.95728  1.0000
  Fe  Fe101     1.0  0.31709  0.30706  0.88589  1.0000
  S   S195      1.0  0.28902  0.31321  0.90099  1.0000
  S   S196      1.0  0.32304  0.28065  0.87016  1.0000
  Fe  Fe102     1.0  0.32973  0.34490  0.89331  1.0000
  S   S197      1.0  0.30270  0.35368  0.90845  1.0000
  S   S198      1.0  0.35659  0.35947  0.89125  1.0000
  Fe  Fe103     1.0  0.30463  0.32478  0.92269  1.0000
  S   S199      1.0  0.29608  0.31876  0.95372  1.0000
  Fe  Fe104     1.0  0.28881  0.34171  0.88564  1.0000
  S   S200      1.0  0.26211  0.35825  0.87569  1.0000
  S   S201      1.0  0.33249  0.31641  0.90876  1.0000
  S   S202      1.0  0.31606  0.33517  0.86935  1.0000
  Fe  Fe105     1.0  0.40047  0.14819  0.85422  1.0000
  S   S203      1.0  0.41815  0.17110  0.85852  1.0000
  S   S204      1.0  0.39287  0.12457  0.87567  1.0000
  Fe  Fe106     1.0  0.39395  0.16253  0.81371  1.0000
  S   S205      1.0  0.41129  0.18703  0.81534  1.0000
  S   S206      1.0  0.38007  0.15901  0.78648  1.0000
  Fe  Fe107     1.0  0.43160  0.16656  0.83010  1.0000
  S   S207      1.0  0.46290  0.16068  0.82344  1.0000
  Fe  Fe108     1.0  0.39652  0.19025  0.84382  1.0000
  S   S208      1.0  0.38938  0.21738  0.85837  1.0000
  S   S209      1.0  0.41515  0.14208  0.82672  1.0000
  S   S210      1.0  0.37791  0.16729  0.84123  1.0000
  Fe  Fe109     1.0  0.32588  0.09263  0.67664  1.0000
  S   S211      1.0  0.32613  0.07870  0.70595  1.0000
  H   H569      1.0  0.39093  0.31083  0.87460  1.0000
  H   H570      1.0  0.35933  0.49075  0.87000  1.0000
  S   S212      1.0  0.36778  0.06136  0.69519  1.0000
  H   H571      1.0  0.35805  0.06226  0.75929  1.0000
  Fe  Fe110     1.0  0.33899  0.05329  0.69251  1.0000
  S   S213      1.0  0.32841  0.02480  0.70249  1.0000
  Fe  Fe111     1.0  0.35507  0.08798  0.70657  1.0000
  S   S214      1.0  0.36834  0.09480  0.73323  1.0000
  C   C568      1.0  0.25597  0.06498  0.66720  1.0000
  S   S215      1.0  0.35432  0.10349  0.67793  1.0000
  H   H572      1.0  0.42199  0.16084  0.77966  1.0000
  C   C569      1.0  0.47702  0.10469  0.95026  1.0000
  H   H573      1.0  0.34251  0.01300  0.73780  1.0000
  H   H574      1.0  0.39624  0.03172  0.72312  1.0000
  C   C570      1.0  0.37546  0.14047  0.77296  1.0000
  C   C571      1.0  0.36530  0.14469  0.75705  1.0000
  C   C572      1.0  0.36256  0.13095  0.74501  1.0000
  C   C573      1.0  0.37003  0.11264  0.74862  1.0000
  C   C574      1.0  0.37989  0.10832  0.76473  1.0000
  C   C575      1.0  0.38254  0.12204  0.77682  1.0000
  H   H575      1.0  0.35965  0.15881  0.75386  1.0000
  H   H576      1.0  0.35488  0.13462  0.73280  1.0000
  H   H577      1.0  0.38568  0.09425  0.76784  1.0000
  H   H578      1.0  0.39026  0.11840  0.78900  1.0000
  C   C576      1.0  0.36572  0.31356  0.86040  1.0000
  C   C577      1.0  0.48186  0.17312  0.82846  1.0000
  C   C578      1.0  0.38296  0.03296  0.73106  1.0000
  C   C579      1.0  0.35583  0.30631  0.84733  1.0000
  H   H579      1.0  0.47024  0.20005  0.81825  1.0000
  S   S216      1.0  0.45472  0.47779  0.89527  1.0000
  C   C580      1.0  0.42139  0.12750  0.75004  1.0000
  C   C581      1.0  0.37411  0.00578  0.71717  1.0000
  C   C582      1.0  0.29467  0.32560  0.99060  1.0000
  C   C583      1.0  0.34106  0.26231  0.86836  1.0000
  C   C584      1.0  0.35716  0.26144  0.87802  1.0000
  C   C585      1.0  0.37148  0.24729  0.87516  1.0000
  C   C586      1.0  0.36996  0.23371  0.86271  1.0000
  C   C587      1.0  0.35372  0.23438  0.85333  1.0000
  C   C588      1.0  0.33945  0.24859  0.85610  1.0000
  H   H580      1.0  0.35867  0.27181  0.88750  1.0000
  H   H581      1.0  0.38396  0.24700  0.88250  1.0000
  H   H582      1.0  0.35227  0.22416  0.84364  1.0000
  H   H583      1.0  0.32709  0.24905  0.84854  1.0000
  C   C589      1.0  0.30450  0.32800  0.97312  1.0000
  H   H584      1.0  0.39707  0.27168  0.82009  1.0000
  C   C590      1.0  0.32122  0.33652  0.97184  1.0000
  C   C591      1.0  0.36670  0.15395  0.90224  1.0000
  H   H585      1.0  0.32904  0.33820  0.95856  1.0000
  H   H586      1.0  0.45488  0.08653  0.95125  1.0000
  S   S217      1.0  0.40327  0.44003  0.97088  1.0000
  C   C592      1.0  0.36351  0.29083  0.83847  1.0000
  H   H587      1.0  0.26239  0.33557  0.84380  1.0000
  C   C593      1.0  0.41488  0.11267  0.93382  1.0000
  C   C594      1.0  0.42023  0.12824  0.92221  1.0000
  C   C595      1.0  0.41431  0.13163  0.90404  1.0000
  C   C596      1.0  0.40285  0.11952  0.89735  1.0000
  C   C597      1.0  0.39795  0.10367  0.90878  1.0000
  C   C598      1.0  0.40400  0.10019  0.92690  1.0000
  H   H588      1.0  0.42867  0.13795  0.92743  1.0000
  H   H589      1.0  0.41821  0.14385  0.89539  1.0000
  H   H590      1.0  0.38911  0.09422  0.90371  1.0000
  H   H591      1.0  0.39978  0.08816  0.93568  1.0000
  H   H592      1.0  0.38912  0.48039  0.98397  1.0000
  N   N48       1.0  0.26150  0.07677  0.67906  1.0000
  C   C599      1.0  0.36287  0.42213  0.89223  1.0000
  C   C600      1.0  0.34541  0.41578  0.89010  1.0000
  C   C601      1.0  0.34318  0.39665  0.88992  1.0000
  C   C602      1.0  0.35851  0.38370  0.89147  1.0000
  C   C603      1.0  0.37601  0.39008  0.89337  1.0000
  C   C604      1.0  0.37817  0.40916  0.89390  1.0000
  H   H593      1.0  0.33351  0.42570  0.88863  1.0000
  H   H594      1.0  0.32966  0.39195  0.88833  1.0000
  H   H595      1.0  0.38798  0.38020  0.89442  1.0000
  H   H596      1.0  0.39174  0.41387  0.89524  1.0000
  C   C605      1.0  0.38459  0.16573  0.92400  1.0000
  H   H597      1.0  0.38896  0.05819  0.74244  1.0000
  H   H598      1.0  0.31330  0.28836  0.98522  1.0000
  H   H599      1.0  0.24315  0.06824  0.66035  1.0000
  H   H600      1.0  0.37781  0.18123  0.87953  1.0000
  H   H601      1.0  0.35282  0.01342  0.67055  1.0000
  C   C606      1.0  0.25026  0.34532  0.84359  1.0000
  C   C607      1.0  0.48246  0.19215  0.82321  1.0000
  C   C608      1.0  0.40442  0.13935  0.72353  1.0000
  C   C609      1.0  0.28366  0.04469  0.67185  1.0000
  H   H602      1.0  0.39804  0.13708  0.71092  1.0000
  H   H603      1.0  0.39575  0.18648  0.89324  1.0000
  C   C610      1.0  0.38091  0.18347  0.89390  1.0000
  H   H604      1.0  0.37571  0.42672  0.93057  1.0000
  H   H605      1.0  0.33470  0.03941  0.75697  1.0000
  C   C611      1.0  0.33467  0.00294  0.69332  1.0000
  H   H606      1.0  0.35280  0.48437  0.90392  1.0000
  H   H607      1.0  0.39459  0.16825  0.72315  1.0000
  H   H608      1.0  0.44193  0.14548  0.77356  1.0000
  H   H609      1.0  0.37769  0.25840  0.82878  1.0000
  C   C612      1.0  0.27774  0.07273  0.68757  1.0000
  N   N49       1.0  0.36317  0.40135  0.93841  1.0000
  C   C613      1.0  0.36697  0.38250  0.93918  1.0000
  C   C614      1.0  0.34532  0.40892  0.93735  1.0000
  C   C615      1.0  0.35273  0.37072  0.93855  1.0000
  C   C616      1.0  0.33073  0.39753  0.93682  1.0000
  C   C617      1.0  0.33451  0.37831  0.93743  1.0000
  C   C618      1.0  0.37814  0.41354  0.93946  1.0000
  H   H610      1.0  0.38112  0.37649  0.93981  1.0000
  H   H611      1.0  0.34236  0.42388  0.93649  1.0000
  H   H612      1.0  0.35584  0.35583  0.93842  1.0000
  H   H613      1.0  0.31664  0.40355  0.93558  1.0000
  H   H614      1.0  0.32338  0.36932  0.93679  1.0000
  H   H615      1.0  0.39178  0.40705  0.93434  1.0000
  H   H616      1.0  0.38779  0.14876  0.94994  1.0000
  H   H617      1.0  0.37901  0.41683  0.95403  1.0000
  C   C619      1.0  0.44612  0.46359  0.98939  1.0000
  C   C620      1.0  0.36320  0.13848  0.91466  1.0000
  H   H618      1.0  0.42121  0.13653  0.78554  1.0000
  C   C621      1.0  0.40380  0.99674  0.98727  1.0000
  C   C622      1.0  0.37895  0.04795  0.74194  1.0000
  H   H619      1.0  0.40766  0.17262  0.75285  1.0000
  H   H620      1.0  0.49122  0.48903  0.88354  1.0000
  Fe  Fe112     1.0  0.41907  0.08436  0.97745  1.0000
  H   H621      1.0  0.39760  0.25722  0.84184  1.0000
  N   N50       1.0  0.38059  0.28271  0.84258  1.0000
  C   C623      1.0  0.28901  0.05666  0.68410  1.0000
  C   C624      1.0  0.37067  0.13670  0.93198  1.0000
  S   S218      1.0  0.41770  0.48390  0.93744  1.0000
  C   C625      1.0  0.39051  0.28985  0.85522  1.0000
  H   H622      1.0  0.36877  0.12437  0.94141  1.0000
  H   H623      1.0  0.41501  0.11084  0.72839  1.0000
  S   S219      1.0  0.43206  0.05635  0.97058  1.0000
  H   H624      1.0  0.34200  0.31225  0.84447  1.0000
  C   C626      1.0  0.42654  0.14701  0.77470  1.0000
  C   C627      1.0  0.47538  0.47665  0.90720  1.0000
  H   H625      1.0  0.38824  0.99896  0.71884  1.0000
  H   H626      1.0  0.35981  0.32544  0.86755  1.0000
  H   H627      1.0  0.39324  0.17616  0.92763  1.0000
  N   N51       1.0  0.37742  0.16724  0.90694  1.0000
  S   S220      1.0  0.39392  0.01989  0.98326  1.0000
  C   C628      1.0  0.47614  0.46887  0.92557  1.0000
  C   C629      1.0  0.36153  0.05027  0.75138  1.0000
  C   C630      1.0  0.49167  0.48296  0.89774  1.0000
  C   C631      1.0  0.34705  0.00119  0.67768  1.0000
  H   H628      1.0  0.25807  0.10477  0.68630  1.0000
  H   H629      1.0  0.35543  0.28500  0.82875  1.0000
  H   H630      1.0  0.37217  0.19588  0.89817  1.0000
  H   H631      1.0  0.40407  0.28344  0.85845  1.0000
  Fe  Fe113     1.0  0.36538  0.07631  0.66681  1.0000
  C   C632      1.0  0.43469  0.45596  0.97779  1.0000
  H   H632      1.0  0.35552  0.12752  0.91047  1.0000
  H   H633      1.0  0.46377  0.46384  0.93298  1.0000
  H   H634      1.0  0.45853  0.46985  0.98350  1.0000
  C   C633      1.0  0.32807  0.34239  0.98789  1.0000
  C   C634      1.0  0.38867  0.26681  0.83278  1.0000
  C   C635      1.0  0.38320  0.30531  0.86439  1.0000
  H   H635      1.0  0.28226  0.08217  0.69681  1.0000
  N   N52       1.0  0.37001  0.02053  0.72976  1.0000
  H   H636      1.0  0.42836  0.11586  0.75788  1.0000
  S   S221      1.0  0.33699  0.06672  0.66350  1.0000
  H   H637      1.0  0.37316  0.01182  0.70255  1.0000
  H   H638      1.0  0.36142  0.15482  0.88854  1.0000
  C   C636      1.0  0.34843  0.03750  0.75004  1.0000
  H   H639      1.0  0.25164  0.39400  0.82360  1.0000
  H   H640      1.0  0.43847  0.45608  0.96304  1.0000
  N   N53       1.0  0.41918  0.14461  0.75683  1.0000
  C   C637      1.0  0.40998  0.15922  0.74718  1.0000
  C   C638      1.0  0.40248  0.15682  0.73039  1.0000
  H   H641      1.0  0.29248  0.03226  0.66902  1.0000
  C   C639      1.0  0.48145  0.07130  0.95449  1.0000
  C   C640      1.0  0.46969  0.08740  0.95190  1.0000
  C   C641      1.0  0.24714  0.35791  0.85724  1.0000
  C   C642      1.0  0.35296  0.02258  0.73916  1.0000
  S   S222      1.0  0.29995  0.11126  0.66805  1.0000
  C   C643      1.0  0.24960  0.09340  0.68332  1.0000
  Fe  Fe114     1.0  0.40918  0.04453  0.98962  1.0000
  S   S223      1.0  0.39969  0.48611  0.89661  1.0000
  H   H642      1.0  0.24439  0.37745  0.79680  1.0000
  H   H643      1.0  0.30190  0.05354  0.69076  1.0000
  H   H644      1.0  0.47582  0.05778  0.95625  1.0000
  H   H645      1.0  0.36411  0.99485  0.71978  1.0000
  H   H646      1.0  0.34111  0.34878  0.98676  1.0000
  C   C644      1.0  0.26703  0.04885  0.66330  1.0000
  H   H647      1.0  0.46358  0.51738  0.12283  1.0000
  S   S224      1.0  0.40499  0.53952  0.06387  1.0000
  C   C645      1.0  0.33465  0.60433  0.04172  1.0000
  C   C646      1.0  0.31666  0.58419  0.02685  1.0000
  S   S225      1.0  0.42672  0.88431  0.01427  1.0000
  C   C647      1.0  0.40282  0.99064  0.04549  1.0000
  H   H648      1.0  0.28087  0.61413  0.99990  1.0000
  Fe  Fe115     1.0  0.40226  0.87117  0.00570  1.0000
  S   S226      1.0  0.38649  0.85162  0.02628  1.0000
  H   H649      1.0  0.30876  0.65357  0.16219  1.0000
  Fe  Fe116     1.0  0.28692  0.63998  0.10149  1.0000
  S   S227      1.0  0.31269  0.63191  0.11675  1.0000
  S   S228      1.0  0.25768  0.64265  0.11672  1.0000
  Fe  Fe117     1.0  0.31011  0.64753  0.06430  1.0000
  S   S229      1.0  0.33722  0.63982  0.07751  1.0000
  S   S230      1.0  0.31297  0.65736  0.03329  1.0000
  Fe  Fe118     1.0  0.32259  0.61593  0.09209  1.0000
  S   S231      1.0  0.33236  0.58516  0.09556  1.0000
  Fe  Fe119     1.0  0.32534  0.65683  0.10090  1.0000
  S   S232      1.0  0.34394  0.67405  0.11649  1.0000
  S   S233      1.0  0.29610  0.62264  0.07763  1.0000
  S   S234      1.0  0.29896  0.66593  0.08691  1.0000
  Fe  Fe120     1.0  0.39599  0.79793  0.17110  1.0000
  S   S235      1.0  0.40552  0.76873  0.16355  1.0000
  S   S236      1.0  0.39303  0.80356  0.20213  1.0000
  Fe  Fe121     1.0  0.40056  0.81327  0.13018  1.0000
  S   S237      1.0  0.41054  0.78572  0.12004  1.0000
  S   S238      1.0  0.39944  0.84059  0.11215  1.0000
  Fe  Fe122     1.0  0.38738  0.77402  0.13919  1.0000
  S   S239      1.0  0.36637  0.75698  0.12649  1.0000
  Fe  Fe123     1.0  0.42785  0.78249  0.14492  1.0000
  S   S240      1.0  0.45814  0.77088  0.14202  1.0000
  S   S241      1.0  0.37635  0.80241  0.14806  1.0000
  S   S242      1.0  0.41940  0.81087  0.15369  1.0000
  S   S243      1.0  0.32667  0.89406  0.29269  1.0000
  S   S244      1.0  0.37194  0.88609  0.29136  1.0000
  Fe  Fe124     1.0  0.35064  0.90729  0.30292  1.0000
  S   S245      1.0  0.36020  0.93673  0.30239  1.0000
  Fe  Fe125     1.0  0.34807  0.87150  0.28300  1.0000
  S   S246      1.0  0.34760  0.86288  0.25305  1.0000
  C   C648      1.0  0.46157  0.80478  0.20644  1.0000
  C   C649      1.0  0.45765  0.52534  0.11050  1.0000
  H   H650      1.0  0.44237  0.80234  0.04961  1.0000
  C   C650      1.0  0.34968  0.95984  0.30032  1.0000
  H   H651      1.0  0.44050  0.51175  0.00246  1.0000
  C   C651      1.0  0.41034  0.55012  0.10862  1.0000
  C   C652      1.0  0.38044  0.82049  0.21587  1.0000
  C   C653      1.0  0.36713  0.83377  0.20865  1.0000
  C   C654      1.0  0.35725  0.84647  0.22024  1.0000
  C   C655      1.0  0.36055  0.84627  0.23921  1.0000
  C   C656      1.0  0.37410  0.83323  0.24636  1.0000
  C   C657      1.0  0.38386  0.82041  0.23480  1.0000
  H   H652      1.0  0.36422  0.83407  0.19419  1.0000
  H   H653      1.0  0.34683  0.85643  0.21447  1.0000
  H   H654      1.0  0.37687  0.83278  0.26086  1.0000
  H   H655      1.0  0.39403  0.81023  0.24066  1.0000
  H   H656      1.0  0.46335  0.81821  0.21125  1.0000
  H   H657      1.0  0.31113  0.98605  0.28643  1.0000
  N   N54       1.0  0.33962  0.61328  0.02482  1.0000
  H   H658      1.0  0.46395  0.80633  0.15666  1.0000
  C   C658      1.0  0.40803  0.52133  0.12785  1.0000
  C   C659      1.0  0.35065  0.69722  0.11807  1.0000
  C   C660      1.0  0.34179  0.71303  0.10898  1.0000
  C   C661      1.0  0.34682  0.73104  0.11172  1.0000
  C   C662      1.0  0.36097  0.73367  0.12337  1.0000
  C   C663      1.0  0.36996  0.71783  0.13230  1.0000
  C   C664      1.0  0.36478  0.69985  0.12972  1.0000
  H   H659      1.0  0.33093  0.71142  0.09994  1.0000
  H   H660      1.0  0.33971  0.74305  0.10466  1.0000
  H   H661      1.0  0.38085  0.71943  0.14130  1.0000
  H   H662      1.0  0.37184  0.68784  0.13684  1.0000
  C   C665      1.0  0.42546  0.51330  0.00335  1.0000
  C   C666      1.0  0.30622  0.64751  0.01342  1.0000
  C   C667      1.0  0.29448  0.63299  0.01483  1.0000
  Fe  Fe126     1.0  0.36785  0.86978  0.31895  1.0000
  H   H663      1.0  0.28885  0.62769  0.02836  1.0000
  H   H664      1.0  0.49004  0.89786  0.03256  1.0000
  H   H665      1.0  0.38467  0.54080  0.12169  1.0000
  C   C668      1.0  0.44281  0.81300  0.05909  1.0000
  C   C669      1.0  0.39313  0.84810  0.04936  1.0000
  C   C670      1.0  0.39643  0.86314  0.05907  1.0000
  C   C671      1.0  0.39877  0.86050  0.07825  1.0000
  C   C672      1.0  0.39822  0.84277  0.08778  1.0000
  C   C673      1.0  0.39599  0.82753  0.07787  1.0000
  C   C674      1.0  0.39327  0.83024  0.05873  1.0000
  H   H666      1.0  0.39624  0.87697  0.05200  1.0000
  H   H667      1.0  0.40056  0.87234  0.08582  1.0000
  H   H668      1.0  0.39571  0.81379  0.08505  1.0000
  H   H669      1.0  0.39072  0.81855  0.05126  1.0000
  H   H670      1.0  0.28651  0.70706  0.12030  1.0000
  C   C675      1.0  0.47448  0.77552  0.19587  1.0000
  C   C676      1.0  0.42653  0.97416  0.00121  1.0000
  H   H671      1.0  0.43364  0.50460  0.13095  1.0000
  N   N55       1.0  0.45705  0.77066  0.19340  1.0000
  H   H672      1.0  0.38777  0.97775  0.02623  1.0000
  H   H673      1.0  0.44251  0.85086  0.09320  1.0000
  C   C677      1.0  0.38437  0.55188  0.07215  1.0000
  C   C678      1.0  0.38248  0.57132  0.06858  1.0000
  C   C679      1.0  0.36669  0.58179  0.07565  1.0000
  C   C680      1.0  0.35256  0.57284  0.08623  1.0000
  C   C681      1.0  0.35444  0.55339  0.08971  1.0000
  C   C682      1.0  0.37027  0.54294  0.08273  1.0000
  H   H674      1.0  0.39342  0.57837  0.06054  1.0000
  H   H675      1.0  0.36560  0.59676  0.07316  1.0000
  H   H676      1.0  0.34357  0.54636  0.09790  1.0000
  H   H677      1.0  0.37156  0.52799  0.08562  1.0000
  H   H678      1.0  0.32385  0.95311  0.29085  1.0000
  H   H679      1.0  0.43868  0.97128  0.00908  1.0000
  N   N56       1.0  0.44339  0.83125  0.05243  1.0000
  H   H680      1.0  0.31380  0.70897  0.13833  1.0000
  C   C683      1.0  0.32905  0.68241  0.16201  1.0000
  H   H681      1.0  0.25988  0.60163  0.12207  1.0000
  H   H682      1.0  0.32561  0.67950  0.17714  1.0000
  H   H683      1.0  0.30736  0.57313  0.02769  1.0000
  C   C684      1.0  0.28167  0.67926  0.13176  1.0000
  C   C685      1.0  0.29102  0.69545  0.12985  1.0000
  C   C686      1.0  0.38955  0.99043  0.03257  1.0000
  S   S247      1.0  0.42667  0.93626  0.00171  1.0000
  C   C687      1.0  0.42941  0.54574  0.10559  1.0000
  H   H684      1.0  0.43751  0.55511  0.09635  1.0000
  H   H685      1.0  0.42333  0.53077  0.02611  1.0000
  H   H686      1.0  0.44208  0.79338  0.08354  1.0000
  C   C688      1.0  0.47721  0.79844  0.15505  1.0000
  H   H687      1.0  0.33944  0.60855  0.05436  1.0000
  H   H688      1.0  0.28092  0.65144  0.14495  1.0000
  C   C689      1.0  0.45466  0.75246  0.18702  1.0000
  H   H689      1.0  0.33479  0.69626  0.15966  1.0000
  H   H690      1.0  0.48660  0.76640  0.19228  1.0000
  H   H691      1.0  0.39975  0.51143  0.13621  1.0000
  H   H692      1.0  0.36974  0.79349  0.10322  1.0000
  Fe  Fe127     1.0  0.41253  0.50847  0.06942  1.0000
  H   H693      1.0  0.34016  0.67203  0.15727  1.0000
  C   C690      1.0  0.28794  0.66421  0.14366  1.0000
  C   C691      1.0  0.44181  0.78231  0.19770  1.0000
  C   C692      1.0  0.39958  0.53776  0.11971  1.0000
  C   C693      1.0  0.32212  0.59311  0.00963  1.0000
  C   C694      1.0  0.30647  0.69642  0.14007  1.0000
  H   H694      1.0  0.38895  0.53333  0.02845  1.0000
  H   H695      1.0  0.46525  0.53808  0.10751  1.0000
  C   C695      1.0  0.44384  0.79958  0.20416  1.0000
  C   C696      1.0  0.44327  0.84478  0.06444  1.0000
  H   H696      1.0  0.46671  0.74789  0.17763  1.0000
  C   C697      1.0  0.35999  0.97445  0.30428  1.0000
  C   C698      1.0  0.33376  0.60766  0.00886  1.0000
  C   C699      1.0  0.44261  0.80784  0.07823  1.0000
  C   C700      1.0  0.39649  0.52534  0.01793  1.0000
  H   H697      1.0  0.46025  0.51671  0.09854  1.0000
  S   S248      1.0  0.34520  0.85351  0.31018  1.0000
  C   C701      1.0  0.30363  0.66553  0.15341  1.0000
  N   N57       1.0  0.31259  0.68154  0.15164  1.0000
  C   C702      1.0  0.47823  0.78109  0.14786  1.0000
  N   N58       1.0  0.37910  0.90125  0.24359  1.0000
  C   C703      1.0  0.38817  0.91237  0.25358  1.0000
  C   C704      1.0  0.36097  0.90579  0.23991  1.0000
  C   C705      1.0  0.37914  0.92862  0.25994  1.0000
  C   C706      1.0  0.35146  0.92185  0.24623  1.0000
  C   C707      1.0  0.36066  0.93333  0.25627  1.0000
  C   C708      1.0  0.38849  0.88370  0.23811  1.0000
  H   H698      1.0  0.40226  0.90839  0.25722  1.0000
  H   H699      1.0  0.35359  0.89674  0.23244  1.0000
  H   H700      1.0  0.38610  0.93709  0.26845  1.0000
  H   H701      1.0  0.33694  0.92509  0.24378  1.0000
  H   H702      1.0  0.35334  0.94554  0.26177  1.0000
  H   H703      1.0  0.40332  0.88529  0.23370  1.0000
  H   H704      1.0  0.38752  0.87290  0.25003  1.0000
  H   H705      1.0  0.38194  0.87860  0.22633  1.0000
  C   C709      1.0  0.35196  0.62842  0.02372  1.0000
  N   N59       1.0  0.43766  0.52979  0.11394  1.0000
  H   H706      1.0  0.45302  0.74200  0.19910  1.0000
  H   H707      1.0  0.44217  0.81777  0.10546  1.0000
  C   C710      1.0  0.33195  0.96415  0.29400  1.0000
  C   C711      1.0  0.38701  0.51596  0.00600  1.0000
  C   C712      1.0  0.42720  0.51753  0.12478  1.0000
  C   C713      1.0  0.47701  0.79265  0.20237  1.0000
  H   H708      1.0  0.43167  0.80884  0.20732  1.0000
  C   C714      1.0  0.32477  0.98286  0.29151  1.0000
  H   H709      1.0  0.44295  0.85931  0.05921  1.0000
  C   C715      1.0  0.44311  0.84011  0.08365  1.0000
  C   C716      1.0  0.44278  0.82152  0.09055  1.0000
  H   H710      1.0  0.42793  0.77839  0.19608  1.0000
  C   C717      1.0  0.48596  0.86774  0.99991  1.0000
  N   N60       1.0  0.35227  0.81650  0.09305  1.0000
  C   C718      1.0  0.35410  0.83179  0.10231  1.0000
  C   C719      1.0  0.34956  0.81837  0.07445  1.0000
  C   C720      1.0  0.35292  0.84959  0.09298  1.0000
  C   C721      1.0  0.34836  0.83597  0.06468  1.0000
  C   C722      1.0  0.35010  0.85165  0.07404  1.0000
  C   C723      1.0  0.35473  0.79794  0.10284  1.0000
  H   H711      1.0  0.35716  0.83027  0.11684  1.0000
  H   H712      1.0  0.34880  0.80622  0.06694  1.0000
  H   H713      1.0  0.35509  0.86158  0.10025  1.0000
  H   H714      1.0  0.34694  0.83742  0.04978  1.0000
  H   H715      1.0  0.34999  0.86527  0.06643  1.0000
  H   H716      1.0  0.34855  0.79776  0.11739  1.0000
  H   H717      1.0  0.34797  0.78740  0.09605  1.0000
  H   H718      1.0  0.37373  0.97130  0.30915  1.0000
  H   H719      1.0  0.40383  0.56275  0.10193  1.0000
  H   H720      1.0  0.45007  0.82539  0.02414  1.0000
  C   C724      1.0  0.32305  0.58973  0.04302  1.0000
  C   C725      1.0  0.41584  0.52393  0.01661  1.0000
  H   H721      1.0  0.31897  0.58292  0.05656  1.0000
  C   C726      1.0  0.48072  0.87929  0.01417  1.0000
  S   S249      1.0  0.44328  0.50102  0.06673  1.0000
  C   C727      1.0  0.44307  0.83647  0.03240  1.0000
  H   H722      1.0  0.46648  0.88064  0.01970  1.0000
  H   H723      1.0  0.36664  0.62284  0.02200  1.0000
  H   H724      1.0  0.34879  0.63888  0.01193  1.0000
  H   H725      1.0  0.25405  0.87049  0.31239  1.0000
  H   H726      1.0  0.44232  0.75308  0.17871  1.0000
  H   H727      1.0  0.34989  0.63610  0.03641  1.0000
  C   C728      1.0  0.48463  0.96664  0.99495  1.0000
  H   H728      1.0  0.37198  0.51692  0.00731  1.0000
  C   C729      1.0  0.41756  0.95934  0.99558  1.0000
  H   H729      1.0  0.26977  0.67820  0.12377  1.0000
  H   H730      1.0  0.49093  0.79667  0.20371  1.0000
  H   H731      1.0  0.45064  0.84910  0.02829  1.0000
  H   H732      1.0  0.42851  0.83926  0.02848  1.0000
  C   C730      1.0  0.28998  0.62533  0.99864  1.0000
  C   C731      1.0  0.24296  0.62617  0.12890  1.0000
  Fe  Fe128     1.0  0.32528  0.87663  0.32041  1.0000
  N   N61       1.0  0.39657  0.50566  0.99295  1.0000
  H   H733      1.0  0.31692  0.58927  0.99695  1.0000
  H   H734      1.0  0.41129  0.97803  0.04938  1.0000
  H   H735      1.0  0.49227  0.81858  0.16670  1.0000
  H   H736      1.0  0.46479  0.91497  0.99571  1.0000
  C   C732      1.0  0.31327  0.65427  0.99564  1.0000
  H   H737      1.0  0.33750  0.61487  0.99546  1.0000
  C   C733      1.0  0.24714  0.60695  0.12916  1.0000
  H   H738      1.0  0.47732  0.98021  0.99625  1.0000
  Fe  Fe129     1.0  0.41900  0.90828  0.99338  1.0000
  H   H739      1.0  0.32225  0.66559  0.99434  1.0000
  C   C734      1.0  0.48381  0.89251  0.51107  1.0000
  H   H740      1.0  0.27108  0.87645  0.37137  1.0000
  S   S250      1.0  0.45862  0.90865  0.61600  1.0000
  S   S251      1.0  0.47625  0.91809  0.40682  1.0000
  H   H741      1.0  0.24453  0.85731  0.38132  1.0000
  Fe  Fe130     1.0  0.47287  0.89723  0.38659  1.0000
  S   S252      1.0  0.44577  0.90457  0.37239  1.0000
  H   H742      1.0  0.33256  0.85010  0.35625  1.0000
  C   C735      1.0  0.24852  0.85961  0.63598  1.0000
  H   H743      1.0  0.45762  0.85745  0.63892  1.0000
  H   H744      1.0  0.46999  0.97708  0.59146  1.0000
  S   S253      1.0  0.48012  0.90078  0.45521  1.0000
  H   H745      1.0  0.39264  0.94349  0.65516  1.0000
  H   H746      1.0  0.40500  0.95930  0.63899  1.0000
  C   C736      1.0  0.28748  0.85535  0.63325  1.0000
  C   C737      1.0  0.27696  0.84577  0.62202  1.0000
  C   C738      1.0  0.25738  0.84778  0.62323  1.0000
  H   H747      1.0  0.43450  0.97339  0.39909  1.0000
  S   S254      1.0  0.34804  0.89147  0.33096  1.0000
  H   H748      1.0  0.28409  0.83672  0.61228  1.0000
  H   H749      1.0  0.39275  0.89590  0.33671  1.0000
  H   H750      1.0  0.48950  0.96253  0.35574  1.0000
  C   C739      1.0  0.28186  0.85993  0.34911  1.0000
  C   C740      1.0  0.26925  0.86438  0.36417  1.0000
  C   C741      1.0  0.27862  0.86696  0.64620  1.0000
  C   C742      1.0  0.26419  0.83331  0.34580  1.0000
  C   C743      1.0  0.40798  0.92266  0.60082  1.0000
  H   H751      1.0  0.44097  0.94269  0.38633  1.0000
  Fe  Fe131     1.0  0.48963  0.89503  0.42529  1.0000
  C   C744      1.0  0.44647  0.97115  0.38941  1.0000
  C   C745      1.0  0.39280  0.95084  0.64097  1.0000
  H   H752      1.0  0.41907  0.94455  0.61343  1.0000
  C   C746      1.0  0.34540  0.84605  0.36363  1.0000
  H   H753      1.0  0.39178  0.87636  0.38510  1.0000
  C   C747      1.0  0.43147  0.89059  0.36161  1.0000
  C   C748      1.0  0.43450  0.87123  0.36227  1.0000
  C   C749      1.0  0.42244  0.86079  0.35378  1.0000
  C   C750      1.0  0.40735  0.86959  0.34444  1.0000
  C   C751      1.0  0.40434  0.88893  0.34378  1.0000
  C   C752      1.0  0.41629  0.89933  0.35238  1.0000
  H   H754      1.0  0.44608  0.86432  0.36938  1.0000
  H   H755      1.0  0.42486  0.84583  0.35442  1.0000
  C   C753      1.0  0.27928  0.84419  0.34005  1.0000
  N   N62       1.0  0.45805  0.98502  0.38443  1.0000
  H   H756      1.0  0.25123  0.82792  0.56993  1.0000
  H   H757      1.0  0.38003  0.96039  0.64018  1.0000
  H   H758      1.0  0.36812  0.90292  0.61630  1.0000
  C   C754      1.0  0.43915  0.89614  0.62395  1.0000
  C   C755      1.0  0.43428  0.88107  0.61513  1.0000
  C   C756      1.0  0.41808  0.87222  0.62145  1.0000
  C   C757      1.0  0.40654  0.87844  0.63650  1.0000
  C   C758      1.0  0.42789  0.90202  0.63932  1.0000
  H   H759      1.0  0.44281  0.87642  0.60326  1.0000
  H   H760      1.0  0.41425  0.86072  0.61439  1.0000
  H   H761      1.0  0.33746  0.90501  0.38356  1.0000
  H   H762      1.0  0.34244  0.83494  0.37480  1.0000
  S   S255      1.0  0.48441  0.87347  0.40587  1.0000
  N   N63       1.0  0.35210  0.86194  0.37155  1.0000
  S   S256      1.0  0.38561  0.86779  0.64309  1.0000
  H   H763      1.0  0.25190  0.87792  0.65725  1.0000
  C   C759      1.0  0.47206  0.85978  0.64009  1.0000
  C   C760      1.0  0.40752  0.93589  0.61377  1.0000
  C   C761      1.0  0.25412  0.85354  0.36986  1.0000
  H   H764      1.0  0.47925  0.90013  0.52295  1.0000
  C   C762      1.0  0.36538  0.89247  0.38531  1.0000
  C   C763      1.0  0.47925  0.89972  0.49313  1.0000
  C   C764      1.0  0.34673  0.89270  0.38165  1.0000
  S   S257      1.0  0.29999  0.87496  0.34194  1.0000
  C   C765      1.0  0.37900  0.91247  0.61515  1.0000
  H   H765      1.0  0.43157  0.91363  0.64629  1.0000
  H   H766      1.0  0.41978  0.92106  0.59078  1.0000
  C   C766      1.0  0.39366  0.91082  0.60162  1.0000
  H   H767      1.0  0.37961  0.84924  0.37326  1.0000
  C   C767      1.0  0.34023  0.87713  0.37491  1.0000
  C   C768      1.0  0.41163  0.89329  0.64553  1.0000
  H   H768      1.0  0.25399  0.89715  0.33152  1.0000
  H   H769      1.0  0.46849  0.93726  0.36454  1.0000
  H   H770      1.0  0.36764  0.92704  0.63848  1.0000
  H   H771      1.0  0.32582  0.87758  0.37164  1.0000
  Fe  Fe132     1.0  0.48240  0.90111  0.59477  1.0000
  H   H772      1.0  0.47129  0.91297  0.49135  1.0000
  C   C769      1.0  0.25904  0.86899  0.64739  1.0000
  C   C770      1.0  0.25138  0.83795  0.36061  1.0000
  S   S258      1.0  0.39199  0.85596  0.33463  1.0000
  H   H773      1.0  0.28879  0.84047  0.32851  1.0000
  C   C771      1.0  0.37892  0.92595  0.62779  1.0000
  N   N64       1.0  0.39311  0.93734  0.62707  1.0000
  C   C772      1.0  0.37021  0.86133  0.37581  1.0000
  H   H774      1.0  0.48258  0.83517  0.62724  1.0000
  H   H775      1.0  0.37078  0.90460  0.39006  1.0000
  C   C773      1.0  0.37717  0.87662  0.38258  1.0000
  H   H776      1.0  0.39422  0.89997  0.59218  1.0000
  S   S259      1.0  0.48367  0.91050  0.56409  1.0000
  H   H777      1.0  0.35597  0.84047  0.35318  1.0000
  H   H778      1.0  0.30247  0.85361  0.63196  1.0000
  C   C774      1.0  0.24878  0.83931  0.55937  1.0000
  H   H779      1.0  0.24772  0.80648  0.54806  1.0000
  C   C775      1.0  0.48514  0.89009  0.47748  1.0000
  C   C776      1.0  0.48209  0.97909  0.58199  1.0000
  C   C777      1.0  0.46543  0.95077  0.36991  1.0000
  C   C778      1.0  0.44998  0.95383  0.38222  1.0000
  H   H780      1.0  0.26231  0.82128  0.33853  1.0000
  H   H781      1.0  0.47729  0.97180  0.43672  1.0000
  H   H782      1.0  0.41379  0.91429  0.35179  1.0000
  S   S260      1.0  0.34118  0.90013  0.65294  1.0000
  H   H783      1.0  0.46579  0.88576  0.65231  1.0000
  C   C779      1.0  0.48700  0.97527  0.42506  1.0000
  H   H784      1.0  0.24795  0.81450  0.52380  1.0000
  H   H785      1.0  0.24732  0.88645  0.55409  1.0000
  C   C780      1.0  0.47664  0.87567  0.64766  1.0000
  C   C781      1.0  0.49196  0.96375  0.57452  1.0000
  C   C782      1.0  0.47312  0.98219  0.37216  1.0000
  H   H786      1.0  0.48751  0.94995  0.57832  1.0000
  C   C783      1.0  0.47711  0.96500  0.36484  1.0000
  H   H787      1.0  0.25401  0.86001  0.57756  1.0000
  S   S261      1.0  0.24492  0.83487  0.60878  1.0000
  C   C784      1.0  0.25032  0.85747  0.56381  1.0000
  C   C785      1.0  0.24660  0.87230  0.55063  1.0000
  H   H788      1.0  0.40293  0.89815  0.65718  1.0000
  C   C786      1.0  0.48623  0.84720  0.63361  1.0000
  N   N65       1.0  0.24393  0.83603  0.54213  1.0000
  Fe  Fe133     1.0  0.32055  0.88321  0.67035  1.0000
  C   C787      1.0  0.38252  0.87110  0.85756  1.0000
  S   S262      1.0  0.37333  0.51953  0.93572  1.0000
  Fe  Fe134     1.0  0.41113  0.88182  0.96415  1.0000
  S   S263      1.0  0.40920  0.88037  0.93300  1.0000
  H   H789      1.0  0.31775  0.98793  0.71443  1.0000
  S   S264      1.0  0.43639  0.89580  0.96998  1.0000
  Fe  Fe135     1.0  0.28228  0.62979  0.89170  1.0000
  S   S265      1.0  0.30975  0.63533  0.87608  1.0000
  S   S266      1.0  0.25378  0.63085  0.87870  1.0000
  Fe  Fe136     1.0  0.29985  0.62798  0.93003  1.0000
  S   S267      1.0  0.32843  0.63277  0.91686  1.0000
  S   S268      1.0  0.29205  0.62086  0.96111  1.0000
  Fe  Fe137     1.0  0.31439  0.65495  0.89750  1.0000
  S   S269      1.0  0.32272  0.68534  0.89290  1.0000
  Fe  Fe138     1.0  0.32197  0.61286  0.89650  1.0000
  S   S270      1.0  0.34256  0.59035  0.88537  1.0000
  S   S271      1.0  0.28590  0.65109  0.91193  1.0000
  S   S272      1.0  0.29437  0.60639  0.91082  1.0000
  Fe  Fe139     1.0  0.39744  0.80477  0.82373  1.0000
  S   S273      1.0  0.41325  0.77643  0.82621  1.0000
  S   S274      1.0  0.39698  0.82182  0.79511  1.0000
  Fe  Fe140     1.0  0.39059  0.80409  0.86587  1.0000
  S   S275      1.0  0.40544  0.77591  0.87088  1.0000
  S   S276      1.0  0.37767  0.81743  0.89142  1.0000
  Fe  Fe141     1.0  0.42722  0.78671  0.84966  1.0000
  S   S277      1.0  0.45646  0.77942  0.85956  1.0000
  Fe  Fe142     1.0  0.39023  0.76770  0.84744  1.0000
  S   S278      1.0  0.38048  0.73817  0.84665  1.0000
  S   S279      1.0  0.41303  0.81544  0.84611  1.0000
  S   S280      1.0  0.37369  0.79546  0.84352  1.0000
  C   C788      1.0  0.28426  0.84984  0.69853  1.0000
  S   S281      1.0  0.36827  0.89455  0.68827  1.0000
  H   H790      1.0  0.39161  0.49915  0.96594  1.0000
  C   C789      1.0  0.33764  0.51088  0.90711  1.0000
  S   S282      1.0  0.32287  0.89949  0.69534  1.0000
  H   H791      1.0  0.33537  0.50846  0.92210  1.0000
  Fe  Fe143     1.0  0.34508  0.91498  0.67831  1.0000
  H   H792      1.0  0.30521  0.85823  0.73701  1.0000
  Fe  Fe144     1.0  0.34600  0.87796  0.70378  1.0000
  S   S283      1.0  0.34437  0.86473  0.73426  1.0000
  C   C790      1.0  0.44309  0.73572  0.82604  1.0000
  S   S284      1.0  0.34239  0.86104  0.67973  1.0000
  H   H793      1.0  0.42345  0.71692  0.80502  1.0000
  C   C791      1.0  0.34469  0.96738  0.68014  1.0000
  H   H794      1.0  0.29278  0.71314  0.87641  1.0000
  H   H795      1.0  0.32132  0.81885  0.69702  1.0000
  C   C792      1.0  0.33230  0.96914  0.69580  1.0000
  C   C793      1.0  0.28746  0.70147  0.87074  1.0000
  H   H796      1.0  0.32652  0.95689  0.70286  1.0000
  C   C794      1.0  0.38194  0.83325  0.77825  1.0000
  C   C795      1.0  0.36259  0.83514  0.78143  1.0000
  C   C796      1.0  0.35146  0.84475  0.76784  1.0000
  C   C797      1.0  0.35935  0.85250  0.75073  1.0000
  C   C798      1.0  0.37867  0.85045  0.74749  1.0000
  C   C799      1.0  0.38983  0.84101  0.76116  1.0000
  H   H797      1.0  0.35617  0.82923  0.79435  1.0000
  H   H798      1.0  0.33657  0.84619  0.77061  1.0000
  H   H799      1.0  0.38507  0.85628  0.73451  1.0000
  H   H800      1.0  0.40473  0.83970  0.75843  1.0000
  C   C800      1.0  0.47874  0.78676  0.85142  1.0000
  H   H801      1.0  0.27975  0.83178  0.67009  1.0000
  C   C801      1.0  0.33994  0.69929  0.88086  1.0000
  C   C802      1.0  0.35298  0.69259  0.86731  1.0000
  C   C803      1.0  0.36524  0.70465  0.85714  1.0000
  C   C804      1.0  0.36497  0.72353  0.86051  1.0000
  C   C805      1.0  0.35216  0.73016  0.87428  1.0000
  C   C806      1.0  0.33969  0.71817  0.88424  1.0000
  H   H802      1.0  0.35341  0.67817  0.86444  1.0000
  H   H803      1.0  0.37499  0.69926  0.84653  1.0000
  H   H804      1.0  0.35166  0.74459  0.87712  1.0000
  H   H805      1.0  0.32974  0.72361  0.89467  1.0000
  H   H806      1.0  0.35168  0.84992  0.88691  1.0000
  C   C807      1.0  0.29395  0.82818  0.67480  1.0000
  H   H807      1.0  0.34793  0.52103  0.85429  1.0000
  H   H808      1.0  0.26303  0.59477  0.86269  1.0000
  C   C808      1.0  0.39242  0.86934  0.84035  1.0000
  C   C809      1.0  0.29731  0.63188  0.98088  1.0000
  C   C810      1.0  0.30896  0.64646  0.97949  1.0000
  H   H809      1.0  0.35190  0.83899  0.85619  1.0000
  H   H810      1.0  0.31465  0.65173  0.96596  1.0000
  N   N66       1.0  0.33488  0.53121  0.87914  1.0000
  C   C811      1.0  0.40147  0.86172  0.92227  1.0000
  C   C812      1.0  0.38831  0.85031  0.93122  1.0000
  C   C813      1.0  0.38144  0.83654  0.92170  1.0000
  C   C814      1.0  0.38803  0.83368  0.90335  1.0000
  C   C815      1.0  0.40166  0.84467  0.89457  1.0000
  C   C816      1.0  0.40811  0.85883  0.90390  1.0000
  H   H811      1.0  0.38295  0.85253  0.94528  1.0000
  H   H812      1.0  0.37078  0.82820  0.92854  1.0000
  H   H813      1.0  0.40679  0.84266  0.88042  1.0000
  H   H814      1.0  0.41829  0.86763  0.89689  1.0000
  C   C817      1.0  0.48130  0.79985  0.83618  1.0000
  C   C818      1.0  0.32735  0.98680  0.70232  1.0000
  C   C819      1.0  0.24937  0.60011  0.85879  1.0000
  C   C820      1.0  0.37262  0.84576  0.83436  1.0000
  H   H815      1.0  0.46948  0.80586  0.82888  1.0000
  C   C821      1.0  0.39470  0.98194  0.98178  1.0000
  H   H816      1.0  0.34550  0.87366  0.87823  1.0000
  C   C822      1.0  0.35206  0.57153  0.89994  1.0000
  C   C823      1.0  0.36556  0.55878  0.89231  1.0000
  C   C824      1.0  0.37242  0.54289  0.90312  1.0000
  C   C825      1.0  0.36595  0.53973  0.92175  1.0000
  C   C826      1.0  0.35270  0.55264  0.92946  1.0000
  C   C827      1.0  0.34571  0.56843  0.91860  1.0000
  H   H817      1.0  0.37067  0.56116  0.87793  1.0000
  H   H818      1.0  0.38269  0.53310  0.89705  1.0000
  H   H819      1.0  0.34764  0.55033  0.94386  1.0000
  H   H820      1.0  0.33534  0.57814  0.92463  1.0000
  N   N67       1.0  0.36814  0.86029  0.86308  1.0000
  C   C828      1.0  0.34485  0.51819  0.86912  1.0000
  C   C829      1.0  0.35135  0.50111  0.87787  1.0000
  H   H821      1.0  0.32677  0.83254  0.72600  1.0000
  H   H822      1.0  0.42175  0.82841  0.95295  1.0000
  C   C830      1.0  0.35200  0.98355  0.67118  1.0000
  H   H823      1.0  0.39454  0.95209  0.98138  1.0000
  H   H824      1.0  0.27803  0.86970  0.71902  1.0000
  H   H825      1.0  0.29631  0.81281  0.67612  1.0000
  H   H826      1.0  0.30398  0.83408  0.66390  1.0000
  C   C831      1.0  0.30246  0.85168  0.72472  1.0000
  N   N68       1.0  0.29582  0.69460  0.85493  1.0000
  C   C832      1.0  0.35724  0.86311  0.88064  1.0000
  H   H827      1.0  0.26661  0.69781  0.89344  1.0000
  H   H828      1.0  0.32385  0.53826  0.90601  1.0000
  H   H829      1.0  0.32357  0.69317  0.84333  1.0000
  N   N69       1.0  0.43830  0.81773  0.90995  1.0000
  C   C833      1.0  0.42753  0.81714  0.92633  1.0000
  C   C834      1.0  0.45269  0.82898  0.90718  1.0000
  C   C835      1.0  0.43068  0.82846  0.94023  1.0000
  C   C836      1.0  0.45617  0.84056  0.92077  1.0000
  C   C837      1.0  0.44501  0.84034  0.93735  1.0000
  C   C838      1.0  0.43484  0.80567  0.89561  1.0000
  H   H830      1.0  0.41610  0.80825  0.92852  1.0000
  H   H831      1.0  0.46147  0.82916  0.89434  1.0000
  C   C839      1.0  0.47414  0.91952  0.98354  1.0000
  H   H832      1.0  0.46736  0.84973  0.91845  1.0000
  H   H833      1.0  0.44735  0.84949  0.94788  1.0000
  H   H834      1.0  0.41981  0.80365  0.89558  1.0000
  H   H835      1.0  0.43928  0.81178  0.88147  1.0000
  H   H836      1.0  0.44263  0.79191  0.89804  1.0000
  H   H837      1.0  0.38647  0.88107  0.86654  1.0000
  C   C840      1.0  0.40163  0.96333  0.98576  1.0000
  S   S285      1.0  0.46961  0.85544  0.99061  1.0000
  H   H838      1.0  0.45986  0.73799  0.86823  1.0000
  H   H839      1.0  0.46661  0.74820  0.83499  1.0000
  H   H840      1.0  0.25495  0.67025  0.88137  1.0000
  C   C841      1.0  0.27266  0.69282  0.88049  1.0000
  C   C842      1.0  0.32818  0.54892  0.86954  1.0000
  H   H841      1.0  0.40392  0.87778  0.83606  1.0000
  C   C843      1.0  0.38733  0.85664  0.82867  1.0000
  S   S286      1.0  0.29104  0.87849  0.66186  1.0000
  C   C844      1.0  0.36316  0.84770  0.85175  1.0000
  S   S287      1.0  0.41822  0.85638  0.98290  1.0000
  Fe  Fe145     1.0  0.36322  0.87921  0.66378  1.0000
  C   C845      1.0  0.28963  0.67932  0.84831  1.0000
  C   C846      1.0  0.28721  0.85808  0.71467  1.0000
  H   H842      1.0  0.39484  0.85511  0.81524  1.0000
  H   H843      1.0  0.24500  0.57635  0.84409  1.0000
  H   H844      1.0  0.40718  0.73534  0.81310  1.0000
  N   N70       1.0  0.29633  0.83580  0.69245  1.0000
  H   H845      1.0  0.31849  0.54654  0.85901  1.0000
  C   C847      1.0  0.31140  0.82954  0.70216  1.0000
  H   H846      1.0  0.36871  0.83580  0.82534  1.0000
  H   H847      1.0  0.34006  0.55626  0.86261  1.0000
  S   S288      1.0  0.35170  0.94553  0.67116  1.0000
  H   H848      1.0  0.29641  0.67371  0.83594  1.0000
  H   H849      1.0  0.31607  0.71483  0.85239  1.0000
  H   H850      1.0  0.36591  0.86777  0.89110  1.0000
  H   H851      1.0  0.27265  0.85526  0.69052  1.0000
  C   C848      1.0  0.31458  0.83723  0.71852  1.0000
  H   H852      1.0  0.32082  0.55849  0.87931  1.0000
  H   H853      1.0  0.38223  0.98488  0.97439  1.0000
  H   H854      1.0  0.37148  0.49945  0.98163  1.0000
  H   H855      1.0  0.30762  0.70951  0.83089  1.0000
  C   C849      1.0  0.31149  0.70352  0.84485  1.0000
  C   C850      1.0  0.27470  0.67049  0.85757  1.0000
  C   C851      1.0  0.33123  0.52775  0.89792  1.0000
  C   C852      1.0  0.43558  0.72434  0.86327  1.0000
  C   C853      1.0  0.45491  0.73995  0.83916  1.0000
  H   H856      1.0  0.41190  0.71283  0.85413  1.0000
  H   H857      1.0  0.44582  0.74074  0.81159  1.0000
  C   C854      1.0  0.38665  0.49564  0.98062  1.0000
  H   H858      1.0  0.43221  0.72024  0.87784  1.0000
  Fe  Fe146     1.0  0.44191  0.87129  0.99022  1.0000
  C   C855      1.0  0.42414  0.72021  0.84976  1.0000
  C   C856      1.0  0.41549  0.72227  0.81739  1.0000
  H   H859      1.0  0.40555  0.71189  0.82293  1.0000
  H   H860      1.0  0.46551  0.92409  0.97168  1.0000
  C   C857      1.0  0.45109  0.73423  0.85789  1.0000
  N   N71       1.0  0.42801  0.72586  0.83140  1.0000
  C   C858      1.0  0.26622  0.67729  0.87378  1.0000
  S   S289      1.0  0.39286  0.89607  0.98635  1.0000
  Fe  Fe147     1.0  0.39081  0.49459  0.92523  1.0000
  H   H861      1.0  0.26999  0.65820  0.85246  1.0000
  H   H862      1.0  0.42307  0.49602  0.98124  1.0000
  H   H863      1.0  0.48348  0.90733  0.97965  1.0000
  C   C859      1.0  0.34768  0.49749  0.89698  1.0000
  H   H864      1.0  0.49260  0.76900  0.87249  1.0000
  C   C860      1.0  0.47532  0.95190  0.98991  1.0000
  N   N72       1.0  0.48446  0.93481  0.98818  1.0000
  H   H865      1.0  0.46071  0.95415  0.98738  1.0000
  H   H866      1.0  0.36153  0.98250  0.65904  1.0000
  C   C861      1.0  0.41553  0.50427  0.99152  1.0000
  Fe  Fe148     1.0  0.60395  0.46843  0.09367  1.0000
  H   H867      1.0  0.57707  0.17064  0.21111  1.0000
  S   S290      1.0  0.62482  0.44747  0.10727  1.0000
  Fe  Fe149     1.0  0.58696  0.04899  0.00340  1.0000
  C   C862      1.0  0.62839  0.01897  0.02465  1.0000
  S   S291      1.0  0.57497  0.46326  0.08815  1.0000
  C   C863      1.0  0.52866  0.48608  0.01556  1.0000
  C   C864      1.0  0.70343  0.31288  0.15591  1.0000
  Fe  Fe150     1.0  0.60200  0.08442  0.01534  1.0000
  H   H868      1.0  0.64009  0.25348  0.05677  1.0000
  S   S292      1.0  0.61916  0.09762  0.03488  1.0000
  C   C865      1.0  0.49837  0.19036  0.15050  1.0000
  H   H869      1.0  0.59614  0.46185  0.13739  1.0000
  S   S293      1.0  0.57626  0.06990  0.02373  1.0000
  C   C866      1.0  0.63612  0.03781  0.26524  1.0000
  Fe  Fe151     1.0  0.59378  0.15025  0.12917  1.0000
  S   S294      1.0  0.58128  0.17865  0.11996  1.0000
  S   S295      1.0  0.58865  0.12557  0.11321  1.0000
  Fe  Fe152     1.0  0.60188  0.16166  0.16737  1.0000
  S   S296      1.0  0.58926  0.19095  0.16052  1.0000
  S   S297      1.0  0.61209  0.15612  0.19703  1.0000
  Fe  Fe153     1.0  0.56637  0.17786  0.14824  1.0000
  S   S298      1.0  0.53627  0.19007  0.15201  1.0000
  Fe  Fe154     1.0  0.60516  0.19006  0.13261  1.0000
  S   S299      1.0  0.61592  0.21626  0.11564  1.0000
  S   S300      1.0  0.57762  0.14897  0.15720  1.0000
  S   S301      1.0  0.61902  0.16125  0.13978  1.0000
  C   C867      1.0  0.53855  0.49012  0.99850  1.0000
  S   S302      1.0  0.62463  0.06706  0.30611  1.0000
  C   C868      1.0  0.55122  0.13673  0.20044  1.0000
  S   S303      1.0  0.66908  0.06323  0.29376  1.0000
  H   H870      1.0  0.67616  0.26944  0.04714  1.0000
  Fe  Fe155     1.0  0.64438  0.08312  0.28646  1.0000
  S   S304      1.0  0.63698  0.08786  0.25577  1.0000
  Fe  Fe156     1.0  0.64942  0.04826  0.31448  1.0000
  C   C869      1.0  0.50111  0.47554  0.03414  1.0000
  S   S305      1.0  0.64958  0.10250  0.30785  1.0000
  Fe  Fe157     1.0  0.68111  0.30509  0.09804  1.0000
  S   S306      1.0  0.70986  0.31229  0.08622  1.0000
  S   S307      1.0  0.67760  0.27535  0.11170  1.0000
  Fe  Fe158     1.0  0.66488  0.34525  0.08966  1.0000
  S   S308      1.0  0.69215  0.35491  0.07773  1.0000
  S   S309      1.0  0.63780  0.36343  0.08760  1.0000
  Fe  Fe159     1.0  0.69483  0.32866  0.06287  1.0000
  S   S310      1.0  0.70305  0.33411  0.03171  1.0000
  Fe  Fe160     1.0  0.70512  0.33807  0.10189  1.0000
  Fe  Fe161     1.0  0.58091  0.47913  0.06062  1.0000
  S   S311      1.0  0.66680  0.31977  0.07370  1.0000
  S   S312      1.0  0.67714  0.32999  0.11490  1.0000
  H   H871      1.0  0.54583  0.45980  0.13697  1.0000
  C   C870      1.0  0.69688  0.32357  0.01200  1.0000
  H   H872      1.0  0.66110  0.42021  0.06569  1.0000
  H   H873      1.0  0.71570  0.34730  0.16190  1.0000
  H   H874      1.0  0.69628  0.29589  0.02539  1.0000
  C   C871      1.0  0.59956  0.47759  0.01475  1.0000
  C   C872      1.0  0.50352  0.47711  0.00010  1.0000
  C   C873      1.0  0.69575  0.33440  0.99488  1.0000
  N   N73       1.0  0.63029  0.02084  0.27191  1.0000
  H   H875      1.0  0.67144  0.38902  0.03845  1.0000
  H   H876      1.0  0.67359  0.00624  0.29512  1.0000
  H   H877      1.0  0.49320  0.46304  0.03401  1.0000
  C   C874      1.0  0.63162  0.23374  0.11766  1.0000
  C   C875      1.0  0.62897  0.25109  0.10728  1.0000
  C   C876      1.0  0.64234  0.26439  0.10610  1.0000
  C   C877      1.0  0.65883  0.26045  0.11507  1.0000
  C   C878      1.0  0.66124  0.24335  0.12592  1.0000
  C   C879      1.0  0.64773  0.23016  0.12732  1.0000
  H   H878      1.0  0.61660  0.25410  0.09975  1.0000
  H   H879      1.0  0.64010  0.27746  0.09781  1.0000
  H   H880      1.0  0.67387  0.24006  0.13298  1.0000
  H   H881      1.0  0.65014  0.21691  0.13528  1.0000
  C   C880      1.0  0.62979  0.10712  0.23983  1.0000
  C   C881      1.0  0.62539  0.10368  0.22186  1.0000
  C   C882      1.0  0.61990  0.11835  0.20864  1.0000
  C   C883      1.0  0.61882  0.13681  0.21312  1.0000
  C   C884      1.0  0.62309  0.14024  0.23111  1.0000
  C   C885      1.0  0.62848  0.12556  0.24437  1.0000
  H   H882      1.0  0.62635  0.08953  0.21808  1.0000
  H   H883      1.0  0.61673  0.11537  0.19492  1.0000
  H   H884      1.0  0.62233  0.15441  0.23483  1.0000
  H   H885      1.0  0.63178  0.12856  0.25804  1.0000
  H   H886      1.0  0.66655  0.38737  0.06341  1.0000
  C   C886      1.0  0.51537  0.17947  0.14958  1.0000
  C   C887      1.0  0.51518  0.16048  0.14754  1.0000
  C   C888      1.0  0.58154  0.46071  0.14313  1.0000
  H   H887      1.0  0.52811  0.15190  0.14690  1.0000
  C   C889      1.0  0.61011  0.10594  0.05626  1.0000
  C   C890      1.0  0.61968  0.11886  0.06440  1.0000
  C   C891      1.0  0.61314  0.12539  0.08165  1.0000
  C   C892      1.0  0.59723  0.11862  0.09114  1.0000
  C   C893      1.0  0.58768  0.10569  0.08300  1.0000
  C   C894      1.0  0.59391  0.09958  0.06554  1.0000
  H   H888      1.0  0.63228  0.12380  0.05736  1.0000
  H   H889      1.0  0.62068  0.13525  0.08783  1.0000
  H   H890      1.0  0.57536  0.10038  0.09026  1.0000
  H   H891      1.0  0.58631  0.08976  0.05942  1.0000
  H   H892      1.0  0.56413  0.45507  0.00137  1.0000
  C   C895      1.0  0.55046  0.19546  0.19915  1.0000
  C   C896      1.0  0.64982  0.42038  0.05665  1.0000
  H   H893      1.0  0.71669  0.33119  0.18258  1.0000
  H   H894      1.0  0.65695  0.05265  0.24847  1.0000
  C   C897      1.0  0.71602  0.29074  0.13447  1.0000
  N   N74       1.0  0.72066  0.31898  0.15682  1.0000
  H   H895      1.0  0.60903  0.42115  0.02528  1.0000
  H   H896      1.0  0.52404  0.17578  0.18885  1.0000
  C   C898      1.0  0.51134  0.48728  0.09799  1.0000
  C   C899      1.0  0.62843  0.42428  0.10130  1.0000
  C   C900      1.0  0.61560  0.41634  0.09159  1.0000
  C   C901      1.0  0.61860  0.39763  0.08764  1.0000
  C   C902      1.0  0.63461  0.38681  0.09304  1.0000
  C   C903      1.0  0.64759  0.39485  0.10246  1.0000
  C   C904      1.0  0.64439  0.41345  0.10675  1.0000
  H   H897      1.0  0.60332  0.42457  0.08721  1.0000
  H   H898      1.0  0.60855  0.39152  0.08026  1.0000
  H   H899      1.0  0.65994  0.38664  0.10672  1.0000
  H   H900      1.0  0.65437  0.41947  0.11432  1.0000
  H   H901      1.0  0.62004  0.06482  0.06403  1.0000
  H   H902      1.0  0.73822  0.10542  0.32088  1.0000
  C   C905      1.0  0.66576  0.99436  0.29956  1.0000
  C   C906      1.0  0.73562  0.31133  0.14670  1.0000
  C   C907      1.0  0.53589  0.16719  0.19391  1.0000
  N   N75       1.0  0.56126  0.14235  0.06626  1.0000
  C   C908      1.0  0.57630  0.14420  0.05377  1.0000
  C   C909      1.0  0.54714  0.13212  0.06261  1.0000
  C   C910      1.0  0.57758  0.13542  0.03725  1.0000
  C   C911      1.0  0.54794  0.12323  0.04617  1.0000
  C   C912      1.0  0.56327  0.12492  0.03347  1.0000
  C   C913      1.0  0.55988  0.15183  0.08341  1.0000
  H   H903      1.0  0.58765  0.15204  0.05677  1.0000
  H   H904      1.0  0.53524  0.13068  0.07251  1.0000
  H   H905      1.0  0.58981  0.13632  0.02766  1.0000
  H   H906      1.0  0.53683  0.11499  0.04321  1.0000
  H   H907      1.0  0.56407  0.11799  0.02077  1.0000
  H   H908      1.0  0.55011  0.16443  0.08214  1.0000
  H   H909      1.0  0.55504  0.14240  0.09549  1.0000
  H   H910      1.0  0.57359  0.15600  0.08673  1.0000
  N   N76       1.0  0.62442  0.04347  0.04514  1.0000
  C   C914      1.0  0.63995  0.05104  0.03675  1.0000
  H   H911      1.0  0.71408  0.27991  0.12556  1.0000
  C   C915      1.0  0.65014  0.04265  0.02214  1.0000
  C   C916      1.0  0.61038  0.47885  0.99787  1.0000
  H   H912      1.0  0.68717  0.29380  0.14407  1.0000
  H   H913      1.0  0.52449  0.14170  0.18888  1.0000
  H   H914      1.0  0.64434  0.06385  0.04106  1.0000
  C   C917      1.0  0.64427  0.02652  0.01605  1.0000
  H   H915      1.0  0.66220  0.04892  0.01526  1.0000
  S   S313      1.0  0.58257  0.01913  0.01491  1.0000
  C   C918      1.0  0.61369  0.05230  0.06037  1.0000
  C   C919      1.0  0.53601  0.14788  0.19401  1.0000
  H   H916      1.0  0.61277  0.04241  0.07299  1.0000
  H   H917      1.0  0.56473  0.20013  0.19651  1.0000
  N   N77       1.0  0.57302  0.44612  0.13479  1.0000
  C   C920      1.0  0.55437  0.44777  0.13258  1.0000
  C   C921      1.0  0.58364  0.43060  0.12991  1.0000
  C   C922      1.0  0.54606  0.43417  0.12433  1.0000
  C   C923      1.0  0.57578  0.41663  0.12176  1.0000
  C   C924      1.0  0.55689  0.41854  0.11880  1.0000
  C   C925      1.0  0.61858  0.02768  0.03925  1.0000
  N   N78       1.0  0.51148  0.47941  0.01620  1.0000
  H   H918      1.0  0.59835  0.42906  0.13209  1.0000
  C   C926      1.0  0.72278  0.33429  0.16820  1.0000
  H   H919      1.0  0.58436  0.40450  0.11762  1.0000
  H   H920      1.0  0.55067  0.40793  0.11226  1.0000
  S   S314      1.0  0.64218  0.01794  0.32095  1.0000
  H   H921      1.0  0.63095  0.39312  0.02932  1.0000
  C   C927      1.0  0.66227  0.02291  0.24829  1.0000
  H   H922      1.0  0.63945  0.44827  0.06220  1.0000
  H   H923      1.0  0.63104  0.22240  0.06967  1.0000
  C   C928      1.0  0.49818  0.15254  0.14656  1.0000
  N   N79       1.0  0.66608  0.25061  0.06909  1.0000
  C   C929      1.0  0.67804  0.23931  0.07963  1.0000
  C   C930      1.0  0.67340  0.22158  0.08681  1.0000
  C   C931      1.0  0.67089  0.26933  0.06196  1.0000
  H   H924      1.0  0.69088  0.24430  0.08324  1.0000
  H   H925      1.0  0.68248  0.21300  0.09589  1.0000
  H   H926      1.0  0.65857  0.27946  0.06324  1.0000
  H   H927      1.0  0.68161  0.27434  0.07007  1.0000
  C   C932      1.0  0.64454  0.22685  0.07200  1.0000
  Fe  Fe162     1.0  0.56670  0.49142  0.09771  1.0000
  C   C933      1.0  0.58292  0.46898  0.01603  1.0000
  H   H928      1.0  0.60106  0.02048  0.27595  1.0000
  H   H929      1.0  0.66370  0.99292  0.25101  1.0000
  C   C934      1.0  0.50680  0.48642  0.13145  1.0000
  H   H930      1.0  0.62334  0.00673  0.01972  1.0000
  H   H931      1.0  0.54232  0.20235  0.18767  1.0000
  S   S315      1.0  0.72359  0.35154  0.12104  1.0000
  Fe  Fe163     1.0  0.67311  0.08182  0.31666  1.0000
  C   C935      1.0  0.65031  0.99627  0.31226  1.0000
  C   C936      1.0  0.63288  0.40523  0.03650  1.0000
  H   H932      1.0  0.55167  0.12174  0.20037  1.0000
  H   H933      1.0  0.53892  0.06159  0.00430  1.0000
  H   H934      1.0  0.65172  0.02011  0.00443  1.0000
  C   C937      1.0  0.65646  0.21541  0.08307  1.0000
  H   H935      1.0  0.60406  0.48343  0.02666  1.0000
  H   H936      1.0  0.54429  0.20015  0.21258  1.0000
  H   H937      1.0  0.70635  0.13433  0.31622  1.0000
  H   H938      1.0  0.69218  0.28137  0.99628  1.0000
  N   N80       1.0  0.55071  0.17519  0.19955  1.0000
  H   H939      1.0  0.65219  0.20211  0.08938  1.0000
  N   N81       1.0  0.64719  0.40501  0.04781  1.0000
  H   H940      1.0  0.60598  0.02193  0.04554  1.0000
  H   H941      1.0  0.49821  0.13781  0.14515  1.0000
  C   C938      1.0  0.64965  0.24448  0.06496  1.0000
  C   C939      1.0  0.51962  0.08583  0.00209  1.0000
  C   C940      1.0  0.62046  0.42098  0.03416  1.0000
  C   C941      1.0  0.61336  0.01978  0.28427  1.0000
  H   H942      1.0  0.67494  0.02375  0.23935  1.0000
  C   C942      1.0  0.65594  0.00566  0.25473  1.0000
  S   S316      1.0  0.58965  0.10251  0.99190  1.0000
  C   C943      1.0  0.69511  0.30446  0.01244  1.0000
  H   H943      1.0  0.51051  0.47279  0.04569  1.0000
  H   H944      1.0  0.57797  0.13650  0.21171  1.0000
  H   H945      1.0  0.65304  0.37557  0.04951  1.0000
  S   S317      1.0  0.61069  0.48203  0.06526  1.0000
  S   S318      1.0  0.53665  0.10165  0.00153  1.0000
  C   C944      1.0  0.66023  0.38850  0.04980  1.0000
  C   C945      1.0  0.58765  0.99798  0.00426  1.0000
  C   C946      1.0  0.63763  0.43634  0.05467  1.0000
  H   H946      1.0  0.53135  0.43588  0.12213  1.0000
  C   C947      1.0  0.62282  0.43657  0.04341  1.0000
  H   H947      1.0  0.59948  0.05681  0.05622  1.0000
  S   S319      1.0  0.56917  0.46722  0.03693  1.0000
  C   C948      1.0  0.56597  0.14498  0.20680  1.0000
  H   H948      1.0  0.62838  0.05050  0.26909  1.0000
  C   C949      1.0  0.56544  0.16434  0.20632  1.0000
  C   C950      1.0  0.65225  0.03911  0.25346  1.0000
  C   C951      1.0  0.63974  0.00488  0.26650  1.0000
  H   H949      1.0  0.61311  0.44874  0.04191  1.0000
  H   H950      1.0  0.69149  0.31929  0.16351  1.0000
  H   H951      1.0  0.61390  0.00673  0.29365  1.0000
  S   S320      1.0  0.61395  0.06235  0.99687  1.0000
  H   H952      1.0  0.57401  0.47452  0.13997  1.0000
  H   H953      1.0  0.58138  0.45757  0.15843  1.0000
  H   H954      1.0  0.67365  0.12835  0.32179  1.0000
  C   C952      1.0  0.70088  0.29854  0.14490  1.0000
  C   C953      1.0  0.57696  0.46185  0.00038  1.0000
  S   S321      1.0  0.70177  0.09220  0.32123  1.0000
  H   H955      1.0  0.52020  0.48929  0.08537  1.0000
  C   C954      1.0  0.52463  0.06674  0.00297  1.0000
  H   H956      1.0  0.62331  0.48546  0.99689  1.0000
  H   H957      1.0  0.49832  0.20504  0.15213  1.0000
  H   H958      1.0  0.61186  0.03133  0.29349  1.0000
  H   H959      1.0  0.73698  0.37487  0.14659  1.0000
  Fe  Fe164     1.0  0.56472  0.08632  0.99902  1.0000
  H   H960      1.0  0.51204  0.48774  0.14483  1.0000
  H   H961      1.0  0.49717  0.10710  0.99979  1.0000
  H   H962      1.0  0.69724  0.34917  0.99432  1.0000
  C   C955      1.0  0.73351  0.29719  0.13530  1.0000
  C   C956      1.0  0.69288  0.29625  0.99587  1.0000
  C   C957      1.0  0.50106  0.09233  0.00062  1.0000
  H   H963      1.0  0.51508  0.03944  0.00255  1.0000
  H   H964      1.0  0.53494  0.48811  0.02828  1.0000
  C   C958      1.0  0.51111  0.05419  0.00206  1.0000
  H   H965      1.0  0.73760  0.33686  0.16900  1.0000
  C   C959      1.0  0.51847  0.48892  0.11527  1.0000
  H   H966      1.0  0.70030  0.15831  0.32082  1.0000
  C   C960      1.0  0.71829  0.10376  0.37199  1.0000
  H   H967      1.0  0.54454  0.01473  0.60066  1.0000
  Fe  Fe165     1.0  0.51204  0.06377  0.39677  1.0000
  C   C961      1.0  0.56948  0.01692  0.37799  1.0000
  S   S322      1.0  0.53846  0.05722  0.37841  1.0000
  H   H968      1.0  0.60315  0.05633  0.65229  1.0000
  H   H969      1.0  0.73460  0.13946  0.64815  1.0000
  S   S323      1.0  0.50832  0.05260  0.42690  1.0000
  C   C962      1.0  0.68186  0.09873  0.60924  1.0000
  C   C963      1.0  0.61511  0.03658  0.36396  1.0000
  H   H970      1.0  0.50108  0.01113  0.61711  1.0000
  Fe  Fe166     1.0  0.52358  0.05903  0.60175  1.0000
  C   C964      1.0  0.51992  0.08056  0.49589  1.0000
  S   S324      1.0  0.54849  0.04840  0.61831  1.0000
  H   H971      1.0  0.53491  0.07917  0.49570  1.0000
  H   H972      1.0  0.62610  0.05980  0.37477  1.0000
  H   H973      1.0  0.57393  0.00211  0.37627  1.0000
  S   S325      1.0  0.52046  0.04448  0.57618  1.0000
  S   S326      1.0  0.61136  0.09722  0.34990  1.0000
  S   S327      1.0  0.65516  0.06531  0.33776  1.0000
  H   H974      1.0  0.73230  0.07994  0.62038  1.0000
  H   H975      1.0  0.59263  0.06803  0.33556  1.0000
  C   C965      1.0  0.71489  0.09815  0.33965  1.0000
  H   H976      1.0  0.52920  0.13575  0.56807  1.0000
  C   C966      1.0  0.51129  0.08243  0.47897  1.0000
  H   H977      1.0  0.67944  0.12028  0.64213  1.0000
  C   C967      1.0  0.70794  0.09748  0.35828  1.0000
  H   H978      1.0  0.50821  0.01320  0.56164  1.0000
  H   H979      1.0  0.57339  0.04419  0.39950  1.0000
  H   H980      1.0  0.69444  0.09240  0.36209  1.0000
  C   C968      1.0  0.56489  0.06203  0.62664  1.0000
  C   C969      1.0  0.57906  0.05312  0.63725  1.0000
  C   C970      1.0  0.59239  0.06336  0.64410  1.0000
  C   C971      1.0  0.59172  0.08268  0.64036  1.0000
  C   C972      1.0  0.57762  0.09157  0.62968  1.0000
  C   C973      1.0  0.56425  0.08134  0.62289  1.0000
  N   N82       1.0  0.52574  0.99441  0.61099  1.0000
  N   N83       1.0  0.68997  0.13835  0.34144  1.0000
  C   C974      1.0  0.58538  0.04153  0.38991  1.0000
  H   H981      1.0  0.55345  0.08839  0.61476  1.0000
  C   C975      1.0  0.55660  0.07094  0.36884  1.0000
  C   C976      1.0  0.56180  0.08601  0.37748  1.0000
  C   C977      1.0  0.57827  0.09442  0.37112  1.0000
  C   C978      1.0  0.58967  0.08783  0.35614  1.0000
  C   C979      1.0  0.58409  0.07320  0.34714  1.0000
  C   C980      1.0  0.56766  0.06483  0.35345  1.0000
  H   H982      1.0  0.55349  0.09077  0.38942  1.0000
  H   H983      1.0  0.58242  0.10579  0.37814  1.0000
  C   C981      1.0  0.60008  0.05297  0.38916  1.0000
  H   H984      1.0  0.63100  0.08619  0.61649  1.0000
  H   H985      1.0  0.56060  0.01748  0.39118  1.0000
  C   C982      1.0  0.50364  0.99949  0.56527  1.0000
  Fe  Fe167     1.0  0.63154  0.08483  0.32790  1.0000
  H   H986      1.0  0.69632  0.10179  0.60776  1.0000
  C   C983      1.0  0.49929  0.03801  0.50312  1.0000
  S   S328      1.0  0.51458  0.08715  0.58813  1.0000
  N   N84       1.0  0.58556  0.02795  0.37795  1.0000
  H   H987      1.0  0.65161  0.12337  0.37855  1.0000
  H   H988      1.0  0.50602  0.01250  0.40120  1.0000
  H   H989      1.0  0.51960  0.08262  0.46589  1.0000
  C   C984      1.0  0.50936  0.08086  0.51298  1.0000
  H   H990      1.0  0.56375  0.05325  0.34662  1.0000
  C   C985      1.0  0.67477  0.13065  0.33624  1.0000
  H   H991      1.0  0.57697  0.10650  0.62671  1.0000
  C   C986      1.0  0.60015  0.02542  0.36504  1.0000
  H   H992      1.0  0.52228  0.12076  0.54004  1.0000
  H   H993      1.0  0.68699  0.07421  0.59430  1.0000
  N   N85       1.0  0.66909  0.10957  0.61914  1.0000
  S   S329      1.0  0.49349  0.08990  0.40104  1.0000
  H   H994      1.0  0.68708  0.13136  0.61993  1.0000
  C   C987      1.0  0.73581  0.11078  0.36745  1.0000
  H   H995      1.0  0.51266  0.04025  0.49582  1.0000
  C   C988      1.0  0.67667  0.08302  0.60167  1.0000
  C   C989      1.0  0.73413  0.12649  0.64198  1.0000
  C   C990      1.0  0.65104  0.10516  0.62183  1.0000
  C   C991      1.0  0.64532  0.08969  0.61423  1.0000
  C   C992      1.0  0.71897  0.09785  0.64043  1.0000
  H   H996      1.0  0.64096  0.11343  0.63010  1.0000
  S   S330      1.0  0.60835  0.09623  0.64840  1.0000
  C   C993      1.0  0.73260  0.10478  0.33519  1.0000
  H   H997      1.0  0.66373  0.13639  0.62932  1.0000
  H   H998      1.0  0.49814  0.04643  0.46753  1.0000
  C   C994      1.0  0.67508  0.12522  0.62803  1.0000
  C   C995      1.0  0.66233  0.12773  0.36815  1.0000
  H   H999      1.0  0.71256  0.10335  0.38626  1.0000
  C   C996      1.0  0.67778  0.13580  0.37331  1.0000
  C   C997      1.0  0.66075  0.12517  0.34950  1.0000
  C   C998      1.0  0.65826  0.07853  0.60418  1.0000
  H   H1000     1.0  0.52168  0.01950  0.62482  1.0000
  C   C999      1.0  0.73269  0.09296  0.62648  1.0000
  S   S331      1.0  0.52103  0.07975  0.53374  1.0000
  S   S332      1.0  0.70094  0.08253  0.64714  1.0000
  Fe  Fe168     1.0  0.50938  0.07209  0.56324  1.0000
  S   S333      1.0  0.49482  0.05353  0.61384  1.0000
  C   C1000     1.0  0.61499  0.05050  0.37603  1.0000
  H   H1001     1.0  0.64879  0.11884  0.34539  1.0000
  H   H1002     1.0  0.62650  0.03475  0.35350  1.0000
  H   H1003     1.0  0.60016  0.01497  0.35523  1.0000
  C   C1001     1.0  0.50309  0.99823  0.40500  1.0000
  H   H1004     1.0  0.57969  0.03820  0.64025  1.0000
  C   C1002     1.0  0.51138  0.12368  0.55077  1.0000
  H   H1005     1.0  0.56072  0.02259  0.36653  1.0000
  C   C1003     1.0  0.51458  0.00680  0.62311  1.0000
  H   H1006     1.0  0.59948  0.06427  0.39807  1.0000
  H   H1007     1.0  0.65405  0.06627  0.59859  1.0000
  H   H1008     1.0  0.71797  0.14427  0.33328  1.0000
  C   C1004     1.0  0.51525  0.13206  0.56648  1.0000
  C   C1005     1.0  0.49803  0.03590  0.52258  1.0000
  C   C1006     1.0  0.69149  0.14118  0.35967  1.0000
  C   C1007     1.0  0.54069  0.00063  0.60021  1.0000
  H   H1009     1.0  0.50401  0.14153  0.59273  1.0000
  H   H1010     1.0  0.67928  0.13767  0.38780  1.0000
  H   H1011     1.0  0.51025  0.03664  0.53019  1.0000
  C   C1008     1.0  0.71982  0.11475  0.64814  1.0000
  C   C1009     1.0  0.50115  0.13529  0.58030  1.0000
  H   H1012     1.0  0.56281  0.99402  0.57962  1.0000
  H   H1013     1.0  0.51191  0.99967  0.63718  1.0000
  H   H1014     1.0  0.70364  0.14712  0.36385  1.0000
  C   C1010     1.0  0.49345  0.11853  0.54917  1.0000
  C   C1011     1.0  0.70433  0.14420  0.32725  1.0000
  S   S334      1.0  0.58246  0.45298  0.92897  1.0000
  C   C1012     1.0  0.51593  0.44110  0.88949  1.0000
  Fe  Fe169     1.0  0.59396  0.46189  0.90021  1.0000
  S   S335      1.0  0.60424  0.43966  0.88080  1.0000
  S   S336      1.0  0.73676  0.31971  0.87780  1.0000
  Fe  Fe170     1.0  0.59925  0.07951  0.97401  1.0000
  S   S337      1.0  0.61383  0.08570  0.94555  1.0000
  Fe  Fe171     1.0  0.58459  0.15944  0.86075  1.0000
  S   S338      1.0  0.57869  0.19050  0.85927  1.0000
  S   S339      1.0  0.57433  0.14542  0.88861  1.0000
  Fe  Fe172     1.0  0.59690  0.15984  0.81857  1.0000
  S   S340      1.0  0.59182  0.19113  0.81499  1.0000
  S   S341      1.0  0.59881  0.14162  0.79366  1.0000
  Fe  Fe173     1.0  0.60572  0.19185  0.84195  1.0000
  S   S342      1.0  0.62956  0.20983  0.84739  1.0000
  Fe  Fe174     1.0  0.56522  0.18711  0.83291  1.0000
  S   S343      1.0  0.53702  0.20131  0.82551  1.0000
  S   S344      1.0  0.61239  0.16049  0.84464  1.0000
  S   S345      1.0  0.56964  0.15623  0.83536  1.0000
  Fe  Fe175     1.0  0.59895  0.47520  0.93745  1.0000
  S   S346      1.0  0.62753  0.07394  0.69673  1.0000
  N   N86       1.0  0.54765  0.44154  0.87713  1.0000
  S   S347      1.0  0.65308  0.06250  0.65894  1.0000
  S   S348      1.0  0.67298  0.06909  0.69676  1.0000
  C   C1013     1.0  0.64840  0.07422  0.76134  1.0000
  Fe  Fe176     1.0  0.65036  0.05219  0.68919  1.0000
  S   S349      1.0  0.64482  0.02277  0.70165  1.0000
  Fe  Fe177     1.0  0.65019  0.09168  0.70226  1.0000
  S   S350      1.0  0.65249  0.10820  0.72769  1.0000
  H   H1015     1.0  0.49348  0.46072  0.94826  1.0000
  S   S351      1.0  0.65289  0.10462  0.67262  1.0000
  Fe  Fe178     1.0  0.67054  0.34243  0.90445  1.0000
  S   S352      1.0  0.69856  0.33573  0.91607  1.0000
  S   S353      1.0  0.65517  0.36956  0.91276  1.0000
  Fe  Fe179     1.0  0.66871  0.30260  0.89237  1.0000
  S   S354      1.0  0.69656  0.29359  0.90345  1.0000
  S   S355      1.0  0.64622  0.28528  0.88248  1.0000
  Fe  Fe180     1.0  0.68727  0.30920  0.92854  1.0000
  S   S356      1.0  0.69138  0.29570  0.95798  1.0000
  Fe  Fe181     1.0  0.70630  0.32107  0.89015  1.0000
  H   H1016     1.0  0.62223  0.00933  0.66760  1.0000
  S   S357      1.0  0.65897  0.31648  0.91845  1.0000
  S   S358      1.0  0.67873  0.32941  0.87750  1.0000
  C   C1014     1.0  0.53032  0.14134  0.79701  1.0000
  H   H1017     1.0  0.56832  0.43319  0.89628  1.0000
  C   C1015     1.0  0.50855  0.48147  0.90647  1.0000
  C   C1016     1.0  0.69201  0.30705  0.97872  1.0000
  C   C1017     1.0  0.69303  0.32627  0.97841  1.0000
  C   C1018     1.0  0.52907  0.44468  0.87468  1.0000
  H   H1018     1.0  0.69241  0.33479  0.96535  1.0000
  H   H1019     1.0  0.49786  0.14831  0.83841  1.0000
  H   H1020     1.0  0.68519  0.06683  0.75962  1.0000
  H   H1021     1.0  0.52453  0.19362  0.78126  1.0000
  H   H1022     1.0  0.53053  0.10356  0.96122  1.0000
  C   C1019     1.0  0.67891  0.06585  0.74627  1.0000
  H   H1023     1.0  0.55830  0.19363  0.79081  1.0000
  C   C1020     1.0  0.61401  0.13306  0.77508  1.0000
  C   C1021     1.0  0.60658  0.12340  0.76167  1.0000
  C   C1022     1.0  0.61795  0.11611  0.74686  1.0000
  C   C1023     1.0  0.63706  0.11817  0.74532  1.0000
  C   C1024     1.0  0.64448  0.12778  0.75875  1.0000
  C   C1025     1.0  0.63308  0.13524  0.77345  1.0000
  H   H1024     1.0  0.59187  0.12159  0.76269  1.0000
  H   H1025     1.0  0.61195  0.10878  0.73672  1.0000
  H   H1026     1.0  0.65921  0.12952  0.75779  1.0000
  H   H1027     1.0  0.63910  0.14258  0.78357  1.0000
  C   C1026     1.0  0.63374  0.23078  0.85751  1.0000
  C   C1027     1.0  0.61943  0.24326  0.86403  1.0000
  C   C1028     1.0  0.62355  0.25969  0.87160  1.0000
  C   C1029     1.0  0.64202  0.26394  0.87305  1.0000
  C   C1030     1.0  0.65632  0.25132  0.86680  1.0000
  C   C1031     1.0  0.65219  0.23499  0.85906  1.0000
  H   H1028     1.0  0.60516  0.24041  0.86295  1.0000
  H   H1029     1.0  0.61229  0.26922  0.87629  1.0000
  H   H1030     1.0  0.67059  0.25426  0.86767  1.0000
  H   H1031     1.0  0.66346  0.22560  0.85405  1.0000
  C   C1032     1.0  0.51565  0.19049  0.82847  1.0000
  C   C1033     1.0  0.51482  0.17167  0.83459  1.0000
  H   H1032     1.0  0.53209  0.12682  0.80214  1.0000
  H   H1033     1.0  0.52723  0.16358  0.83880  1.0000
  H   H1034     1.0  0.55949  0.14497  0.79494  1.0000
  C   C1034     1.0  0.62924  0.07283  0.76398  1.0000
  C   C1035     1.0  0.52192  0.43465  0.90694  1.0000
  H   H1035     1.0  0.55500  0.44809  0.84808  1.0000
  C   C1036     1.0  0.60261  0.10181  0.92942  1.0000
  C   C1037     1.0  0.58508  0.11034  0.93399  1.0000
  C   C1038     1.0  0.57652  0.12335  0.92110  1.0000
  C   C1039     1.0  0.58542  0.12805  0.90357  1.0000
  C   C1040     1.0  0.60296  0.11950  0.89893  1.0000
  C   C1041     1.0  0.61151  0.10638  0.91184  1.0000
  H   H1036     1.0  0.57812  0.10692  0.94747  1.0000
  H   H1037     1.0  0.56297  0.12995  0.92478  1.0000
  H   H1038     1.0  0.60992  0.12301  0.88547  1.0000
  H   H1039     1.0  0.62506  0.09976  0.90821  1.0000
  C   C1042     1.0  0.61881  0.42035  0.88947  1.0000
  C   C1043     1.0  0.62619  0.40687  0.87756  1.0000
  C   C1044     1.0  0.63762  0.39133  0.88426  1.0000
  C   C1045     1.0  0.64159  0.38906  0.90300  1.0000
  C   C1046     1.0  0.63416  0.40254  0.91482  1.0000
  C   C1047     1.0  0.62292  0.41810  0.90812  1.0000
  H   H1040     1.0  0.62322  0.40856  0.86307  1.0000
  H   H1041     1.0  0.64344  0.38122  0.87492  1.0000
  H   H1042     1.0  0.63721  0.40099  0.92931  1.0000
  H   H1043     1.0  0.61750  0.42838  0.91744  1.0000
  Fe  Fe182     1.0  0.55973  0.47569  0.92391  1.0000
  C   C1048     1.0  0.65362  0.00099  0.69376  1.0000
  C   C1049     1.0  0.55361  0.43531  0.89424  1.0000
  H   H1044     1.0  0.56884  0.45763  0.86397  1.0000
  N   N87       1.0  0.65902  0.06337  0.74949  1.0000
  N   N88       1.0  0.61750  0.32787  0.89323  1.0000
  C   C1050     1.0  0.61263  0.31247  0.90433  1.0000
  C   C1051     1.0  0.61937  0.34413  0.90083  1.0000
  C   C1052     1.0  0.60942  0.31316  0.92357  1.0000
  C   C1053     1.0  0.61613  0.34537  0.91999  1.0000
  C   C1054     1.0  0.61122  0.32974  0.93141  1.0000
  C   C1055     1.0  0.62189  0.32679  0.87324  1.0000
  H   H1045     1.0  0.61167  0.29940  0.89841  1.0000
  H   H1046     1.0  0.62385  0.35615  0.89216  1.0000
  H   H1047     1.0  0.60608  0.30077  0.93233  1.0000
  H   H1048     1.0  0.61814  0.35821  0.92595  1.0000
  H   H1049     1.0  0.60927  0.33038  0.94635  1.0000
  H   H1050     1.0  0.61638  0.31441  0.86824  1.0000
  H   H1051     1.0  0.61594  0.33934  0.86515  1.0000
  H   H1052     1.0  0.63720  0.32554  0.87030  1.0000
  N   N89       1.0  0.63015  0.17453  0.89429  1.0000
  C   C1056     1.0  0.63073  0.15918  0.90682  1.0000
  C   C1057     1.0  0.61419  0.18588  0.89292  1.0000
  C   C1058     1.0  0.61521  0.15519  0.91876  1.0000
  C   C1059     1.0  0.59832  0.18212  0.90442  1.0000
  C   C1060     1.0  0.59890  0.16671  0.91745  1.0000
  C   C1061     1.0  0.64635  0.17843  0.88157  1.0000
  H   H1053     1.0  0.64313  0.14977  0.90751  1.0000
  H   H1054     1.0  0.61357  0.19778  0.88269  1.0000
  H   H1055     1.0  0.61554  0.14279  0.92842  1.0000
  H   H1056     1.0  0.58549  0.19073  0.90283  1.0000
  H   H1057     1.0  0.58648  0.16323  0.92595  1.0000
  H   H1058     1.0  0.65927  0.17082  0.88638  1.0000
  H   H1059     1.0  0.64409  0.17444  0.86750  1.0000
  H   H1060     1.0  0.64852  0.19352  0.88035  1.0000
  C   C1062     1.0  0.73790  0.29193  0.92792  1.0000
  H   H1061     1.0  0.67189  0.01210  0.67143  1.0000
  C   C1063     1.0  0.51260  0.14993  0.79474  1.0000
  H   H1062     1.0  0.57284  0.17300  0.78668  1.0000
  C   C1064     1.0  0.50935  0.47344  0.92475  1.0000
  C   C1065     1.0  0.49807  0.16305  0.83448  1.0000
  H   H1063     1.0  0.56120  0.18543  0.76779  1.0000
  H   H1064     1.0  0.54563  0.42759  0.92310  1.0000
  S   S359      1.0  0.53046  0.46988  0.93602  1.0000
  H   H1065     1.0  0.68648  0.05411  0.73936  1.0000
  S   S360      1.0  0.61216  0.48262  0.90913  1.0000
  Fe  Fe183     1.0  0.67431  0.08118  0.66683  1.0000
  H   H1066     1.0  0.65932  0.04257  0.73035  1.0000
  H   H1067     1.0  0.51189  0.43253  0.91871  1.0000
  C   C1066     1.0  0.50048  0.07273  0.95539  1.0000
  C   C1067     1.0  0.63189  0.04929  0.74226  1.0000
  H   H1068     1.0  0.52428  0.45016  0.86130  1.0000
  H   H1069     1.0  0.50121  0.44395  0.88765  1.0000
  H   H1070     1.0  0.62562  0.03970  0.73441  1.0000
  N   N90       1.0  0.50756  0.08977  0.95395  1.0000
  C   C1068     1.0  0.56139  0.44535  0.86161  1.0000
  C   C1069     1.0  0.54086  0.43186  0.90940  1.0000
  S   S361      1.0  0.57309  0.06458  0.97920  1.0000
  C   C1070     1.0  0.73684  0.32170  0.96755  1.0000
  H   H1071     1.0  0.58268  0.45840  0.97121  1.0000
  H   H1072     1.0  0.68094  0.07887  0.73721  1.0000
  H   H1073     1.0  0.49970  0.21530  0.81844  1.0000
  H   H1074     1.0  0.65461  0.08460  0.76823  1.0000
  C   C1071     1.0  0.65101  0.05101  0.73999  1.0000
  H   H1075     1.0  0.53435  0.09170  0.94016  1.0000
  H   H1076     1.0  0.60605  0.05944  0.75587  1.0000
  N   N91       1.0  0.73878  0.30823  0.93829  1.0000
  C   C1072     1.0  0.60422  0.47206  0.98215  1.0000
  Fe  Fe184     1.0  0.63166  0.08510  0.66680  1.0000
  H   H1077     1.0  0.73410  0.32030  0.98255  1.0000
  S   S362      1.0  0.57018  0.48352  0.89439  1.0000
  C   C1073     1.0  0.62095  0.06034  0.75429  1.0000
  H   H1078     1.0  0.60395  0.00942  0.98051  1.0000
  C   C1074     1.0  0.58744  0.46370  0.98334  1.0000
  C   C1075     1.0  0.52760  0.09104  0.95448  1.0000
  H   H1079     1.0  0.50040  0.14225  0.79839  1.0000
  C   C1076     1.0  0.66661  0.99963  0.67855  1.0000
  S   S363      1.0  0.61735  0.47449  0.96096  1.0000
  N   N92       1.0  0.54359  0.17025  0.78725  1.0000
  C   C1077     1.0  0.52626  0.17881  0.78514  1.0000
  C   C1078     1.0  0.54577  0.15174  0.79305  1.0000
  C   C1079     1.0  0.51053  0.16876  0.78871  1.0000
  C   C1080     1.0  0.55978  0.18109  0.78289  1.0000
  H   H1080     1.0  0.73269  0.35861  0.86119  1.0000
  H   H1081     1.0  0.73256  0.29324  0.96448  1.0000
  H   H1082     1.0  0.62085  0.08186  0.77302  1.0000
  H   H1083     1.0  0.53406  0.07892  0.96285  1.0000
  C   C1081     1.0  0.49926  0.20074  0.82317  1.0000
  H   H1084     1.0  0.50945  0.06014  0.95780  1.0000
  C   C1082     1.0  0.73603  0.30643  0.95725  1.0000
  H   H1085     1.0  0.57185  0.43331  0.86051  1.0000
  C   C1083     1.0  0.49614  0.10564  0.95123  1.0000
  H   H1086     1.0  0.49676  0.17572  0.78771  1.0000
  C   C1084     1.0  0.59869  0.99694  0.98762  1.0000
  H   H1087     1.0  0.72538  0.28451  0.93291  1.0000
  H   H1088     1.0  0.50176  0.11913  0.94992  1.0000
  H   H1089     1.0  0.50689  0.47896  0.97004  1.0000
  C   C1085     1.0  0.53076  0.48736  0.98205  1.0000
  H   H1090     1.0  0.52096  0.48634  0.89899  1.0000
  H   H1091     1.0  0.59826  0.00001  0.69219  1.0000
  C   C1086     1.0  0.51307  0.48096  0.98281  1.0000
  H   H1092     1.0  0.73689  0.29587  0.91279  1.0000
  H   H1093     1.0  0.53839  0.49011  0.96870  1.0000
  H   H1094     1.0  0.70955  0.11875  0.65896  1.0000
  H   H1095     1.0  0.74039  0.35100  0.96612  1.0000
  C   C1087     1.0  0.74031  0.33894  0.95831  1.0000
  C   C1088     1.0  0.61836  0.99508  0.66940  1.0000
  C   C1089     1.0  0.49303  0.46720  0.93423  1.0000
  C   C1090     1.0  0.74278  0.32495  0.92914  1.0000
  H   H1096     1.0  0.73830  0.62986  0.14271  1.0000
  C   C1091     1.0  0.55165  0.85461  0.05061  1.0000
  H   H1097     1.0  0.65588  0.67823  0.16171  1.0000
  Fe  Fe185     1.0  0.60049  0.50906  0.07711  1.0000
  S   S364      1.0  0.61880  0.53289  0.06735  1.0000
  N   N93       1.0  0.63296  0.64340  0.04584  1.0000
  S   S365      1.0  0.58284  0.90310  0.01935  1.0000
  C   C1092     1.0  0.67025  0.54740  0.10783  1.0000
  Fe  Fe186     1.0  0.59484  0.87543  0.01043  1.0000
  S   S366      1.0  0.61035  0.85281  0.02836  1.0000
  C   C1093     1.0  0.63629  0.66309  0.04582  1.0000
  S   S367      1.0  0.62784  0.90432  0.29593  1.0000
  Fe  Fe187     1.0  0.66924  0.87267  0.31516  1.0000
  S   S368      1.0  0.66879  0.88472  0.28512  1.0000
  C   C1094     1.0  0.68701  0.64868  0.99954  1.0000
  Fe  Fe188     1.0  0.65717  0.91143  0.29733  1.0000
  S   S369      1.0  0.66732  0.94016  0.28754  1.0000
  Fe  Fe189     1.0  0.63912  0.87653  0.28607  1.0000
  S   S370      1.0  0.62046  0.86602  0.26498  1.0000
  S   S371      1.0  0.64017  0.86292  0.31545  1.0000
  Fe  Fe190     1.0  0.59109  0.81633  0.13563  1.0000
  S   S372      1.0  0.57389  0.79238  0.13339  1.0000
  S   S373      1.0  0.59082  0.84250  0.11570  1.0000
  Fe  Fe191     1.0  0.59972  0.80431  0.17641  1.0000
  S   S374      1.0  0.58284  0.77925  0.17694  1.0000
  S   S375      1.0  0.61812  0.81126  0.19942  1.0000
  Fe  Fe192     1.0  0.59658  0.77487  0.14828  1.0000
  S   S376      1.0  0.60374  0.74485  0.14006  1.0000
  Fe  Fe193     1.0  0.56134  0.79811  0.16178  1.0000
  S   S377      1.0  0.52999  0.80351  0.16882  1.0000
  S   S378      1.0  0.61472  0.79877  0.14853  1.0000
  S   S379      1.0  0.57742  0.82322  0.16332  1.0000
  Fe  Fe194     1.0  0.66524  0.61879  0.10085  1.0000
  S   S380      1.0  0.69082  0.61100  0.08301  1.0000
  S   S381      1.0  0.64279  0.59910  0.11040  1.0000
  Fe  Fe195     1.0  0.67680  0.65797  0.10550  1.0000
  S   S382      1.0  0.70359  0.65241  0.08788  1.0000
  S   S383      1.0  0.67156  0.68647  0.11782  1.0000
  Fe  Fe196     1.0  0.68614  0.63967  0.06858  1.0000
  S   S384      1.0  0.68839  0.64910  0.03736  1.0000
  Fe  Fe197     1.0  0.70640  0.62413  0.10383  1.0000
  C   C1095     1.0  0.51760  0.87623  0.99970  1.0000
  S   S385      1.0  0.65939  0.64679  0.08533  1.0000
  S   S386      1.0  0.68075  0.63032  0.12256  1.0000
  C   C1096     1.0  0.56663  0.82459  0.05984  1.0000
  H   H1098     1.0  0.64541  0.64159  0.01835  1.0000
  C   C1097     1.0  0.58526  0.96430  0.00584  1.0000
  C   C1098     1.0  0.68579  0.63809  0.01684  1.0000
  C   C1099     1.0  0.68217  0.61940  0.01729  1.0000
  C   C1100     1.0  0.54606  0.85672  0.06927  1.0000
  C   C1101     1.0  0.58158  0.88095  0.30141  1.0000
  H   H1099     1.0  0.56495  0.81655  0.08914  1.0000
  H   H1100     1.0  0.68123  0.61106  0.03046  1.0000
  C   C1102     1.0  0.70168  0.56662  0.10839  1.0000
  H   H1101     1.0  0.55229  0.85781  0.10653  1.0000
  H   H1102     1.0  0.52709  0.94361  0.99958  1.0000
  H   H1103     1.0  0.64019  0.60837  0.01769  1.0000
  C   C1103     1.0  0.56076  0.82712  0.07835  1.0000
  C   C1104     1.0  0.62274  0.72987  0.13135  1.0000
  C   C1105     1.0  0.61923  0.71209  0.12666  1.0000
  C   C1106     1.0  0.63386  0.69894  0.12160  1.0000
  C   C1107     1.0  0.65234  0.70331  0.12131  1.0000
  C   C1108     1.0  0.65582  0.72127  0.12551  1.0000
  C   C1109     1.0  0.64118  0.73448  0.13038  1.0000
  H   H1104     1.0  0.60506  0.70829  0.12733  1.0000
  H   H1105     1.0  0.63085  0.68524  0.11852  1.0000
  H   H1106     1.0  0.67002  0.72489  0.12531  1.0000
  H   H1107     1.0  0.64423  0.74805  0.13383  1.0000
  C   C1110     1.0  0.51069  0.79518  0.15917  1.0000
  C   C1111     1.0  0.68472  0.54501  0.09422  1.0000
  C   C1112     1.0  0.51180  0.77810  0.15144  1.0000
  H   H1108     1.0  0.71195  0.55290  0.08402  1.0000
  H   H1109     1.0  0.52501  0.77003  0.15022  1.0000
  H   H1110     1.0  0.54826  0.86562  0.03993  1.0000
  C   C1113     1.0  0.56211  0.83848  0.04592  1.0000
  C   C1114     1.0  0.61824  0.82642  0.21784  1.0000
  C   C1115     1.0  0.60271  0.83790  0.22351  1.0000
  C   C1116     1.0  0.60374  0.84983  0.23782  1.0000
  C   C1117     1.0  0.62024  0.85059  0.24681  1.0000
  C   C1118     1.0  0.63576  0.83912  0.24112  1.0000
  C   C1119     1.0  0.63473  0.82717  0.22682  1.0000
  H   H1111     1.0  0.58983  0.83751  0.21701  1.0000
  H   H1112     1.0  0.59157  0.85853  0.24201  1.0000
  H   H1113     1.0  0.64857  0.83937  0.24780  1.0000
  H   H1114     1.0  0.64688  0.81839  0.22275  1.0000
  C   C1120     1.0  0.67094  0.97704  0.29238  1.0000
  C   C1121     1.0  0.66092  0.96137  0.29791  1.0000
  H   H1115     1.0  0.66016  0.56189  0.13157  1.0000
  H   H1116     1.0  0.67526  0.59033  0.13808  1.0000
  H   H1117     1.0  0.68280  0.97575  0.28244  1.0000
  H   H1118     1.0  0.67681  0.59704  0.00116  1.0000
  C   C1122     1.0  0.60532  0.85015  0.05272  1.0000
  C   C1123     1.0  0.59551  0.86428  0.06212  1.0000
  C   C1124     1.0  0.59156  0.86177  0.08146  1.0000
  C   C1125     1.0  0.59695  0.84496  0.09155  1.0000
  C   C1126     1.0  0.60672  0.83075  0.08220  1.0000
  C   C1127     1.0  0.61107  0.83344  0.06287  1.0000
  H   H1119     1.0  0.59114  0.87724  0.05451  1.0000
  H   H1120     1.0  0.58412  0.87289  0.08859  1.0000
  H   H1121     1.0  0.61101  0.81776  0.08983  1.0000
  H   H1122     1.0  0.61873  0.82247  0.05568  1.0000
  C   C1128     1.0  0.70058  0.55463  0.09451  1.0000
  C   C1129     1.0  0.64963  0.83479  0.13902  1.0000
  S   S387      1.0  0.59547  0.49550  0.10606  1.0000
  H   H1123     1.0  0.64368  0.83951  0.18531  1.0000
  S   S388      1.0  0.57094  0.50721  0.06975  1.0000
  Fe  Fe198     1.0  0.55697  0.89546  0.00771  1.0000
  C   C1130     1.0  0.62559  0.55083  0.07989  1.0000
  C   C1131     1.0  0.63950  0.56205  0.07176  1.0000
  C   C1132     1.0  0.64500  0.57682  0.08092  1.0000
  C   C1133     1.0  0.63651  0.58062  0.09830  1.0000
  C   C1134     1.0  0.62272  0.56933  0.10650  1.0000
  C   C1135     1.0  0.61732  0.55446  0.09740  1.0000
  H   H1124     1.0  0.64604  0.55928  0.05826  1.0000
  H   H1125     1.0  0.65576  0.58527  0.07453  1.0000
  H   H1126     1.0  0.61607  0.57213  0.11996  1.0000
  H   H1127     1.0  0.60658  0.54598  0.10381  1.0000
  S   S389      1.0  0.56836  0.86713  0.00077  1.0000
  C   C1136     1.0  0.65337  0.83293  0.15775  1.0000
  H   H1128     1.0  0.71409  0.57401  0.10854  1.0000
  H   H1129     1.0  0.65906  0.82817  0.12882  1.0000
  N   N94       1.0  0.55065  0.84307  0.08285  1.0000
  C   C1137     1.0  0.63851  0.63433  0.03039  1.0000
  H   H1130     1.0  0.56718  0.83693  0.03161  1.0000
  C   C1138     1.0  0.62707  0.60601  0.04549  1.0000
  C   C1139     1.0  0.49332  0.80537  0.16073  1.0000
  H   H1131     1.0  0.57255  0.98219  0.02624  1.0000
  S   S390      1.0  0.73288  0.60630  0.11253  1.0000
  N   N95       1.0  0.57036  0.89149  0.31311  1.0000
  H   H1132     1.0  0.61528  0.60796  0.07357  1.0000
  H   H1133     1.0  0.51075  0.97497  0.00248  1.0000
  N   N96       1.0  0.62512  0.85135  0.16517  1.0000
  C   C1140     1.0  0.62126  0.85306  0.14687  1.0000
  C   C1141     1.0  0.61167  0.85924  0.17902  1.0000
  H   H1134     1.0  0.60850  0.86053  0.14252  1.0000
  H   H1135     1.0  0.60477  0.87258  0.17335  1.0000
  H   H1136     1.0  0.60098  0.84926  0.18328  1.0000
  H   H1137     1.0  0.61846  0.86203  0.19164  1.0000
  N   N97       1.0  0.63496  0.72578  0.17681  1.0000
  C   C1142     1.0  0.65380  0.72237  0.17443  1.0000
  C   C1143     1.0  0.62348  0.71235  0.17413  1.0000
  C   C1144     1.0  0.66160  0.70512  0.16929  1.0000
  C   C1145     1.0  0.63082  0.69490  0.16910  1.0000
  C   C1146     1.0  0.62717  0.74437  0.18102  1.0000
  H   H1138     1.0  0.66287  0.73321  0.17593  1.0000
  H   H1139     1.0  0.60854  0.71535  0.17503  1.0000
  H   H1140     1.0  0.63024  0.66915  0.05869  1.0000
  H   H1141     1.0  0.61214  0.74450  0.18547  1.0000
  H   H1142     1.0  0.63433  0.74945  0.19237  1.0000
  H   H1143     1.0  0.62864  0.75420  0.16836  1.0000
  H   H1144     1.0  0.67650  0.70265  0.16666  1.0000
  C   C1147     1.0  0.55570  0.88407  0.32338  1.0000
  C   C1148     1.0  0.64089  0.84137  0.17071  1.0000
  S   S391      1.0  0.52901  0.90016  0.02290  1.0000
  H   H1145     1.0  0.63026  0.84624  0.11902  1.0000
  C   C1149     1.0  0.63351  0.84495  0.13351  1.0000
  C   C1150     1.0  0.65001  0.69134  0.16657  1.0000
  C   C1151     1.0  0.62465  0.63414  0.06119  1.0000
  C   C1152     1.0  0.64571  0.96323  0.31089  1.0000
  C   C1153     1.0  0.63562  0.61553  0.02994  1.0000
  H   H1146     1.0  0.69161  0.57342  0.14929  1.0000
  H   H1147     1.0  0.66568  0.82478  0.16230  1.0000
  C   C1154     1.0  0.51255  0.88739  0.01429  1.0000
  H   H1148     1.0  0.62168  0.68455  0.16629  1.0000
  H   H1149     1.0  0.52992  0.84897  0.10435  1.0000
  C   C1155     1.0  0.58101  0.98157  0.01331  1.0000
  H   H1150     1.0  0.62053  0.64116  0.07363  1.0000
  C   C1156     1.0  0.54517  0.84600  0.10235  1.0000
  H   H1151     1.0  0.69966  0.59129  0.13239  1.0000
  H   H1152     1.0  0.63787  0.95135  0.31533  1.0000
  H   H1153     1.0  0.68353  0.53582  0.08343  1.0000
  C   C1157     1.0  0.57867  0.86227  0.30028  1.0000
  H   H1154     1.0  0.65146  0.66470  0.04486  1.0000
  H   H1155     1.0  0.63015  0.67126  0.03375  1.0000
  C   C1158     1.0  0.62160  0.61533  0.06125  1.0000
  C   C1159     1.0  0.68852  0.58164  0.13604  1.0000
  H   H1156     1.0  0.65772  0.54021  0.10758  1.0000
  H   H1157     1.0  0.56683  0.91975  0.30264  1.0000
  C   C1160     1.0  0.64046  0.98055  0.31797  1.0000
  H   H1158     1.0  0.62485  0.59138  0.04542  1.0000
  C   C1161     1.0  0.57361  0.91107  0.31400  1.0000
  H   H1159     1.0  0.49667  0.75769  0.14030  1.0000
  C   C1162     1.0  0.67173  0.55966  0.12138  1.0000
  H   H1160     1.0  0.58010  0.95181  0.01302  1.0000
  C   C1163     1.0  0.67962  0.61151  0.00064  1.0000
  C   C1164     1.0  0.51256  0.94620  0.99670  1.0000
  H   H1161     1.0  0.68979  0.66316  0.99903  1.0000
  H   H1162     1.0  0.53832  0.86952  0.07281  1.0000
  H   H1163     1.0  0.59295  0.88688  0.29289  1.0000
  H   H1164     1.0  0.57526  0.81228  0.05636  1.0000
  N   N98       1.0  0.68723  0.56919  0.12143  1.0000
  H   H1165     1.0  0.54920  0.83366  0.11191  1.0000
  C   C1165     1.0  0.56402  0.85446  0.31106  1.0000
  C   C1166     1.0  0.49406  0.88899  0.02148  1.0000
  H   H1166     1.0  0.58782  0.85397  0.29113  1.0000
  H   H1167     1.0  0.55232  0.49506  0.99811  1.0000
  C   C1167     1.0  0.50441  0.86615  0.99277  1.0000
  S   S392      1.0  0.54141  0.49474  0.11793  1.0000
  H   H1168     1.0  0.58872  0.91301  0.31279  1.0000
  C   C1168     1.0  0.55237  0.86543  0.32261  1.0000
  H   H1169     1.0  0.53160  0.87550  0.99351  1.0000
  H   H1170     1.0  0.56174  0.83993  0.31053  1.0000
  C   C1169     1.0  0.49566  0.77110  0.14590  1.0000
  C   C1170     1.0  0.50337  0.96371  0.99842  1.0000
  H   H1171     1.0  0.63516  0.99139  0.27178  1.0000
  Fe  Fe199     1.0  0.63046  0.89093  0.32484  1.0000
  Fe  Fe200     1.0  0.52351  0.88664  0.59375  1.0000
  S   S393      1.0  0.50870  0.91397  0.59978  1.0000
  S   S394      1.0  0.54632  0.87131  0.61047  1.0000
  S   S395      1.0  0.65927  0.89963  0.32694  1.0000
  C   C1171     1.0  0.73968  0.84462  0.61968  1.0000
  Fe  Fe201     1.0  0.51108  0.92073  0.56889  1.0000
  S   S396      1.0  0.52104  0.94712  0.55440  1.0000
  S   S397      1.0  0.52799  0.89444  0.56317  1.0000
  C   C1172     1.0  0.70596  0.90266  0.63078  1.0000
  H   H1172     1.0  0.56964  0.84610  0.36104  1.0000
  Fe  Fe202     1.0  0.51247  0.88033  0.39165  1.0000
  C   C1173     1.0  0.52674  0.90749  0.49887  1.0000
  S   S398      1.0  0.53562  0.86084  0.37964  1.0000
  Fe  Fe203     1.0  0.50450  0.92132  0.39310  1.0000
  S   S399      1.0  0.51691  0.94851  0.38491  1.0000
  S   S400      1.0  0.51834  0.89979  0.41258  1.0000
  H   H1173     1.0  0.52682  0.95075  0.59771  1.0000
  S   S401      1.0  0.60822  0.89950  0.34687  1.0000
  H   H1174     1.0  0.49893  0.89138  0.65404  1.0000
  C   C1174     1.0  0.71407  0.85581  0.64119  1.0000
  C   C1175     1.0  0.53102  0.96464  0.59866  1.0000
  H   H1175     1.0  0.59795  0.86100  0.34731  1.0000
  C   C1176     1.0  0.54626  0.97083  0.58761  1.0000
  C   C1177     1.0  0.49397  0.87534  0.51361  1.0000
  C   C1178     1.0  0.51236  0.92690  0.47498  1.0000
  Fe  Fe204     1.0  0.50046  0.88347  0.56022  1.0000
  C   C1179     1.0  0.71830  0.87121  0.34333  1.0000
  H   H1176     1.0  0.71881  0.82442  0.34304  1.0000
  C   C1180     1.0  0.73906  0.83855  0.35572  1.0000
  N   N99       1.0  0.50445  0.85021  0.63498  1.0000
  C   C1181     1.0  0.55617  0.87125  0.37107  1.0000
  C   C1182     1.0  0.57085  0.86072  0.36218  1.0000
  C   C1183     1.0  0.58689  0.86912  0.35441  1.0000
  C   C1184     1.0  0.58849  0.88802  0.35598  1.0000
  C   C1185     1.0  0.57401  0.89837  0.36521  1.0000
  C   C1186     1.0  0.55784  0.89012  0.37249  1.0000
  C   C1187     1.0  0.64242  0.86973  0.36859  1.0000
  H   H1177     1.0  0.65236  0.82704  0.37241  1.0000
  H   H1178     1.0  0.57516  0.91296  0.36659  1.0000
  H   H1179     1.0  0.54667  0.89841  0.37925  1.0000
  C   C1188     1.0  0.50790  0.96565  0.39936  1.0000
  H   H1180     1.0  0.49645  0.95162  0.48334  1.0000
  C   C1189     1.0  0.59001  0.87931  0.64029  1.0000
  S   S402      1.0  0.49713  0.87304  0.59065  1.0000
  H   H1181     1.0  0.70397  0.87964  0.60517  1.0000
  C   C1190     1.0  0.56269  0.88223  0.62195  1.0000
  C   C1191     1.0  0.57691  0.87121  0.63076  1.0000
  C   C1192     1.0  0.58891  0.89856  0.64121  1.0000
  C   C1193     1.0  0.57463  0.90958  0.63246  1.0000
  C   C1194     1.0  0.56161  0.90149  0.62284  1.0000
  H   H1182     1.0  0.72788  0.87886  0.59712  1.0000
  H   H1183     1.0  0.55075  0.91013  0.61615  1.0000
  S   S403      1.0  0.65795  0.90346  0.65376  1.0000
  H   H1184     1.0  0.62432  0.94854  0.63736  1.0000
  C   C1195     1.0  0.67388  0.85810  0.37027  1.0000
  H   H1185     1.0  0.57789  0.85631  0.63013  1.0000
  H   H1186     1.0  0.50725  0.85211  0.49988  1.0000
  C   C1196     1.0  0.72304  0.83779  0.34584  1.0000
  H   H1187     1.0  0.66187  0.83364  0.34910  1.0000
  C   C1197     1.0  0.53083  0.89858  0.46683  1.0000
  N   N100      1.0  0.72018  0.89690  0.61861  1.0000
  H   H1188     1.0  0.69178  0.90022  0.62857  1.0000
  N   N101      1.0  0.52292  0.91115  0.48061  1.0000
  H   H1189     1.0  0.49974  0.86524  0.46808  1.0000
  C   C1198     1.0  0.72057  0.84649  0.62542  1.0000
  H   H1190     1.0  0.52265  0.91671  0.52655  1.0000
  H   H1191     1.0  0.71066  0.84102  0.61733  1.0000
  C   C1199     1.0  0.66484  0.88961  0.37723  1.0000
  S   S404      1.0  0.68957  0.85936  0.64653  1.0000
  C   C1200     1.0  0.51981  0.91972  0.51205  1.0000
  H   H1192     1.0  0.56822  0.91604  0.32761  1.0000
  C   C1201     1.0  0.72782  0.91375  0.64985  1.0000
  C   C1202     1.0  0.50894  0.93573  0.50648  1.0000
  C   C1203     1.0  0.49955  0.86550  0.49801  1.0000
  C   C1204     1.0  0.50513  0.93937  0.48782  1.0000
  H   H1193     1.0  0.63578  0.89809  0.37506  1.0000
  C   C1205     1.0  0.67859  0.87511  0.37548  1.0000
  C   C1206     1.0  0.52068  0.97676  0.61013  1.0000
  H   H1194     1.0  0.62823  0.86786  0.36583  1.0000
  H   H1195     1.0  0.52128  0.98761  0.38280  1.0000
  C   C1207     1.0  0.51904  0.83715  0.62750  1.0000
  H   H1196     1.0  0.52114  0.89800  0.45573  1.0000
  H   H1197     1.0  0.69289  0.87706  0.37779  1.0000
  H   H1198     1.0  0.54414  0.90341  0.46036  1.0000
  H   H1199     1.0  0.68468  0.84696  0.36868  1.0000
  H   H1200     1.0  0.71046  0.88389  0.33863  1.0000
  H   H1201     1.0  0.55390  0.96169  0.57814  1.0000
  C   C1208     1.0  0.50764  0.96631  0.56237  1.0000
  H   H1202     1.0  0.52133  0.84042  0.61222  1.0000
  C   C1209     1.0  0.64660  0.88688  0.37395  1.0000
  H   H1203     1.0  0.53246  0.83821  0.63368  1.0000
  C   C1210     1.0  0.71255  0.85408  0.33949  1.0000
  N   N102      1.0  0.65608  0.85573  0.36650  1.0000
  H   H1204     1.0  0.60091  0.87067  0.64694  1.0000
  H   H1205     1.0  0.73854  0.88535  0.35599  1.0000
  C   C1211     1.0  0.51184  0.98413  0.39468  1.0000
  S   S405      1.0  0.60479  0.90956  0.65326  1.0000
  H   H1206     1.0  0.62857  0.98177  0.32787  1.0000
  C   C1212     1.0  0.49523  0.87882  0.64866  1.0000
  C   C1213     1.0  0.71600  0.88830  0.60202  1.0000
  H   H1207     1.0  0.50840  0.97208  0.61810  1.0000
  H   H1208     1.0  0.52346  0.86846  0.64305  1.0000
  C   C1214     1.0  0.65172  0.83788  0.36056  1.0000
  C   C1215     1.0  0.49590  0.96119  0.41488  1.0000
  H   H1209     1.0  0.66834  0.90300  0.38093  1.0000
  H   H1210     1.0  0.54680  0.89236  0.33272  1.0000
  H   H1211     1.0  0.51527  0.82258  0.63038  1.0000
  C   C1216     1.0  0.70957  0.91107  0.64661  1.0000
  H   H1212     1.0  0.63773  0.83871  0.35513  1.0000
  H   H1213     1.0  0.57367  0.92447  0.63310  1.0000
  H   H1214     1.0  0.71271  0.89920  0.59071  1.0000
  H   H1215     1.0  0.53483  0.89487  0.50345  1.0000
  C   C1217     1.0  0.73432  0.87198  0.35321  1.0000
  S   S406      1.0  0.49975  0.86572  0.53603  1.0000
  C   C1218     1.0  0.50904  0.86583  0.64230  1.0000
  H   H1216     1.0  0.50906  0.92962  0.46055  1.0000
  H   H1217     1.0  0.52551  0.98615  0.54816  1.0000
  C   C1219     1.0  0.72712  0.86261  0.65157  1.0000
  S   S407      1.0  0.50042  0.90244  0.37132  1.0000
  C   C1220     1.0  0.49527  0.87288  0.47998  1.0000
  C   C1221     1.0  0.55114  0.98896  0.58834  1.0000
  H   H1218     1.0  0.53317  0.88413  0.47325  1.0000
  C   C1222     1.0  0.63245  0.94975  0.64952  1.0000
  S   S408      1.0  0.69205  0.85204  0.32762  1.0000
  C   C1223     1.0  0.51333  0.98420  0.55752  1.0000
  H   H1219     1.0  0.64680  0.95326  0.64480  1.0000
  H   H1220     1.0  0.54113  0.85947  0.33138  1.0000
  H   H1221     1.0  0.63820  0.98577  0.64807  1.0000
  C   C1224     1.0  0.73813  0.89968  0.62153  1.0000
  H   H1222     1.0  0.50339  0.94517  0.51670  1.0000
  C   C1225     1.0  0.74223  0.90804  0.63724  1.0000
  H   H1223     1.0  0.69830  0.91525  0.65646  1.0000
  H   H1224     1.0  0.49335  0.94692  0.41899  1.0000
  H   H1225     1.0  0.63375  0.93594  0.65745  1.0000
  H   H1226     1.0  0.60607  0.78878  0.90093  1.0000
  Fe  Fe205     1.0  0.58769  0.50343  0.90639  1.0000
  Fe  Fe206     1.0  0.63038  0.89625  0.66739  1.0000
  S   S409      1.0  0.58954  0.53462  0.89988  1.0000
  H   H1227     1.0  0.65951  0.67181  0.83956  1.0000
  H   H1228     1.0  0.67487  0.62271  0.83144  1.0000
  H   H1229     1.0  0.60609  0.94397  0.67651  1.0000
  H   H1230     1.0  0.72324  0.58255  0.95297  1.0000
  C   C1226     1.0  0.61030  0.52810  0.94899  1.0000
  Fe  Fe207     1.0  0.57714  0.88074  0.97272  1.0000
  H   H1231     1.0  0.59056  0.74532  0.92354  1.0000
  S   S410      1.0  0.56795  0.87008  0.94642  1.0000
  C   C1227     1.0  0.60047  0.97134  0.68586  1.0000
  C   C1228     1.0  0.49927  0.80522  0.83037  1.0000
  S   S411      1.0  0.56347  0.90870  0.97911  1.0000
  H   H1232     1.0  0.61183  0.97894  0.96748  1.0000
  C   C1229     1.0  0.63924  0.51499  0.93393  1.0000
  S   S412      1.0  0.63476  0.90963  0.69333  1.0000
  C   C1230     1.0  0.64739  0.76441  0.89280  1.0000
  H   H1233     1.0  0.50847  0.85743  0.98156  1.0000
  S   S413      1.0  0.67676  0.88883  0.69263  1.0000
  H   H1234     1.0  0.67830  0.53556  0.91710  1.0000
  Fe  Fe208     1.0  0.64782  0.88161  0.70406  1.0000
  S   S414      1.0  0.63905  0.87376  0.73506  1.0000
  Fe  Fe209     1.0  0.66277  0.91566  0.68017  1.0000
  C   C1231     1.0  0.72310  0.60267  0.97310  1.0000
  S   S415      1.0  0.64174  0.86778  0.67863  1.0000
  H   H1235     1.0  0.62851  0.55889  0.94453  1.0000
  Fe  Fe210     1.0  0.60520  0.79859  0.82111  1.0000
  S   S416      1.0  0.58512  0.77606  0.82598  1.0000
  S   S417      1.0  0.61805  0.80310  0.79102  1.0000
  Fe  Fe211     1.0  0.59872  0.80792  0.86187  1.0000
  S   S418      1.0  0.57775  0.78673  0.86897  1.0000
  S   S419      1.0  0.61060  0.82417  0.88323  1.0000
  Fe  Fe212     1.0  0.59813  0.76746  0.85313  1.0000
  S   S420      1.0  0.60189  0.73742  0.86692  1.0000
  Fe  Fe213     1.0  0.56639  0.79672  0.84131  1.0000
  S   S421      1.0  0.53721  0.80503  0.83160  1.0000
  S   S422      1.0  0.61962  0.78830  0.84721  1.0000
  S   S423      1.0  0.58602  0.81956  0.83539  1.0000
  Fe  Fe214     1.0  0.71131  0.61858  0.89764  1.0000
  S   S424      1.0  0.68911  0.62331  0.87746  1.0000
  C   C1232     1.0  0.67301  0.98204  0.67269  1.0000
  Fe  Fe215     1.0  0.68201  0.62004  0.93159  1.0000
  S   S425      1.0  0.65785  0.62481  0.91316  1.0000
  S   S426      1.0  0.67807  0.61111  0.96283  1.0000
  Fe  Fe216     1.0  0.67319  0.60285  0.89654  1.0000
  S   S427      1.0  0.66356  0.57709  0.88537  1.0000
  Fe  Fe217     1.0  0.67553  0.64513  0.89563  1.0000
  S   S428      1.0  0.66826  0.67413  0.88070  1.0000
  S   S429      1.0  0.69625  0.59698  0.91570  1.0000
  S   S430      1.0  0.69888  0.64149  0.91510  1.0000
  C   C1233     1.0  0.62187  0.90124  0.92872  1.0000
  C   C1234     1.0  0.62055  0.71989  0.87011  1.0000
  C   C1235     1.0  0.61717  0.70351  0.88153  1.0000
  C   C1236     1.0  0.63153  0.68950  0.88514  1.0000
  C   C1237     1.0  0.64955  0.69157  0.87723  1.0000
  C   C1238     1.0  0.65292  0.70791  0.86577  1.0000
  C   C1239     1.0  0.63859  0.72198  0.86227  1.0000
  H   H1236     1.0  0.60331  0.70168  0.88772  1.0000
  H   H1237     1.0  0.62862  0.67710  0.89402  1.0000
  H   H1238     1.0  0.66676  0.70972  0.85950  1.0000
  H   H1239     1.0  0.64150  0.73445  0.85347  1.0000
  C   C1240     1.0  0.51491  0.79760  0.83963  1.0000
  H   H1240     1.0  0.73599  0.59963  0.85622  1.0000
  H   H1241     1.0  0.63832  0.79353  0.88902  1.0000
  H   H1242     1.0  0.60871  0.51392  0.95590  1.0000
  C   C1241     1.0  0.51234  0.78447  0.85484  1.0000
  C   C1242     1.0  0.65451  0.54902  0.93139  1.0000
  C   C1243     1.0  0.64199  0.64537  0.85790  1.0000
  H   H1243     1.0  0.52418  0.77847  0.86211  1.0000
  C   C1244     1.0  0.63404  0.85371  0.75046  1.0000
  C   C1245     1.0  0.63515  0.83574  0.74461  1.0000
  C   C1246     1.0  0.63060  0.82048  0.75730  1.0000
  C   C1247     1.0  0.62471  0.82287  0.77602  1.0000
  C   C1248     1.0  0.62368  0.84081  0.78190  1.0000
  C   C1249     1.0  0.62834  0.85605  0.76923  1.0000
  H   H1244     1.0  0.63957  0.83360  0.73031  1.0000
  H   H1245     1.0  0.63156  0.80670  0.75254  1.0000
  H   H1246     1.0  0.61925  0.84296  0.79619  1.0000
  H   H1247     1.0  0.62750  0.86982  0.77400  1.0000
  C   C1250     1.0  0.66629  0.96564  0.68172  1.0000
  C   C1251     1.0  0.64204  0.74665  0.89871  1.0000
  C   C1252     1.0  0.64698  0.98458  0.70286  1.0000
  S   S431      1.0  0.60486  0.88700  0.98161  1.0000
  H   H1248     1.0  0.68044  0.65806  0.84492  1.0000
  C   C1253     1.0  0.57989  0.85513  0.93066  1.0000
  C   C1254     1.0  0.56986  0.84831  0.91720  1.0000
  C   C1255     1.0  0.57898  0.83827  0.90295  1.0000
  C   C1256     1.0  0.59829  0.83515  0.90187  1.0000
  C   C1257     1.0  0.60831  0.84165  0.91554  1.0000
  C   C1258     1.0  0.59916  0.85145  0.92997  1.0000
  H   H1249     1.0  0.55496  0.85114  0.91758  1.0000
  H   H1250     1.0  0.57110  0.83340  0.89251  1.0000
  H   H1251     1.0  0.62326  0.83925  0.91485  1.0000
  H   H1252     1.0  0.60704  0.85661  0.94023  1.0000
  H   H1253     1.0  0.66472  0.50484  0.91959  1.0000
  H   H1254     1.0  0.61943  0.73051  0.90927  1.0000
  H   H1255     1.0  0.63332  0.50167  0.93470  1.0000
  C   C1259     1.0  0.68461  0.64075  0.98287  1.0000
  Fe  Fe218     1.0  0.59048  0.91426  0.98993  1.0000
  C   C1260     1.0  0.63799  0.61251  0.86119  1.0000
  S   S432      1.0  0.57541  0.49698  0.93545  1.0000
  Fe  Fe219     1.0  0.67016  0.87632  0.66671  1.0000
  H   H1256     1.0  0.65187  0.73461  0.89759  1.0000
  H   H1257     1.0  0.64788  0.95454  0.70393  1.0000
  C   C1261     1.0  0.61058  0.54577  0.89717  1.0000
  C   C1262     1.0  0.62688  0.53718  0.88924  1.0000
  C   C1263     1.0  0.64289  0.54705  0.88569  1.0000
  C   C1264     1.0  0.64304  0.56533  0.89064  1.0000
  C   C1265     1.0  0.62694  0.57372  0.89919  1.0000
  C   C1266     1.0  0.61070  0.56408  0.90213  1.0000
  H   H1258     1.0  0.62693  0.52319  0.88516  1.0000
  H   H1259     1.0  0.65525  0.54045  0.87901  1.0000
  H   H1260     1.0  0.62685  0.58777  0.90311  1.0000
  H   H1261     1.0  0.59810  0.57086  0.90815  1.0000
  C   C1267     1.0  0.63230  0.63041  0.86594  1.0000
  H   H1262     1.0  0.66012  0.56255  0.92989  1.0000
  C   C1268     1.0  0.73736  0.63087  0.96198  1.0000
  H   H1263     1.0  0.63640  0.89676  0.92999  1.0000
  C   C1269     1.0  0.59158  0.75664  0.91218  1.0000
  H   H1264     1.0  0.62062  0.63265  0.87599  1.0000
  C   C1270     1.0  0.72799  0.62026  0.97627  1.0000
  H   H1265     1.0  0.65820  0.59575  0.84545  1.0000
  N   N103      1.0  0.62932  0.52994  0.94100  1.0000
  C   C1271     1.0  0.66267  0.62503  0.84082  1.0000
  H   H1266     1.0  0.63082  0.60070  0.86749  1.0000
  C   C1272     1.0  0.61174  0.89392  0.91579  1.0000
  H   H1267     1.0  0.66147  0.76633  0.88720  1.0000
  H   H1268     1.0  0.73073  0.92006  0.66223  1.0000
  H   H1269     1.0  0.72246  0.86963  0.66384  1.0000
  H   H1270     1.0  0.60049  0.53071  0.93781  1.0000
  C   C1273     1.0  0.61616  0.77689  0.90053  1.0000
  C   C1274     1.0  0.59432  0.91971  0.93861  1.0000
  H   H1271     1.0  0.58422  0.76943  0.91735  1.0000
  H   H1272     1.0  0.63766  0.65920  0.86188  1.0000
  C   C1275     1.0  0.66745  0.65823  0.83765  1.0000
  C   C1276     1.0  0.58298  0.89209  0.90040  1.0000
  C   C1277     1.0  0.66472  0.53384  0.92416  1.0000
  N   N104      1.0  0.59330  0.89923  0.91450  1.0000
  C   C1278     1.0  0.61309  0.91430  0.94011  1.0000
  H   H1273     1.0  0.72405  0.62581  0.98956  1.0000
  N   N105      1.0  0.57246  0.81805  0.77850  1.0000
  C   C1279     1.0  0.56701  0.83115  0.79065  1.0000
  C   C1280     1.0  0.58199  0.82286  0.76195  1.0000
  C   C1281     1.0  0.57116  0.84964  0.78636  1.0000
  C   C1282     1.0  0.58610  0.84126  0.75707  1.0000
  C   C1283     1.0  0.58076  0.85468  0.76944  1.0000
  C   C1284     1.0  0.56857  0.79860  0.78325  1.0000
  H   H1274     1.0  0.55961  0.82733  0.80387  1.0000
  H   H1275     1.0  0.58701  0.81232  0.75269  1.0000
  H   H1276     1.0  0.56722  0.85987  0.79623  1.0000
  H   H1277     1.0  0.59416  0.84494  0.74418  1.0000
  H   H1278     1.0  0.58457  0.86883  0.76609  1.0000
  H   H1279     1.0  0.56129  0.79342  0.77206  1.0000
  H   H1280     1.0  0.58182  0.78997  0.78509  1.0000
  H   H1281     1.0  0.55965  0.79676  0.79640  1.0000
  C   C1285     1.0  0.62739  0.98168  0.65846  1.0000
  H   H1282     1.0  0.56886  0.88888  0.90629  1.0000
  H   H1283     1.0  0.50106  0.81538  0.81858  1.0000
  H   H1284     1.0  0.58986  0.87891  0.89561  1.0000
  C   C1286     1.0  0.58455  0.91192  0.92573  1.0000
  C   C1287     1.0  0.60964  0.95834  0.67453  1.0000
  C   C1288     1.0  0.68085  0.62210  0.98333  1.0000
  H   H1285     1.0  0.62071  0.92009  0.95027  1.0000
  H   H1286     1.0  0.58180  0.90250  0.88824  1.0000
  H   H1287     1.0  0.68562  0.64909  0.96970  1.0000
  H   H1288     1.0  0.61865  0.88375  0.90699  1.0000
  C   C1289     1.0  0.63441  0.77966  0.89380  1.0000
  C   C1290     1.0  0.59646  0.96321  0.98931  1.0000
  H   H1289     1.0  0.58737  0.92975  0.94755  1.0000
  C   C1291     1.0  0.63664  0.54686  0.93962  1.0000
  H   H1290     1.0  0.67094  0.65749  0.82253  1.0000
  H   H1291     1.0  0.74070  0.64471  0.96442  1.0000
  H   H1292     1.0  0.56987  0.91589  0.92494  1.0000
  S   S433      1.0  0.67493  0.94388  0.67373  1.0000
  C   C1292     1.0  0.62367  0.74441  0.90540  1.0000
  N   N106      1.0  0.61101  0.75944  0.90626  1.0000
  C   C1293     1.0  0.72756  0.59593  0.95577  1.0000
  H   H1293     1.0  0.58438  0.75287  0.90019  1.0000
  C   C1294     1.0  0.65310  0.96702  0.69676  1.0000
  H   H1294     1.0  0.63695  0.98544  0.71466  1.0000
  H   H1295     1.0  0.68329  0.98115  0.66109  1.0000
  C   C1295     1.0  0.65331  0.60975  0.84863  1.0000
  H   H1296     1.0  0.71527  0.59455  0.98385  1.0000
  S   S434      1.0  0.60282  0.94166  0.97973  1.0000
  C   C1296     1.0  0.65707  0.51669  0.92543  1.0000
  N   N107      1.0  0.65688  0.64258  0.84540  1.0000
  H   H1297     1.0  0.60643  0.53803  0.95967  1.0000
  C   C1297     1.0  0.60314  0.97962  0.98026  1.0000
  N   N108      1.0  0.62311  0.96356  0.66127  1.0000
  C   C1298     1.0  0.49437  0.77913  0.86068  1.0000
  H   H1298     1.0  0.59010  0.96705  0.69665  1.0000
  C   C1299     1.0  0.73716  0.60680  0.94188  1.0000
  H   H1299     1.0  0.74149  0.64205  0.92046  1.0000
  H   H1300     1.0  0.74048  0.60147  0.92841  1.0000
  H   H1301     1.0  0.51017  0.91836  0.99005  1.0000
  C   C1300     1.0  0.50286  0.93186  0.99143  1.0000
  N   N109      1.0  0.74210  0.62396  0.94515  1.0000
  C   C1301     1.0  0.60495  0.98981  0.68329  1.0000
  C   C1302     1.0  0.97312  0.30790  0.30002  1.0000
  S   S435      1.0  0.99150  0.37889  0.08748  1.0000
  S   S436      1.0  0.95720  0.42087  0.10981  1.0000
  C   C1303     1.0  0.84573  0.43336  0.23706  1.0000
  C   C1304     1.0  0.83347  0.44730  0.22920  1.0000
  S   S437      1.0  0.89206  0.32440  0.29612  1.0000
  Fe  Fe220     1.0  0.86422  0.38486  0.16687  1.0000
  S   S438      1.0  0.85935  0.39945  0.19329  1.0000
  S   S439      1.0  0.89207  0.37582  0.15209  1.0000
  Fe  Fe221     1.0  0.82268  0.37705  0.16549  1.0000
  S   S440      1.0  0.81532  0.39106  0.19192  1.0000
  S   S441      1.0  0.80552  0.36132  0.14684  1.0000
  Fe  Fe222     1.0  0.83406  0.41329  0.17984  1.0000
  S   S442      1.0  0.82215  0.44362  0.17978  1.0000
  Fe  Fe223     1.0  0.84127  0.37616  0.20353  1.0000
  S   S443      1.0  0.83861  0.36174  0.23338  1.0000
  S   S444      1.0  0.84010  0.40006  0.15276  1.0000
  S   S445      1.0  0.84746  0.36082  0.17787  1.0000
  C   C1305     1.0  0.78258  0.35930  0.13958  1.0000
  C   C1306     1.0  0.76674  0.36930  0.14687  1.0000
  H   H1302     1.0  0.98878  0.38221  0.15428  1.0000
  C   C1307     1.0  0.78024  0.34699  0.12606  1.0000
  H   H1303     1.0  0.76813  0.37886  0.15720  1.0000
  C   C1308     1.0  0.74666  0.35467  0.12727  1.0000
  C   C1309     1.0  0.85374  0.40103  0.24869  1.0000
  C   C1310     1.0  0.98041  0.46256  0.08488  1.0000
  C   C1311     1.0  0.83223  0.46478  0.18243  1.0000
  C   C1312     1.0  0.85081  0.46528  0.18622  1.0000
  H   H1304     1.0  0.95703  0.26047  0.28307  1.0000
  H   H1305     1.0  0.96307  0.33669  0.30035  1.0000
  H   H1306     1.0  0.85968  0.45253  0.18713  1.0000
  C   C1313     1.0  0.87684  0.33420  0.27870  1.0000
  C   C1314     1.0  0.85754  0.33355  0.28092  1.0000
  C   C1315     1.0  0.84619  0.34189  0.26689  1.0000
  C   C1316     1.0  0.85387  0.35084  0.25028  1.0000
  C   C1317     1.0  0.87318  0.35140  0.24800  1.0000
  C   C1318     1.0  0.88451  0.34324  0.26213  1.0000
  H   H1307     1.0  0.85131  0.32674  0.29351  1.0000
  H   H1308     1.0  0.83131  0.34135  0.26892  1.0000
  H   H1309     1.0  0.87941  0.35817  0.23540  1.0000
  H   H1310     1.0  0.89938  0.34389  0.26015  1.0000
  C   C1319     1.0  0.81607  0.44284  0.22484  1.0000
  H   H1311     1.0  0.92375  0.29927  0.28819  1.0000
  C   C1320     1.0  0.90975  0.38885  0.14021  1.0000
  C   C1321     1.0  0.92486  0.37929  0.13094  1.0000
  C   C1322     1.0  0.93929  0.38890  0.12130  1.0000
  C   C1323     1.0  0.93888  0.40824  0.12100  1.0000
  C   C1324     1.0  0.92376  0.41784  0.13026  1.0000
  C   C1325     1.0  0.90919  0.40822  0.13971  1.0000
  H   H1312     1.0  0.92549  0.36430  0.13132  1.0000
  H   H1313     1.0  0.95081  0.38131  0.11426  1.0000
  H   H1314     1.0  0.92330  0.43279  0.13017  1.0000
  H   H1315     1.0  0.89767  0.41577  0.14680  1.0000
  H   H1316     1.0  0.81987  0.39679  0.23857  1.0000
  H   H1317     1.0  0.94595  0.46081  0.10108  1.0000
  C   C1326     1.0  0.82093  0.48157  0.18134  1.0000
  N   N110      1.0  0.95091  0.28702  0.29333  1.0000
  H   H1318     1.0  0.84633  0.39063  0.25811  1.0000
  N   N111      1.0  0.86714  0.36880  0.11599  1.0000
  C   C1327     1.0  0.88338  0.35777  0.11528  1.0000
  C   C1328     1.0  0.85120  0.36189  0.12414  1.0000
  C   C1329     1.0  0.88399  0.33936  0.12307  1.0000
  C   C1330     1.0  0.85129  0.34351  0.13194  1.0000
  C   C1331     1.0  0.86782  0.33224  0.13151  1.0000
  C   C1332     1.0  0.86725  0.38851  0.10929  1.0000
  H   H1319     1.0  0.89616  0.36349  0.10956  1.0000
  H   H1320     1.0  0.83836  0.37067  0.12500  1.0000
  H   H1321     1.0  0.89705  0.33092  0.12314  1.0000
  H   H1322     1.0  0.83867  0.33824  0.13874  1.0000
  H   H1323     1.0  0.86816  0.31815  0.13803  1.0000
  H   H1324     1.0  0.87639  0.39041  0.09635  1.0000
  H   H1325     1.0  0.85311  0.39463  0.10628  1.0000
  H   H1326     1.0  0.87248  0.39629  0.12011  1.0000
  H   H1327     1.0  0.85939  0.43686  0.23999  1.0000
  H   H1328     1.0  0.86381  0.40680  0.25697  1.0000
  H   H1329     1.0  0.80672  0.45338  0.21806  1.0000
  H   H1330     1.0  0.93127  0.33105  0.29244  1.0000
  H   H1331     1.0  0.80653  0.48138  0.17847  1.0000
  H   H1332     1.0  0.94502  0.26043  0.30590  1.0000
  C   C1333     1.0  0.95973  0.32280  0.29813  1.0000
  S   S446      1.0  0.98321  0.41701  0.06062  1.0000
  H   H1333     1.0  0.98084  0.39295  0.13249  1.0000
  C   C1334     1.0  0.94193  0.31965  0.29373  1.0000
  C   C1335     1.0  0.93773  0.30157  0.29136  1.0000
  S   S447      1.0  0.98372  0.37574  0.03302  1.0000
  C   C1336     1.0  0.94617  0.26797  0.29180  1.0000
  H   H1334     1.0  0.79799  0.42085  0.22409  1.0000
  S   S448      1.0  0.90604  0.27687  0.32244  1.0000
  H   H1335     1.0  0.79228  0.33915  0.12022  1.0000
  C   C1337     1.0  0.94172  0.48723  0.11260  1.0000
  H   H1336     1.0  0.93272  0.26767  0.28548  1.0000
  N   N112      1.0  0.84062  0.41556  0.24079  1.0000
  H   H1337     1.0  0.86143  0.39364  0.23734  1.0000
  H   H1338     1.0  0.97218  0.45071  0.08290  1.0000
  Fe  Fe224     1.0  0.98099  0.40842  0.09120  1.0000
  H   H1339     1.0  0.97860  0.27836  0.30005  1.0000
  C   C1338     1.0  0.85790  0.48233  0.18894  1.0000
  C   C1339     1.0  0.82370  0.41102  0.23622  1.0000
  C   C1340     1.0  0.76252  0.34473  0.11991  1.0000
  H   H1340     1.0  0.74920  0.31650  0.14702  1.0000
  H   H1341     1.0  0.98523  0.46869  0.07087  1.0000
  H   H1342     1.0  0.83758  0.46137  0.22596  1.0000
  C   C1341     1.0  0.81118  0.42457  0.22818  1.0000
  C   C1342     1.0  0.96841  0.28999  0.29764  1.0000
  H   H1343     1.0  0.76114  0.33523  0.10952  1.0000
  N   N113      1.0  0.96963  0.47664  0.09533  1.0000
  H   H1344     1.0  0.98687  0.31007  0.30397  1.0000
  Fe  Fe225     1.0  0.89272  0.30603  0.32407  1.0000
  C   C1343     1.0  0.95208  0.47368  0.10277  1.0000
  H   H1345     1.0  0.97065  0.38980  0.99747  1.0000
  C   C1344     1.0  0.98436  0.38301  0.99499  1.0000
  C   C1345     1.0  0.74900  0.36697  0.14078  1.0000
  H   H1346     1.0  0.98284  0.42461  0.13781  1.0000
  H   H1347     1.0  0.87227  0.48253  0.19191  1.0000
  H   H1348     1.0  0.74531  0.29150  0.12696  1.0000
  H   H1349     1.0  0.92773  0.48496  0.11831  1.0000
  H   H1350     1.0  0.99272  0.45702  0.09241  1.0000
  Fe  Fe226     1.0  0.91985  0.41459  0.48731  1.0000
  S   S449      1.0  0.92863  0.39201  0.50892  1.0000
  S   S450      1.0  0.93203  0.44209  0.49085  1.0000
  Fe  Fe227     1.0  0.90445  0.38600  0.46424  1.0000
  S   S451      1.0  0.91221  0.36159  0.48430  1.0000
  S   S452      1.0  0.89477  0.38419  0.43532  1.0000
  Fe  Fe228     1.0  0.90146  0.38033  0.50653  1.0000
  S   S453      1.0  0.88490  0.37107  0.53325  1.0000
  Fe  Fe229     1.0  0.93866  0.37526  0.48528  1.0000
  S   S454      1.0  0.96688  0.36037  0.48179  1.0000
  S   S455      1.0  0.89147  0.40420  0.48642  1.0000
  S   S456      1.0  0.93190  0.39831  0.46373  1.0000
  H   H1351     1.0  0.91343  0.27452  0.56111  1.0000
  C   C1346     1.0  0.83894  0.02019  0.57234  1.0000
  S   S457      1.0  0.86450  0.02141  0.43091  1.0000
  Fe  Fe230     1.0  0.90911  0.00381  0.58378  1.0000
  S   S458      1.0  0.90041  0.02856  0.60043  1.0000
  H   H1352     1.0  0.82228  0.22190  0.41922  1.0000
  H   H1353     1.0  0.84206  0.13555  0.48062  1.0000
  C   C1347     1.0  0.86286  0.26522  0.39492  1.0000
  S   S459      1.0  0.93714  0.00094  0.56836  1.0000
  Fe  Fe231     1.0  0.91259  0.30577  0.62357  1.0000
  S   S460      1.0  0.91922  0.27490  0.62515  1.0000
  S   S461      1.0  0.92533  0.32053  0.59708  1.0000
  H   H1354     1.0  0.84606  0.19576  0.41525  1.0000
  C   C1348     1.0  0.83639  0.22470  0.41430  1.0000
  Fe  Fe232     1.0  0.89088  0.27206  0.63961  1.0000
  N   N114      1.0  0.90982  0.41948  0.54157  1.0000
  C   C1349     1.0  0.94245  0.35091  0.43727  1.0000
  C   C1350     1.0  0.85346  0.99413  0.59130  1.0000
  Fe  Fe233     1.0  0.82671  0.11757  0.58228  1.0000
  S   S462      1.0  0.79764  0.12469  0.57330  1.0000
  S   S463      1.0  0.83949  0.09048  0.57127  1.0000
  Fe  Fe234     1.0  0.82913  0.15652  0.59673  1.0000
  S   S464      1.0  0.80037  0.16585  0.58815  1.0000
  S   S465      1.0  0.84910  0.17274  0.61180  1.0000
  Fe  Fe235     1.0  0.79179  0.13761  0.60049  1.0000
  S   S466      1.0  0.76568  0.13710  0.62101  1.0000
  Fe  Fe236     1.0  0.80839  0.15181  0.56168  1.0000
  S   S467      1.0  0.80520  0.16544  0.53218  1.0000
  S   S468      1.0  0.82030  0.12878  0.61036  1.0000
  S   S469      1.0  0.83765  0.14430  0.56949  1.0000
  Fe  Fe237     1.0  0.81758  0.11722  0.39392  1.0000
  S   S470      1.0  0.79251  0.10863  0.41140  1.0000
  S   S471      1.0  0.83854  0.09540  0.38229  1.0000
  Fe  Fe238     1.0  0.80525  0.15852  0.39360  1.0000
  S   S472      1.0  0.77868  0.15228  0.41111  1.0000
  S   S473      1.0  0.81015  0.18953  0.38559  1.0000
  Fe  Fe239     1.0  0.79695  0.13213  0.42855  1.0000
  S   S474      1.0  0.79420  0.12388  0.46001  1.0000
  Fe  Fe240     1.0  0.77597  0.12913  0.39263  1.0000
  C   C1351     1.0  0.84099  0.24289  0.40896  1.0000
  S   S475      1.0  0.82349  0.13932  0.41214  1.0000
  S   S476      1.0  0.80112  0.13677  0.37402  1.0000
  Fe  Fe241     1.0  0.89363  0.30258  0.36667  1.0000
  S   S477      1.0  0.90720  0.27357  0.36696  1.0000
  S   S478      1.0  0.88923  0.30919  0.39699  1.0000
  Fe  Fe242     1.0  0.88652  0.26818  0.34696  1.0000
  S   S479      1.0  0.87680  0.23839  0.35118  1.0000
  Fe  Fe243     1.0  0.92562  0.28422  0.34282  1.0000
  H   H1355     1.0  0.92685  0.32619  0.38214  1.0000
  S   S480      1.0  0.87176  0.29692  0.34757  1.0000
  S   S481      1.0  0.91352  0.31363  0.34360  1.0000
  S   S482      1.0  0.89397  0.99413  0.56108  1.0000
  C   C1352     1.0  0.78380  0.17837  0.63279  1.0000
  C   C1353     1.0  0.84860  0.14648  0.51352  1.0000
  C   C1354     1.0  0.82846  0.20262  0.37445  1.0000
  C   C1355     1.0  0.82553  0.22214  0.37176  1.0000
  C   C1356     1.0  0.83992  0.23329  0.36433  1.0000
  C   C1357     1.0  0.85752  0.22508  0.35927  1.0000
  C   C1358     1.0  0.86031  0.20553  0.36146  1.0000
  C   C1359     1.0  0.84597  0.19439  0.36906  1.0000
  H   H1356     1.0  0.81204  0.22871  0.37571  1.0000
  H   H1357     1.0  0.83738  0.24823  0.36258  1.0000
  C   C1360     1.0  0.80552  0.20108  0.63613  1.0000
  H   H1358     1.0  0.84853  0.17945  0.37090  1.0000
  C   C1361     1.0  0.94230  0.41810  0.54664  1.0000
  H   H1359     1.0  0.87947  0.49033  0.49103  1.0000
  H   H1360     1.0  0.93078  0.30549  0.39686  1.0000
  C   C1362     1.0  0.80091  0.15411  0.51229  1.0000
  C   C1363     1.0  0.80365  0.16343  0.49446  1.0000
  C   C1364     1.0  0.80129  0.15462  0.47828  1.0000
  C   C1365     1.0  0.79584  0.13644  0.47977  1.0000
  C   C1366     1.0  0.79262  0.12733  0.49763  1.0000
  C   C1367     1.0  0.79531  0.13600  0.51377  1.0000
  H   H1361     1.0  0.80782  0.17750  0.49314  1.0000
  H   H1362     1.0  0.80373  0.16185  0.46468  1.0000
  H   H1363     1.0  0.78833  0.11330  0.49897  1.0000
  H   H1364     1.0  0.79300  0.12869  0.52735  1.0000
  C   C1368     1.0  0.86451  0.23190  0.62293  1.0000
  C   C1369     1.0  0.87489  0.21580  0.62952  1.0000
  C   C1370     1.0  0.87009  0.19800  0.62576  1.0000
  C   C1371     1.0  0.85500  0.19584  0.61514  1.0000
  C   C1372     1.0  0.84471  0.21195  0.60840  1.0000
  C   C1373     1.0  0.84936  0.22975  0.61236  1.0000
  H   H1365     1.0  0.78571  0.08455  0.35002  1.0000
  H   H1366     1.0  0.87821  0.18576  0.63115  1.0000
  H   H1367     1.0  0.83308  0.21071  0.60021  1.0000
  H   H1368     1.0  0.83106  0.10563  0.47417  1.0000
  H   H1369     1.0  0.84276  0.15795  0.50390  1.0000
  H   H1370     1.0  0.95039  0.31619  0.38451  1.0000
  H   H1371     1.0  0.76647  0.05898  0.41583  1.0000
  C   C1374     1.0  0.88465  0.04665  0.59167  1.0000
  C   C1375     1.0  0.87788  0.04649  0.57413  1.0000
  C   C1376     1.0  0.86431  0.06025  0.56806  1.0000
  C   C1377     1.0  0.85746  0.07441  0.57934  1.0000
  C   C1378     1.0  0.86445  0.07479  0.59677  1.0000
  C   C1379     1.0  0.87799  0.06093  0.60290  1.0000
  H   H1372     1.0  0.88300  0.03569  0.56530  1.0000
  H   H1373     1.0  0.85907  0.05991  0.55452  1.0000
  H   H1374     1.0  0.85927  0.08560  0.60559  1.0000
  H   H1375     1.0  0.88316  0.06118  0.61649  1.0000
  H   H1376     1.0  0.84389  0.15021  0.52777  1.0000
  H   H1377     1.0  0.89450  0.39805  0.55602  1.0000
  C   C1380     1.0  0.92329  0.39449  0.56158  1.0000
  C   C1381     1.0  0.85757  0.04182  0.41703  1.0000
  C   C1382     1.0  0.84606  0.05577  0.42533  1.0000
  C   C1383     1.0  0.84028  0.07232  0.41491  1.0000
  C   C1384     1.0  0.84613  0.07515  0.39609  1.0000
  C   C1385     1.0  0.85771  0.06123  0.38779  1.0000
  C   C1386     1.0  0.86337  0.04460  0.39818  1.0000
  H   H1378     1.0  0.84151  0.05375  0.43991  1.0000
  H   H1379     1.0  0.83130  0.08289  0.42144  1.0000
  H   H1380     1.0  0.86226  0.06331  0.37321  1.0000
  H   H1381     1.0  0.87224  0.03398  0.39162  1.0000
  H   H1382     1.0  0.92176  0.38171  0.57045  1.0000
  H   H1383     1.0  0.88653  0.21701  0.63769  1.0000
  H   H1384     1.0  0.88773  0.01658  0.46440  1.0000
  C   C1387     1.0  0.93809  0.35971  0.42003  1.0000
  C   C1388     1.0  0.89311  0.36323  0.42489  1.0000
  C   C1389     1.0  0.89417  0.34593  0.43519  1.0000
  C   C1390     1.0  0.89287  0.32959  0.42639  1.0000
  C   C1391     1.0  0.89088  0.33029  0.40717  1.0000
  C   C1392     1.0  0.89015  0.34755  0.39678  1.0000
  C   C1393     1.0  0.89105  0.36394  0.40566  1.0000
  H   H1385     1.0  0.89568  0.34517  0.44999  1.0000
  H   H1386     1.0  0.89336  0.31632  0.43456  1.0000
  H   H1387     1.0  0.88844  0.34831  0.38201  1.0000
  H   H1388     1.0  0.89015  0.37727  0.39759  1.0000
  C   C1394     1.0  0.89622  0.35716  0.55102  1.0000
  C   C1395     1.0  0.88646  0.35274  0.56818  1.0000
  C   C1396     1.0  0.89513  0.34156  0.58252  1.0000
  C   C1397     1.0  0.91370  0.33487  0.57981  1.0000
  C   C1398     1.0  0.92351  0.33954  0.56274  1.0000
  C   C1399     1.0  0.91481  0.35054  0.54838  1.0000
  H   H1389     1.0  0.87210  0.35790  0.57037  1.0000
  H   H1390     1.0  0.88745  0.33813  0.59562  1.0000
  H   H1391     1.0  0.93790  0.33448  0.56053  1.0000
  H   H1392     1.0  0.92250  0.35386  0.53525  1.0000
  C   C1400     1.0  0.97840  0.41618  0.46891  1.0000
  H   H1393     1.0  0.95569  0.42381  0.54380  1.0000
  C   C1401     1.0  0.97761  0.38075  0.50869  1.0000
  S   S483      1.0  0.88366  0.30325  0.63652  1.0000
  H   H1394     1.0  0.96398  0.37946  0.51541  1.0000
  C   C1402     1.0  0.92123  0.46498  0.49191  1.0000
  C   C1403     1.0  0.90213  0.46900  0.49075  1.0000
  H   H1395     1.0  0.83072  0.19041  0.64833  1.0000
  H   H1396     1.0  0.87379  0.19894  0.35752  1.0000
  H   H1397     1.0  0.89342  0.45805  0.48871  1.0000
  H   H1398     1.0  0.97870  0.45067  0.48695  1.0000
  C   C1404     1.0  0.89371  0.42854  0.53239  1.0000
  N   N115      1.0  0.85852  0.24630  0.40175  1.0000
  H   H1399     1.0  0.87786  0.20218  0.40216  1.0000
  C   C1405     1.0  0.90791  0.40376  0.55332  1.0000
  H   H1400     1.0  0.92798  0.43983  0.52983  1.0000
  H   H1401     1.0  0.82828  0.01131  0.56858  1.0000
  H   H1402     1.0  0.97297  0.42996  0.50128  1.0000
  Fe  Fe244     1.0  0.88045  0.99517  0.42131  1.0000
  C   C1406     1.0  0.99001  0.39138  0.51619  1.0000
  C   C1407     1.0  0.97685  0.28395  0.34287  1.0000
  H   H1403     1.0  0.89803  0.43552  0.51858  1.0000
  C   C1408     1.0  0.97592  0.31332  0.61125  1.0000
  H   H1404     1.0  0.94831  0.32471  0.45296  1.0000
  N   N116      1.0  0.79188  0.07559  0.37772  1.0000
  C   C1409     1.0  0.94392  0.01434  0.44702  1.0000
  C   C1410     1.0  0.92766  0.02741  0.42044  1.0000
  C   C1411     1.0  0.94372  0.01885  0.42788  1.0000
  C   C1412     1.0  0.89425  0.48736  0.49202  1.0000
  C   C1413     1.0  0.91195  0.03133  0.43231  1.0000
  C   C1414     1.0  0.79419  0.04834  0.40726  1.0000
  C   C1415     1.0  0.88498  0.30710  0.56015  1.0000
  H   H1405     1.0  0.92722  0.03050  0.40552  1.0000
  H   H1406     1.0  0.95587  0.01543  0.41876  1.0000
  C   C1416     1.0  0.94291  0.32127  0.42450  1.0000
  H   H1407     1.0  0.85009  0.02102  0.56093  1.0000
  H   H1408     1.0  0.85583  0.28588  0.60244  1.0000
  H   H1409     1.0  0.84028  0.15693  0.64964  1.0000
  H   H1410     1.0  0.94474  0.30624  0.42638  1.0000
  H   H1411     1.0  0.76451  0.08274  0.38919  1.0000
  C   C1417     1.0  0.94063  0.40161  0.55801  1.0000
  N   N117      1.0  0.89293  0.29374  0.57231  1.0000
  C   C1418     1.0  0.97681  0.30282  0.34555  1.0000
  H   H1412     1.0  0.82165  0.04111  0.39517  1.0000
  C   C1419     1.0  0.98333  0.01467  0.61873  1.0000
  H   H1413     1.0  0.95624  0.00736  0.45289  1.0000
  C   C1420     1.0  0.82984  0.09476  0.50297  1.0000
  C   C1421     1.0  0.94692  0.00689  0.61585  1.0000
  C   C1422     1.0  0.83976  0.12505  0.49205  1.0000
  H   H1414     1.0  0.97672  0.99534  0.57884  1.0000
  C   C1423     1.0  0.83243  0.09846  0.52113  1.0000
  N   N118      1.0  0.97768  0.99753  0.62508  1.0000
  C   C1424     1.0  0.77704  0.07356  0.39040  1.0000
  C   C1425     1.0  0.92796  0.01845  0.45850  1.0000
  C   C1426     1.0  0.86633  0.31348  0.56308  1.0000
  H   H1415     1.0  0.84386  0.03815  0.60215  1.0000
  H   H1416     1.0  0.89937  0.03754  0.42635  1.0000
  H   H1417     1.0  0.92052  0.29795  0.56108  1.0000
  S   S484      1.0  0.92432  0.30916  0.65080  1.0000
  H   H1418     1.0  0.86025  0.32443  0.55365  1.0000
  C   C1427     1.0  0.86409  0.99784  0.62140  1.0000
  C   C1428     1.0  0.85577  0.30591  0.57843  1.0000
  H   H1419     1.0  0.92807  0.01464  0.47336  1.0000
  C   C1429     1.0  0.77805  0.06007  0.40548  1.0000
  C   C1430     1.0  0.80751  0.06376  0.37903  1.0000
  H   H1420     1.0  0.96379  0.31118  0.34671  1.0000
  H   H1421     1.0  0.79535  0.03805  0.41906  1.0000
  H   H1422     1.0  0.88392  0.41817  0.52976  1.0000
  H   H1423     1.0  0.75625  0.11652  0.34497  1.0000
  H   H1424     1.0  0.83223  0.03444  0.57358  1.0000
  H   H1425     1.0  0.93242  0.35592  0.39204  1.0000
  H   H1426     1.0  0.94277  0.03456  0.60259  1.0000
  H   H1427     1.0  0.94365  0.35904  0.44892  1.0000
  H   H1428     1.0  0.97556  0.04164  0.60503  1.0000
  H   H1429     1.0  0.80466  0.09555  0.35847  1.0000
  H   H1430     1.0  0.93546  0.37471  0.41832  1.0000
  H   H1431     1.0  0.91903  0.28358  0.58232  1.0000
  C   C1431     1.0  0.91242  0.28705  0.56896  1.0000
  H   H1432     1.0  0.95537  0.29339  0.61210  1.0000
  C   C1432     1.0  0.78864  0.19670  0.63030  1.0000
  C   C1433     1.0  0.79613  0.16457  0.64076  1.0000
  H   H1433     1.0  0.81926  0.06531  0.36892  1.0000
  C   C1434     1.0  0.74703  0.10468  0.62035  1.0000
  H   H1434     1.0  0.77937  0.20743  0.62375  1.0000
  N   N119      1.0  0.84694  0.01241  0.58963  1.0000
  N   N120      1.0  0.91225  0.02682  0.45108  1.0000
  N   N121      1.0  0.93839  0.33000  0.40770  1.0000
  C   C1435     1.0  0.93664  0.31896  0.39202  1.0000
  H   H1435     1.0  0.88638  0.43902  0.54113  1.0000
  C   C1436     1.0  0.93230  0.47951  0.49434  1.0000
  H   H1436     1.0  0.82456  0.08178  0.50028  1.0000
  C   C1437     1.0  0.95972  0.99356  0.62380  1.0000
  H   H1437     1.0  0.83029  0.25417  0.41001  1.0000
  C   C1438     1.0  0.94496  0.33159  0.43955  1.0000
  H   H1438     1.0  0.88583  0.04108  0.45733  1.0000
  C   C1439     1.0  0.79083  0.09012  0.36228  1.0000
  C   C1440     1.0  0.84978  0.20997  0.41210  1.0000
  H   H1439     1.0  0.87686  0.26807  0.39870  1.0000
  C   C1441     1.0  0.85726  0.01643  0.61965  1.0000
  H   H1440     1.0  0.84115  0.24197  0.60711  1.0000
  C   C1442     1.0  0.96995  0.29542  0.61281  1.0000
  C   C1443     1.0  0.80895  0.05002  0.39385  1.0000
  H   H1441     1.0  0.84050  0.11831  0.53855  1.0000
  C   C1444     1.0  0.87174  0.23193  0.39954  1.0000
  C   C1445     1.0  0.86760  0.21358  0.40475  1.0000
  H   H1442     1.0  0.86257  0.26691  0.37953  1.0000
  H   H1443     1.0  0.85285  0.27591  0.40090  1.0000
  C   C1446     1.0  0.83866  0.11554  0.52436  1.0000
  H   H1444     1.0  0.98567  0.39869  0.52833  1.0000
  H   H1445     1.0  0.88529  0.23455  0.39282  1.0000
  H   H1446     1.0  0.77074  0.17473  0.62825  1.0000
  S   S485      1.0  0.86946  0.25494  0.62763  1.0000
  C   C1447     1.0  0.92659  0.42704  0.53868  1.0000
  N   N122      1.0  0.81286  0.16892  0.64600  1.0000
  H   H1447     1.0  0.78133  0.10217  0.36621  1.0000
  C   C1448     1.0  0.89525  0.02946  0.46315  1.0000
  H   H1448     1.0  0.95274  0.39436  0.56404  1.0000
  C   C1449     1.0  0.83364  0.10807  0.48830  1.0000
  C   C1450     1.0  0.86389  0.29200  0.59050  1.0000
  H   H1449     1.0  0.82942  0.08832  0.53273  1.0000
  H   H1450     1.0  0.89839  0.03259  0.47726  1.0000
  N   N123      1.0  0.84197  0.12868  0.50993  1.0000
  H   H1451     1.0  0.86397  0.14576  0.51195  1.0000
  C   C1451     1.0  0.93623  0.34898  0.40527  1.0000
  C   C1452     1.0  0.88256  0.28596  0.58714  1.0000
  C   C1453     1.0  0.84861  0.02352  0.60361  1.0000
  H   H1452     1.0  0.84133  0.31081  0.58097  1.0000
  C   C1454     1.0  0.98305  0.37146  0.49284  1.0000
  C   C1455     1.0  0.95260  0.02428  0.60905  1.0000
  H   H1453     1.0  0.89315  0.31327  0.54834  1.0000
  H   H1454     1.0  0.94708  0.47660  0.49527  1.0000
  S   S486      1.0  0.95612  0.27315  0.34034  1.0000
  H   H1455     1.0  0.79231  0.15032  0.64246  1.0000
  H   H1456     1.0  0.88871  0.27503  0.59654  1.0000
  H   H1457     1.0  0.75744  0.10061  0.60967  1.0000
  H   H1458     1.0  0.85927  0.02550  0.63032  1.0000
  H   H1459     1.0  0.96393  0.41679  0.47404  1.0000
  H   H1460     1.0  0.97455  0.39742  0.44830  1.0000
  C   C1456     1.0  0.74790  0.12157  0.62807  1.0000
  H   H1461     1.0  0.96594  0.32521  0.60908  1.0000
  H   H1462     1.0  0.93272  0.00372  0.61473  1.0000
  C   C1457     1.0  0.98430  0.40537  0.45422  1.0000
  Fe  Fe245     1.0  0.92939  0.27825  0.65311  1.0000
  S   S487      1.0  0.74765  0.11954  0.38538  1.0000
  C   C1458     1.0  0.98277  0.28016  0.61555  1.0000
  C   C1459     1.0  0.97093  0.02823  0.61046  1.0000
  C   C1460     1.0  0.98422  0.43667  0.49249  1.0000
  C   C1461     1.0  0.81745  0.18696  0.64417  1.0000
  H   H1463     1.0  0.97814  0.26620  0.61732  1.0000
  H   H1464     1.0  0.80957  0.21525  0.63412  1.0000
  N   N124      1.0  0.99078  0.42551  0.47708  1.0000
  C   C1462     1.0  0.82567  0.15435  0.65434  1.0000
  S   S488      1.0  0.92940  0.99541  0.51660  1.0000
  H   H1465     1.0  0.82329  0.14050  0.64995  1.0000
  H   H1466     1.0  0.87124  0.99227  0.63355  1.0000
  C   C1463     1.0  0.74294  0.11107  0.34890  1.0000
  Fe  Fe246     1.0  0.97941  0.38271  0.89307  1.0000
  S   S489      1.0  0.96063  0.36542  0.87893  1.0000
  H   H1467     1.0  0.84415  0.31729  0.79386  1.0000
  S   S490      1.0  0.97574  0.39101  0.92246  1.0000
  H   H1468     1.0  0.82981  0.32086  0.81454  1.0000
  H   H1469     1.0  0.77559  0.31439  0.86638  1.0000
  S   S491      1.0  0.88352  0.32553  0.68501  1.0000
  Fe  Fe247     1.0  0.86489  0.38189  0.82601  1.0000
  S   S492      1.0  0.87268  0.39000  0.79575  1.0000
  S   S493      1.0  0.87998  0.38915  0.85075  1.0000
  Fe  Fe248     1.0  0.82412  0.37495  0.81853  1.0000
  S   S494      1.0  0.82957  0.38284  0.78778  1.0000
  S   S495      1.0  0.79401  0.37311  0.83138  1.0000
  Fe  Fe249     1.0  0.85689  0.36563  0.78989  1.0000
  S   S496      1.0  0.86736  0.34203  0.77119  1.0000
  Fe  Fe250     1.0  0.84491  0.40649  0.79581  1.0000
  S   S497      1.0  0.83784  0.43667  0.78483  1.0000
  S   S498      1.0  0.85063  0.35648  0.82060  1.0000
  S   S499      1.0  0.83793  0.39953  0.82589  1.0000
  H   H1470     1.0  0.93827  0.37122  0.91506  1.0000
  C   C1464     1.0  0.83560  0.47375  0.79108  1.0000
  C   C1465     1.0  0.84481  0.45612  0.79500  1.0000
  C   C1466     1.0  0.85950  0.45446  0.80662  1.0000
  C   C1467     1.0  0.86512  0.47031  0.81390  1.0000
  H   H1471     1.0  0.82415  0.47516  0.78217  1.0000
  H   H1472     1.0  0.86675  0.44100  0.80973  1.0000
  H   H1473     1.0  0.87673  0.46888  0.82261  1.0000
  C   C1468     1.0  0.74694  0.35327  0.85857  1.0000
  C   C1469     1.0  0.75985  0.36463  0.84841  1.0000
  C   C1470     1.0  0.77849  0.35805  0.84467  1.0000
  C   C1471     1.0  0.78404  0.33985  0.85137  1.0000
  Fe  Fe251     1.0  0.89582  0.30430  0.66438  1.0000
  H   H1474     1.0  0.75529  0.37865  0.84335  1.0000
  H   H1475     1.0  0.79830  0.33453  0.84888  1.0000
  C   C1472     1.0  0.80289  0.34083  0.79834  1.0000
  H   H1476     1.0  0.82418  0.30387  0.79943  1.0000
  C   C1473     1.0  0.87879  0.32962  0.70912  1.0000
  C   C1474     1.0  0.87218  0.34758  0.71378  1.0000
  C   C1475     1.0  0.86864  0.35170  0.73255  1.0000
  C   C1476     1.0  0.87169  0.33790  0.74708  1.0000
  C   C1477     1.0  0.87824  0.31992  0.74242  1.0000
  C   C1478     1.0  0.88173  0.31579  0.72366  1.0000
  H   H1477     1.0  0.86982  0.35845  0.70276  1.0000
  H   H1478     1.0  0.86362  0.36559  0.73574  1.0000
  H   H1479     1.0  0.88060  0.30905  0.75344  1.0000
  H   H1480     1.0  0.88653  0.30183  0.72052  1.0000
  H   H1481     1.0  0.87962  0.48158  0.77192  1.0000
  H   H1482     1.0  0.95659  0.46410  0.88404  1.0000
  C   C1479     1.0  0.95031  0.35390  0.95137  1.0000
  H   H1483     1.0  0.93755  0.36053  0.95731  1.0000
  C   C1480     1.0  0.93890  0.37317  0.86994  1.0000
  C   C1481     1.0  0.92854  0.38903  0.87568  1.0000
  C   C1482     1.0  0.91067  0.39383  0.86943  1.0000
  C   C1483     1.0  0.90311  0.38314  0.85702  1.0000
  C   C1484     1.0  0.91365  0.36753  0.85094  1.0000
  C   C1485     1.0  0.93134  0.36247  0.85755  1.0000
  H   H1484     1.0  0.93411  0.39738  0.88523  1.0000
  H   H1485     1.0  0.90262  0.40589  0.87428  1.0000
  H   H1486     1.0  0.90798  0.35907  0.84153  1.0000
  H   H1487     1.0  0.93919  0.35012  0.85308  1.0000
  C   C1486     1.0  0.93685  0.35669  0.92109  1.0000
  H   H1488     1.0  0.97029  0.34134  0.91052  1.0000
  H   H1489     1.0  0.81384  0.35210  0.74575  1.0000
  N   N125      1.0  0.96942  0.48840  0.88911  1.0000
  H   H1490     1.0  0.83325  0.32822  0.76350  1.0000
  C   C1487     1.0  0.77109  0.32845  0.86141  1.0000
  N   N126      1.0  0.82119  0.43792  0.84788  1.0000
  C   C1488     1.0  0.83931  0.43838  0.85179  1.0000
  C   C1489     1.0  0.81094  0.42380  0.85570  1.0000
  C   C1490     1.0  0.84764  0.42445  0.86378  1.0000
  H   H1491     1.0  0.94749  0.48387  0.90990  1.0000
  N   N127      1.0  0.95214  0.35075  0.93294  1.0000
  C   C1491     1.0  0.81311  0.45167  0.83406  1.0000
  H   H1492     1.0  0.84761  0.44926  0.84526  1.0000
  S   S500      1.0  0.95776  0.26415  0.65984  1.0000
  H   H1493     1.0  0.86224  0.42438  0.86620  1.0000
  H   H1494     1.0  0.79683  0.42296  0.85199  1.0000
  C   C1492     1.0  0.96858  0.34321  0.92527  1.0000
  H   H1495     1.0  0.82085  0.46442  0.83207  1.0000
  H   H1496     1.0  0.81356  0.44560  0.82045  1.0000
  H   H1497     1.0  0.79849  0.45597  0.83841  1.0000
  H   H1498     1.0  0.85333  0.48466  0.75187  1.0000
  H   H1499     1.0  0.92315  0.35587  0.92897  1.0000
  S   S501      1.0  0.90145  0.27303  0.66832  1.0000
  H   H1500     1.0  0.91754  0.33354  0.71727  1.0000
  H   H1501     1.0  0.79979  0.33784  0.81314  1.0000
  H   H1502     1.0  0.98368  0.38652  0.96504  1.0000
  H   H1503     1.0  0.78691  0.36906  0.76197  1.0000
  H   H1504     1.0  0.77997  0.36167  0.79597  1.0000
  C   C1493     1.0  0.98380  0.46495  0.87018  1.0000
  C   C1494     1.0  0.83734  0.40997  0.87176  1.0000
  H   H1505     1.0  0.98195  0.29608  0.70707  1.0000
  Fe  Fe252     1.0  0.98696  0.41774  0.91023  1.0000
  C   C1495     1.0  0.96495  0.34885  0.96278  1.0000
  C   C1496     1.0  0.82952  0.31773  0.79982  1.0000
  H   H1506     1.0  0.96523  0.30332  0.65953  1.0000
  N   N128      1.0  0.93820  0.31594  0.70388  1.0000
  C   C1497     1.0  0.95683  0.31440  0.70632  1.0000
  C   C1498     1.0  0.92935  0.30066  0.70086  1.0000
  C   C1499     1.0  0.96708  0.29722  0.70566  1.0000
  C   C1500     1.0  0.93917  0.28328  0.70016  1.0000
  C   C1501     1.0  0.95814  0.28158  0.70260  1.0000
  C   C1502     1.0  0.92744  0.33391  0.70475  1.0000
  H   H1507     1.0  0.96393  0.32648  0.70863  1.0000
  H   H1508     1.0  0.91463  0.30191  0.69876  1.0000
  C   C1503     1.0  0.96866  0.47209  0.88119  1.0000
  H   H1509     1.0  0.93698  0.34777  0.90935  1.0000
  H   H1510     1.0  0.93226  0.27124  0.69729  1.0000
  C   C1504     1.0  0.81051  0.34893  0.76050  1.0000
  C   C1505     1.0  0.98161  0.34084  0.95515  1.0000
  H   H1511     1.0  0.91937  0.33707  0.69222  1.0000
  N   N129      1.0  0.81787  0.33189  0.78941  1.0000
  S   S502      1.0  0.97442  0.44462  0.92033  1.0000
  C   C1506     1.0  0.79150  0.35426  0.78862  1.0000
  H   H1512     1.0  0.96599  0.26825  0.70152  1.0000
  C   C1507     1.0  0.81881  0.40967  0.86784  1.0000
  H   H1513     1.0  0.84397  0.39865  0.88035  1.0000
  C   C1508     1.0  0.82153  0.33550  0.77066  1.0000
  C   C1509     1.0  0.75242  0.33500  0.86509  1.0000
  H   H1514     1.0  0.93638  0.34552  0.70535  1.0000
  H   H1515     1.0  0.97381  0.47795  0.93880  1.0000
  C   C1510     1.0  0.99118  0.46058  0.92093  1.0000
  H   H1516     1.0  0.75049  0.28235  0.92976  1.0000
  C   C1511     1.0  0.79543  0.35840  0.76959  1.0000
  C   C1512     1.0  0.98355  0.33817  0.93625  1.0000
  H   H1517     1.0  0.96361  0.35153  0.97736  1.0000
  H   H1518     1.0  0.81087  0.39812  0.87340  1.0000
  C   C1513     1.0  0.97822  0.29494  0.66038  1.0000
  H   H1519     1.0  0.74597  0.35394  0.93158  1.0000
  C   C1514     1.0  0.97846  0.27561  0.66060  1.0000
  C   C1515     1.0  0.84107  0.48959  0.79857  1.0000
  H   H1520     1.0  0.74510  0.32640  0.91411  1.0000
  S   S503      1.0  0.98802  0.41043  0.88078  1.0000
  C   C1516     1.0  0.98703  0.47618  0.93092  1.0000
  H   H1521     1.0  0.82390  0.15396  0.66972  1.0000
  H   H1522     1.0  0.98341  0.45164  0.86454  1.0000
  C   C1517     1.0  0.99168  0.38105  0.97660  1.0000
  C   C1518     1.0  0.85604  0.48796  0.80986  1.0000
  C   C1519     1.0  0.74339  0.34060  0.93898  1.0000
  H   H1523     1.0  0.97185  0.61106  0.04223  1.0000
  H   H1524     1.0  0.88347  0.61141  0.21099  1.0000
  C   C1520     1.0  0.96811  0.61227  0.01284  1.0000
  C   C1521     1.0  0.76416  0.59131  0.12994  1.0000
  H   H1525     1.0  0.90801  0.54751  0.23076  1.0000
  S   S504      1.0  0.95104  0.55387  0.10680  1.0000
  C   C1522     1.0  0.74922  0.61876  0.14268  1.0000
  H   H1526     1.0  0.90019  0.61294  0.22789  1.0000
  Fe  Fe253     1.0  0.84680  0.55130  0.18938  1.0000
  S   S505      1.0  0.84219  0.56949  0.16269  1.0000
  S   S506      1.0  0.85643  0.52015  0.19161  1.0000
  Fe  Fe254     1.0  0.84953  0.58565  0.21243  1.0000
  S   S507      1.0  0.84462  0.60547  0.18725  1.0000
  S   S508      1.0  0.85859  0.59189  0.24120  1.0000
  Fe  Fe255     1.0  0.82240  0.58728  0.18064  1.0000
  S   S509      1.0  0.79480  0.60330  0.17246  1.0000
  Fe  Fe256     1.0  0.86442  0.58618  0.17133  1.0000
  S   S510      1.0  0.88834  0.59928  0.15424  1.0000
  S   S511      1.0  0.82605  0.56830  0.20720  1.0000
  S   S512      1.0  0.87025  0.56728  0.19654  1.0000
  S   S513      1.0  0.88558  0.65647  0.28651  1.0000
  C   C1523     1.0  0.77737  0.60331  0.15609  1.0000
  C   C1524     1.0  0.76291  0.61759  0.15577  1.0000
  H   H1527     1.0  0.96949  0.56891  0.99910  1.0000
  C   C1525     1.0  0.77785  0.59014  0.14304  1.0000
  H   H1528     1.0  0.76231  0.62790  0.16574  1.0000
  H   H1529     1.0  0.78878  0.57904  0.14303  1.0000
  C   C1526     1.0  0.86569  0.61023  0.25360  1.0000
  C   C1527     1.0  0.86580  0.62872  0.24600  1.0000
  C   C1528     1.0  0.87194  0.64252  0.25624  1.0000
  C   C1529     1.0  0.87804  0.63820  0.27430  1.0000
  C   C1530     1.0  0.87788  0.61973  0.28192  1.0000
  C   C1531     1.0  0.87178  0.60593  0.27165  1.0000
  H   H1530     1.0  0.86105  0.63245  0.23226  1.0000
  H   H1531     1.0  0.87193  0.65670  0.25011  1.0000
  H   H1532     1.0  0.88243  0.61605  0.29575  1.0000
  H   H1533     1.0  0.87175  0.59175  0.27781  1.0000
  H   H1534     1.0  0.90552  0.62078  0.20399  1.0000
  C   C1532     1.0  0.91817  0.55507  0.20250  1.0000
  H   H1535     1.0  0.81918  0.51138  0.18301  1.0000
  C   C1533     1.0  0.87224  0.71966  0.30350  1.0000
  C   C1534     1.0  0.93448  0.56636  0.12112  1.0000
  C   C1535     1.0  0.91818  0.55803  0.12795  1.0000
  C   C1536     1.0  0.90419  0.56774  0.13862  1.0000
  C   C1537     1.0  0.90619  0.58607  0.14215  1.0000
  C   C1538     1.0  0.92253  0.59436  0.13549  1.0000
  C   C1539     1.0  0.93672  0.58449  0.12518  1.0000
  H   H1536     1.0  0.91628  0.54404  0.12483  1.0000
  H   H1537     1.0  0.89170  0.56116  0.14372  1.0000
  H   H1538     1.0  0.92418  0.60855  0.13814  1.0000
  H   H1539     1.0  0.94916  0.59108  0.11994  1.0000
  C   C1540     1.0  0.84192  0.72557  0.31886  1.0000
  H   H1540     1.0  0.84936  0.67706  0.28434  1.0000
  C   C1541     1.0  0.84417  0.67950  0.29885  1.0000
  C   C1542     1.0  0.84662  0.49915  0.18775  1.0000
  S   S514      1.0  0.91505  0.68428  0.31624  1.0000
  Fe  Fe257     1.0  0.98124  0.55973  0.09920  1.0000
  H   H1541     1.0  0.92236  0.54089  0.19947  1.0000
  C   C1543     1.0  0.97744  0.49270  0.09778  1.0000
  H   H1542     1.0  0.91518  0.59891  0.18162  1.0000
  H   H1543     1.0  0.86382  0.74411  0.31770  1.0000
  H   H1544     1.0  0.97379  0.51918  0.10953  1.0000
  N   N130      1.0  0.84933  0.69749  0.30369  1.0000
  H   H1545     1.0  0.92598  0.56691  0.17483  1.0000
  C   C1544     1.0  0.94953  0.50376  0.11495  1.0000
  Fe  Fe258     1.0  0.89641  0.66082  0.31505  1.0000
  C   C1545     1.0  0.86682  0.70278  0.29864  1.0000
  H   H1546     1.0  0.76476  0.58100  0.11999  1.0000
  C   C1546     1.0  0.82807  0.49864  0.18390  1.0000
  C   C1547     1.0  0.97851  0.61233  0.02828  1.0000
  N   N131      1.0  0.84378  0.60693  0.12270  1.0000
  C   C1548     1.0  0.82784  0.60452  0.11453  1.0000
  C   C1549     1.0  0.84346  0.61863  0.13653  1.0000
  C   C1550     1.0  0.81118  0.61453  0.11966  1.0000
  C   C1551     1.0  0.82700  0.62865  0.14217  1.0000
  C   C1552     1.0  0.81084  0.62672  0.13351  1.0000
  C   C1553     1.0  0.86112  0.59625  0.11735  1.0000
  H   H1547     1.0  0.82786  0.59473  0.10408  1.0000
  H   H1548     1.0  0.85593  0.62013  0.14344  1.0000
  H   H1549     1.0  0.79847  0.61248  0.11337  1.0000
  H   H1550     1.0  0.82662  0.63745  0.15355  1.0000
  H   H1551     1.0  0.79788  0.63405  0.13811  1.0000
  H   H1552     1.0  0.86100  0.59139  0.10326  1.0000
  H   H1553     1.0  0.87315  0.60485  0.11719  1.0000
  H   H1554     1.0  0.86341  0.58398  0.12752  1.0000
  H   H1555     1.0  0.82891  0.67864  0.29981  1.0000
  H   H1556     1.0  0.89733  0.57976  0.23697  1.0000
  N   N132      1.0  0.90619  0.59126  0.20985  1.0000
  C   C1554     1.0  0.89852  0.61006  0.21331  1.0000
  C   C1555     1.0  0.96756  0.50643  0.10767  1.0000
  C   C1556     1.0  0.91018  0.55877  0.22006  1.0000
  H   H1557     1.0  0.87679  0.69386  0.29099  1.0000
  H   H1558     1.0  0.94166  0.51457  0.12232  1.0000
  C   C1557     1.0  0.91405  0.58775  0.19261  1.0000
  H   H1559     1.0  0.95328  0.61094  0.01468  1.0000
  C   C1558     1.0  0.92019  0.56964  0.18868  1.0000
  C   C1559     1.0  0.90417  0.57706  0.22350  1.0000
  H   H1560     1.0  0.88630  0.72355  0.30002  1.0000
  C   C1560     1.0  0.74972  0.60562  0.12960  1.0000
  H   H1561     1.0  0.85047  0.66813  0.30828  1.0000
  H   H1562     1.0  0.98386  0.56728  0.02937  1.0000
  H   H1563     1.0  0.99135  0.49503  0.09200  1.0000
  C   C1561     1.0  0.83702  0.70850  0.31394  1.0000
  C   C1562     1.0  0.85962  0.73118  0.31350  1.0000
  C   C1563     1.0  0.97700  0.61332  0.99502  1.0000
  H   H1564     1.0  0.82336  0.70408  0.31848  1.0000
  C   C1564     1.0  0.98440  0.56870  0.99932  1.0000
  C   C1565     1.0  0.99252  0.56778  0.01652  1.0000
  Fe  Fe259     1.0  0.91058  0.55056  0.49744  1.0000
  S   S515      1.0  0.93865  0.55548  0.48327  1.0000
  S   S516      1.0  0.89474  0.52483  0.49596  1.0000
  Fe  Fe260     1.0  0.90698  0.58818  0.51451  1.0000
  S   S517      1.0  0.93450  0.59576  0.50146  1.0000
  S   S518      1.0  0.89077  0.60986  0.53137  1.0000
  Fe  Fe261     1.0  0.92648  0.58460  0.47551  1.0000
  S   S519      1.0  0.93565  0.60129  0.44864  1.0000
  Fe  Fe262     1.0  0.94418  0.56641  0.51016  1.0000
  S   S520      1.0  0.97006  0.55914  0.52530  1.0000
  S   S521      1.0  0.89788  0.57914  0.48783  1.0000
  S   S522      1.0  0.91710  0.55937  0.52508  1.0000
  Fe  Fe263     1.0  0.87893  0.95857  0.40302  1.0000
  H   H1565     1.0  0.96870  0.69584  0.33594  1.0000
  S   S523      1.0  0.85730  0.94384  0.38994  1.0000
  Fe  Fe264     1.0  0.89510  0.95775  0.44023  1.0000
  H   H1566     1.0  0.96565  0.58017  0.56552  1.0000
  C   C1566     1.0  0.98307  0.66863  0.33760  1.0000
  C   C1567     1.0  0.82927  0.87606  0.35093  1.0000
  S   S524      1.0  0.86759  0.96847  0.43031  1.0000
  S   S525      1.0  0.90600  0.94612  0.41359  1.0000
  S   S526      1.0  0.91216  0.97539  0.59917  1.0000
  S   S527      1.0  0.92612  0.95918  0.55923  1.0000
  H   H1567     1.0  0.96524  0.60375  0.40660  1.0000
  Fe  Fe265     1.0  0.89884  0.96527  0.57527  1.0000
  S   S528      1.0  0.87278  0.94933  0.57704  1.0000
  Fe  Fe266     1.0  0.93927  0.97186  0.58180  1.0000
  H   H1568     1.0  0.86831  0.75002  0.42314  1.0000
  N   N133      1.0  0.94900  0.71770  0.63860  1.0000
  C   C1568     1.0  0.90608  0.95431  0.48244  1.0000
  Fe  Fe267     1.0  0.90612  0.64542  0.63192  1.0000
  S   S529      1.0  0.90360  0.62016  0.61581  1.0000
  S   S530      1.0  0.91878  0.67192  0.62093  1.0000
  Fe  Fe268     1.0  0.83966  0.84681  0.58896  1.0000
  S   S531      1.0  0.81269  0.86023  0.57957  1.0000
  S   S532      1.0  0.86531  0.86210  0.59241  1.0000
  Fe  Fe269     1.0  0.82662  0.80727  0.58970  1.0000
  S   S533      1.0  0.79841  0.81841  0.57989  1.0000
  S   S534      1.0  0.83319  0.77545  0.59322  1.0000
  Fe  Fe270     1.0  0.81443  0.83791  0.55951  1.0000
  S   S535      1.0  0.81251  0.84975  0.52912  1.0000
  Fe  Fe271     1.0  0.79878  0.83993  0.60059  1.0000
  S   S536      1.0  0.77695  0.85078  0.62290  1.0000
  S   S537      1.0  0.84223  0.82546  0.56805  1.0000
  S   S538      1.0  0.82610  0.82769  0.61139  1.0000
  Fe  Fe272     1.0  0.82805  0.84073  0.39462  1.0000
  S   S539      1.0  0.80106  0.85072  0.40891  1.0000
  S   S540      1.0  0.85406  0.85648  0.39139  1.0000
  Fe  Fe273     1.0  0.81501  0.80264  0.38867  1.0000
  S   S541      1.0  0.78666  0.81021  0.40264  1.0000
  S   S542      1.0  0.82043  0.77287  0.37954  1.0000
  Fe  Fe274     1.0  0.78767  0.83815  0.38612  1.0000
  S   S543      1.0  0.76521  0.85771  0.37164  1.0000
  Fe  Fe275     1.0  0.80202  0.82225  0.42420  1.0000
  S   S544      1.0  0.79558  0.81386  0.45516  1.0000
  S   S545      1.0  0.81510  0.82989  0.37083  1.0000
  S   S546      1.0  0.82999  0.81292  0.41129  1.0000
  Fe  Fe276     1.0  0.89741  0.69176  0.34213  1.0000
  S   S547      1.0  0.87780  0.66967  0.33976  1.0000
  H   H1569     1.0  0.98010  0.94611  0.37122  1.0000
  H   H1570     1.0  0.81009  0.74612  0.61800  1.0000
  H   H1571     1.0  0.76732  0.81154  0.62652  1.0000
  C   C1569     1.0  0.80774  0.79271  0.64342  1.0000
  H   H1572     1.0  0.79759  0.75778  0.59950  1.0000
  Fe  Fe277     1.0  0.89762  0.65116  0.35732  1.0000
  S   S548      1.0  0.88771  0.63017  0.38051  1.0000
  C   C1570     1.0  0.79713  0.75477  0.61487  1.0000
  S   S549      1.0  0.91597  0.67369  0.36132  1.0000
  S   S550      1.0  0.96350  0.65605  0.33486  1.0000
  C   C1571     1.0  0.95509  0.71426  0.61937  1.0000
  C   C1572     1.0  0.98607  0.93717  0.39945  1.0000
  H   H1573     1.0  0.89670  0.92759  0.53804  1.0000
  C   C1573     1.0  0.84018  0.75921  0.37052  1.0000
  C   C1574     1.0  0.85702  0.76674  0.36465  1.0000
  C   C1575     1.0  0.87221  0.75530  0.35764  1.0000
  C   C1576     1.0  0.87094  0.73614  0.35655  1.0000
  C   C1577     1.0  0.85416  0.72856  0.36264  1.0000
  C   C1578     1.0  0.83889  0.74005  0.36943  1.0000
  H   H1574     1.0  0.85831  0.78142  0.36532  1.0000
  S   S551      1.0  0.92699  0.63799  0.65348  1.0000
  H   H1575     1.0  0.85288  0.71390  0.36186  1.0000
  H   H1576     1.0  0.82595  0.73401  0.37387  1.0000
  C   C1579     1.0  0.80865  0.83905  0.50868  1.0000
  C   C1580     1.0  0.81068  0.84937  0.49126  1.0000
  C   C1581     1.0  0.80714  0.84176  0.47473  1.0000
  C   C1582     1.0  0.80133  0.82378  0.47541  1.0000
  C   C1583     1.0  0.79941  0.81342  0.49280  1.0000
  C   C1584     1.0  0.80317  0.82094  0.50931  1.0000
  H   H1577     1.0  0.81477  0.86343  0.49061  1.0000
  H   H1578     1.0  0.80832  0.84997  0.46155  1.0000
  H   H1579     1.0  0.79480  0.79955  0.49355  1.0000
  H   H1580     1.0  0.80145  0.81285  0.52257  1.0000
  C   C1585     1.0  0.87284  0.73280  0.62581  1.0000
  C   C1586     1.0  0.86184  0.72728  0.61255  1.0000
  C   C1587     1.0  0.85004  0.74055  0.60262  1.0000
  C   C1588     1.0  0.84914  0.75957  0.60560  1.0000
  C   C1589     1.0  0.86019  0.76510  0.61881  1.0000
  C   C1590     1.0  0.87187  0.75181  0.62885  1.0000
  H   H1581     1.0  0.86233  0.71278  0.61000  1.0000
  H   H1582     1.0  0.84159  0.73602  0.59247  1.0000
  H   H1583     1.0  0.85968  0.77961  0.62137  1.0000
  H   H1584     1.0  0.88506  0.76138  0.35290  1.0000
  S   S552      1.0  0.89029  0.72276  0.34637  1.0000
  H   H1585     1.0  0.86741  0.97208  0.60835  1.0000
  Fe  Fe278     1.0  0.92223  0.98866  0.54698  1.0000
  Fe  Fe279     1.0  0.93859  0.66520  0.64358  1.0000
  H   H1586     1.0  0.77638  0.91394  0.34820  1.0000
  C   C1591     1.0  0.80910  0.77603  0.63493  1.0000
  H   H1587     1.0  0.80572  0.92569  0.35153  1.0000
  C   C1592     1.0  0.86681  0.88652  0.58932  1.0000
  C   C1593     1.0  0.88402  0.89376  0.59068  1.0000
  C   C1594     1.0  0.88609  0.91298  0.58720  1.0000
  C   C1595     1.0  0.87089  0.92515  0.58242  1.0000
  C   C1596     1.0  0.85360  0.91794  0.58138  1.0000
  C   C1597     1.0  0.85156  0.89873  0.58475  1.0000
  H   H1588     1.0  0.89589  0.88443  0.59424  1.0000
  H   H1589     1.0  0.89946  0.91832  0.58809  1.0000
  H   H1590     1.0  0.84174  0.92725  0.57777  1.0000
  H   H1591     1.0  0.83824  0.89337  0.58372  1.0000
  N   N134      1.0  0.80166  0.89682  0.35172  1.0000
  H   H1592     1.0  0.84461  0.60334  0.49146  1.0000
  C   C1598     1.0  0.85654  0.91944  0.39249  1.0000
  C   C1599     1.0  0.83928  0.91172  0.39389  1.0000
  C   C1600     1.0  0.83824  0.89237  0.39426  1.0000
  C   C1601     1.0  0.85451  0.88066  0.39272  1.0000
  C   C1602     1.0  0.87175  0.88836  0.39166  1.0000
  C   C1603     1.0  0.87278  0.90765  0.39177  1.0000
  H   H1593     1.0  0.82666  0.92079  0.39440  1.0000
  H   H1594     1.0  0.82489  0.88659  0.39510  1.0000
  H   H1595     1.0  0.88439  0.87939  0.39045  1.0000
  H   H1596     1.0  0.88614  0.91346  0.39050  1.0000
  H   H1597     1.0  0.92020  0.60411  0.35872  1.0000
  H   H1598     1.0  0.84676  0.57431  0.47525  1.0000
  C   C1604     1.0  0.89328  0.89830  0.54392  1.0000
  H   H1599     1.0  0.92752  0.96181  0.46152  1.0000
  C   C1605     1.0  0.84972  0.87422  0.54272  1.0000
  H   H1600     1.0  0.88530  0.87037  0.55007  1.0000
  N   N135      1.0  0.79571  0.77224  0.62378  1.0000
  C   C1606     1.0  0.88070  0.88451  0.54525  1.0000
  C   C1607     1.0  0.85666  0.90682  0.53577  1.0000
  C   C1608     1.0  0.92033  0.61113  0.43183  1.0000
  C   C1609     1.0  0.92558  0.62645  0.41981  1.0000
  C   C1610     1.0  0.91538  0.63283  0.40438  1.0000
  C   C1611     1.0  0.89976  0.62398  0.40086  1.0000
  C   C1612     1.0  0.89405  0.60916  0.41332  1.0000
  C   C1613     1.0  0.90427  0.60275  0.42875  1.0000
  H   H1601     1.0  0.93793  0.63308  0.42213  1.0000
  H   H1602     1.0  0.91983  0.64435  0.39501  1.0000
  H   H1603     1.0  0.88194  0.60227  0.41073  1.0000
  H   H1604     1.0  0.90013  0.59088  0.43782  1.0000
  C   C1614     1.0  0.89547  0.61297  0.55451  1.0000
  C   C1615     1.0  0.89044  0.63019  0.56171  1.0000
  C   C1616     1.0  0.89332  0.63287  0.58030  1.0000
  C   C1617     1.0  0.90078  0.61815  0.59199  1.0000
  C   C1618     1.0  0.90584  0.60096  0.58475  1.0000
  C   C1619     1.0  0.90344  0.59843  0.56606  1.0000
  H   H1605     1.0  0.88417  0.64149  0.55291  1.0000
  H   H1606     1.0  0.88922  0.64612  0.58574  1.0000
  H   H1607     1.0  0.91157  0.58949  0.59371  1.0000
  H   H1608     1.0  0.90738  0.58511  0.56075  1.0000
  C   C1620     1.0  0.95588  0.60351  0.39566  1.0000
  H   H1609     1.0  0.97288  0.59031  0.49736  1.0000
  S   S553      1.0  0.91470  0.64097  0.33253  1.0000
  H   H1610     1.0  0.95531  0.97987  0.62852  1.0000
  H   H1611     1.0  0.93315  0.50888  0.49730  1.0000
  C   C1621     1.0  0.98304  0.97304  0.43215  1.0000
  H   H1612     1.0  0.85946  0.56054  0.55398  1.0000
  S   S554      1.0  0.89005  0.98632  0.39299  1.0000
  C   C1622     1.0  0.98507  0.58893  0.50514  1.0000
  C   C1623     1.0  0.94361  0.61678  0.36755  1.0000
  N   N136      1.0  0.85550  0.90119  0.43967  1.0000
  C   C1624     1.0  0.83680  0.89937  0.44169  1.0000
  C   C1625     1.0  0.86770  0.88591  0.43794  1.0000
  C   C1626     1.0  0.82985  0.88196  0.44143  1.0000
  C   C1627     1.0  0.86122  0.86830  0.43753  1.0000
  C   C1628     1.0  0.84217  0.86637  0.43921  1.0000
  C   C1629     1.0  0.86244  0.91958  0.43996  1.0000
  H   H1613     1.0  0.82716  0.91149  0.44318  1.0000
  H   H1614     1.0  0.88251  0.88735  0.43635  1.0000
  H   H1615     1.0  0.81501  0.88059  0.44263  1.0000
  H   H1616     1.0  0.87085  0.85632  0.43535  1.0000
  H   H1617     1.0  0.83698  0.85284  0.43846  1.0000
  H   H1618     1.0  0.87652  0.92025  0.43282  1.0000
  H   H1619     1.0  0.85334  0.93042  0.43248  1.0000
  H   H1620     1.0  0.86313  0.92302  0.45453  1.0000
  N   N137      1.0  0.83940  0.75834  0.42583  1.0000
  C   C1630     1.0  0.82282  0.75264  0.42160  1.0000
  C   C1631     1.0  0.84007  0.76939  0.44006  1.0000
  C   C1632     1.0  0.80633  0.75807  0.43166  1.0000
  C   C1633     1.0  0.82390  0.77480  0.45062  1.0000
  C   C1634     1.0  0.80693  0.76917  0.44630  1.0000
  C   C1635     1.0  0.85641  0.75367  0.41438  1.0000
  H   H1621     1.0  0.82215  0.74436  0.40997  1.0000
  H   H1622     1.0  0.85311  0.77436  0.44310  1.0000
  H   H1623     1.0  0.79315  0.75408  0.42781  1.0000
  H   H1624     1.0  0.82436  0.78383  0.46172  1.0000
  H   H1625     1.0  0.79421  0.77384  0.45400  1.0000
  H   H1626     1.0  0.85954  0.76573  0.40434  1.0000
  H   H1627     1.0  0.85499  0.74159  0.40632  1.0000
  H   H1628     1.0  0.92312  0.73137  0.63106  1.0000
  H   H1629     1.0  0.93424  0.64180  0.59751  1.0000
  H   H1630     1.0  0.75614  0.86593  0.65413  1.0000
  Fe  Fe280     1.0  0.89918  0.68585  0.64208  1.0000
  C   C1636     1.0  0.94305  0.58995  0.39739  1.0000
  C   C1637     1.0  0.93017  0.59011  0.38400  1.0000
  C   C1638     1.0  0.98196  0.68801  0.33735  1.0000
  H   H1631     1.0  0.88106  0.57008  0.54522  1.0000
  C   C1639     1.0  0.78086  0.78477  0.62073  1.0000
  H   H1632     1.0  0.94246  0.58003  0.40956  1.0000
  H   H1633     1.0  0.91956  0.58027  0.38562  1.0000
  N   N138      1.0  0.86016  0.57278  0.52608  1.0000
  C   C1640     1.0  0.86171  0.55683  0.51716  1.0000
  C   C1641     1.0  0.85410  0.58933  0.51703  1.0000
  C   C1642     1.0  0.85664  0.55710  0.49886  1.0000
  C   C1643     1.0  0.84905  0.59013  0.49868  1.0000
  C   C1644     1.0  0.85028  0.57387  0.48960  1.0000
  C   C1645     1.0  0.86573  0.57209  0.54519  1.0000
  H   H1634     1.0  0.86723  0.54381  0.52401  1.0000
  H   H1635     1.0  0.85350  0.60212  0.52383  1.0000
  H   H1636     1.0  0.85823  0.54445  0.49176  1.0000
  C   C1646     1.0  0.92444  0.49787  0.49548  1.0000
  C   C1647     1.0  0.78137  0.89962  0.35331  1.0000
  H   H1637     1.0  0.95920  0.63878  0.59805  1.0000
  H   H1638     1.0  0.86136  0.58523  0.55168  1.0000
  H   H1639     1.0  0.98189  0.98973  0.37993  1.0000
  N   N139      1.0  0.94762  0.62114  0.58081  1.0000
  C   C1648     1.0  0.94015  0.62907  0.56489  1.0000
  C   C1649     1.0  0.95681  0.60386  0.58114  1.0000
  C   C1650     1.0  0.94151  0.61952  0.54885  1.0000
  C   C1651     1.0  0.95851  0.59395  0.56531  1.0000
  C   C1652     1.0  0.95077  0.60187  0.54912  1.0000
  C   C1653     1.0  0.94644  0.63145  0.59741  1.0000
  H   H1640     1.0  0.93264  0.64266  0.56467  1.0000
  H   H1641     1.0  0.96273  0.59759  0.59376  1.0000
  H   H1642     1.0  0.93504  0.62556  0.53642  1.0000
  S   S555      1.0  0.88492  0.65958  0.65180  1.0000
  H   H1643     1.0  0.95184  0.59423  0.53686  1.0000
  H   H1644     1.0  0.94442  0.62199  0.61028  1.0000
  H   H1645     1.0  0.97015  0.70984  0.61787  1.0000
  C   C1654     1.0  0.81222  0.91171  0.35104  1.0000
  H   H1646     1.0  0.94094  0.98319  0.48070  1.0000
  C   C1655     1.0  0.77901  0.80152  0.62909  1.0000
  H   H1647     1.0  0.75652  0.90972  0.63979  1.0000
  H   H1648     1.0  0.88024  0.75633  0.63906  1.0000
  H   H1649     1.0  0.86396  0.93527  0.53068  1.0000
  S   S556      1.0  0.88785  0.71674  0.63917  1.0000
  C   C1656     1.0  0.86883  0.92097  0.53445  1.0000
  C   C1657     1.0  0.88725  0.91665  0.53857  1.0000
  C   C1658     1.0  0.93051  0.60352  0.36891  1.0000
  H   H1650     1.0  0.83583  0.86203  0.35150  1.0000
  H   H1651     1.0  0.90744  0.89488  0.54762  1.0000
  S   S557      1.0  0.89512  0.94126  0.46795  1.0000
  H   H1652     1.0  0.94741  0.70292  0.61503  1.0000
  C   C1659     1.0  0.96877  0.63153  0.37951  1.0000
  S   S558      1.0  0.96584  0.95847  0.59360  1.0000
  C   C1660     1.0  0.89876  0.95631  0.50065  1.0000
  H   H1653     1.0  0.82116  0.76636  0.63695  1.0000
  H   H1654     1.0  0.88681  0.94906  0.50605  1.0000
  N   N140      1.0  0.86261  0.88891  0.54136  1.0000
  H   H1655     1.0  0.84233  0.91031  0.53270  1.0000
  H   H1656     1.0  0.85103  0.86692  0.52980  1.0000
  H   H1657     1.0  0.95247  0.72699  0.60988  1.0000
  H   H1658     1.0  0.81860  0.79588  0.65186  1.0000
  H   H1659     1.0  0.90018  0.97058  0.52531  1.0000
  H   H1660     1.0  0.83998  0.92090  0.34984  1.0000
  H   H1661     1.0  0.77044  0.78193  0.61162  1.0000
  Fe  Fe281     1.0  0.93222  0.66481  0.33548  1.0000
  H   H1662     1.0  0.85258  0.86393  0.55469  1.0000
  H   H1663     1.0  0.83507  0.87982  0.54507  1.0000
  C   C1661     1.0  0.98888  0.98706  0.58339  1.0000
  C   C1662     1.0  0.75268  0.85178  0.62985  1.0000
  H   H1664     1.0  0.97324  0.70386  0.64995  1.0000
  S   S559      1.0  0.96888  0.66845  0.63270  1.0000
  H   H1665     1.0  0.95363  0.97012  0.43138  1.0000
  H   H1666     1.0  0.94369  0.62733  0.35596  1.0000
  H   H1667     1.0  0.74429  0.83782  0.60727  1.0000
  H   H1668     1.0  0.78512  0.74658  0.61963  1.0000
  H   H1669     1.0  0.85238  0.98534  0.58013  1.0000
  H   H1670     1.0  0.97904  0.62972  0.36749  1.0000
  N   N141      1.0  0.95583  0.61687  0.38100  1.0000
  C   C1663     1.0  0.92143  0.96384  0.47536  1.0000
  C   C1664     1.0  0.90626  0.96854  0.51148  1.0000
  H   H1671     1.0  0.97162  0.93573  0.40412  1.0000
  C   C1665     1.0  0.83161  0.90912  0.34994  1.0000
  H   H1672     1.0  0.97626  0.63160  0.39230  1.0000
  C   C1666     1.0  0.90534  0.50192  0.49433  1.0000
  H   H1673     1.0  0.98330  0.96821  0.44673  1.0000
  H   H1674     1.0  0.97889  0.55661  0.46814  1.0000
  Fe  Fe282     1.0  0.91638  0.97464  0.40633  1.0000
  H   H1675     1.0  0.77513  0.88990  0.34496  1.0000
  C   C1667     1.0  0.93193  0.72662  0.64228  1.0000
  H   H1676     1.0  0.98946  0.98438  0.64927  1.0000
  C   C1668     1.0  0.92897  0.97598  0.48616  1.0000
  C   C1669     1.0  0.96569  0.97990  0.40455  1.0000
  H   H1677     1.0  0.96109  0.64540  0.37714  1.0000
  H   H1678     1.0  0.77615  0.89680  0.36806  1.0000
  H   H1679     1.0  0.98762  0.53444  0.49466  1.0000
  C   C1670     1.0  0.92110  0.97871  0.50403  1.0000
  H   H1680     1.0  0.83226  0.73423  0.32718  1.0000
  H   H1681     1.0  0.79143  0.81863  0.64674  1.0000
  C   C1671     1.0  0.96618  0.97409  0.42348  1.0000
  C   C1672     1.0  0.98710  0.57490  0.51960  1.0000
  C   C1673     1.0  0.79254  0.80548  0.64051  1.0000
  C   C1674     1.0  0.98216  0.98507  0.39455  1.0000
  C   C1675     1.0  0.80992  0.87915  0.35191  1.0000
  C   C1676     1.0  0.84014  0.89116  0.34983  1.0000
  H   H1682     1.0  0.80148  0.86734  0.35299  1.0000
  S   S560      1.0  0.94512  0.98024  0.39267  1.0000
  H   H1683     1.0  0.85514  0.88888  0.34964  1.0000
  C   C1677     1.0  0.74626  0.86049  0.64600  1.0000
  C   C1678     1.0  0.99084  0.94305  0.38095  1.0000
  C   C1679     1.0  0.86205  0.98654  0.60722  1.0000
  S   S561      1.0  0.90726  0.98522  0.43393  1.0000
  C   C1680     1.0  0.98976  0.66845  0.64422  1.0000
  H   H1684     1.0  0.98794  0.96935  0.63089  1.0000
  H   H1685     1.0  0.74945  0.89485  0.61205  1.0000
  C   C1681     1.0  0.98753  0.96840  0.58992  1.0000
  C   C1682     1.0  0.95983  0.71118  0.65282  1.0000
  H   H1686     1.0  0.74692  0.82586  0.36035  1.0000
  C   C1683     1.0  0.99071  0.98357  0.63400  1.0000
  C   C1684     1.0  0.74489  0.85568  0.35946  1.0000
  C   C1685     1.0  0.99252  0.55648  0.47338  1.0000
  H   H1687     1.0  0.82610  0.64326  0.80718  1.0000
  H   H1688     1.0  0.84659  0.64300  0.77790  1.0000
  H   H1689     1.0  0.94563  0.58175  0.83433  1.0000
  C   C1686     1.0  0.97575  0.55809  0.83775  1.0000
  Fe  Fe283     1.0  0.97988  0.55226  0.89907  1.0000
  S   S562      1.0  0.95847  0.54183  0.88191  1.0000
  Fe  Fe284     1.0  0.82851  0.57261  0.82094  1.0000
  S   S563      1.0  0.83603  0.55493  0.79681  1.0000
  S   S564      1.0  0.79719  0.58079  0.82608  1.0000
  Fe  Fe285     1.0  0.86957  0.57393  0.82798  1.0000
  S   S565      1.0  0.87967  0.55672  0.80448  1.0000
  S   S566      1.0  0.88904  0.58672  0.84565  1.0000
  Fe  Fe286     1.0  0.85862  0.57421  0.78786  1.0000
  S   S567      1.0  0.86268  0.58136  0.75624  1.0000
  Fe  Fe287     1.0  0.85649  0.53870  0.81494  1.0000
  S   S568      1.0  0.86462  0.50744  0.81861  1.0000
  S   S569      1.0  0.84985  0.59286  0.81066  1.0000
  S   S570      1.0  0.84767  0.55493  0.83972  1.0000
  H   H1690     1.0  0.91103  0.50859  0.77404  1.0000
  C   C1687     1.0  0.95660  0.58730  0.84104  1.0000
  C   C1688     1.0  0.82396  0.63393  0.79679  1.0000
  H   H1691     1.0  0.76209  0.62654  0.92209  1.0000
  S   S571      1.0  0.90176  0.64600  0.70430  1.0000
  H   H1692     1.0  0.96209  0.70787  0.68251  1.0000
  H   H1693     1.0  0.96921  0.61253  0.98293  1.0000
  H   H1694     1.0  0.91143  0.73571  0.66337  1.0000
  C   C1689     1.0  0.85253  0.51462  0.74834  1.0000
  H   H1695     1.0  0.79711  0.59954  0.78946  1.0000
  C   C1690     1.0  0.87402  0.59925  0.74212  1.0000
  C   C1691     1.0  0.87392  0.59976  0.72262  1.0000
  C   C1692     1.0  0.88233  0.61383  0.71084  1.0000
  C   C1693     1.0  0.89094  0.62772  0.71839  1.0000
  C   C1694     1.0  0.89093  0.62726  0.73791  1.0000
  C   C1695     1.0  0.88258  0.61315  0.74970  1.0000
  H   H1696     1.0  0.86733  0.58917  0.71651  1.0000
  H   H1697     1.0  0.88216  0.61394  0.69590  1.0000
  H   H1698     1.0  0.89754  0.63788  0.74396  1.0000
  H   H1699     1.0  0.88282  0.61306  0.76462  1.0000
  H   H1700     1.0  0.98543  0.51111  0.89228  1.0000
  H   H1701     1.0  0.83393  0.50308  0.79537  1.0000
  C   C1696     1.0  0.78245  0.58991  0.84468  1.0000
  C   C1697     1.0  0.76307  0.59132  0.84339  1.0000
  C   C1698     1.0  0.85958  0.49699  0.75507  1.0000
  C   C1699     1.0  0.75774  0.60508  0.87308  1.0000
  C   C1700     1.0  0.77714  0.60374  0.87433  1.0000
  C   C1701     1.0  0.78939  0.59616  0.86032  1.0000
  H   H1702     1.0  0.75745  0.58655  0.83142  1.0000
  H   H1703     1.0  0.78277  0.60858  0.88626  1.0000
  H   H1704     1.0  0.80421  0.59524  0.86159  1.0000
  H   H1705     1.0  0.82074  0.58165  0.76327  1.0000
  C   C1702     1.0  0.93841  0.55421  0.87319  1.0000
  C   C1703     1.0  0.93281  0.57234  0.87744  1.0000
  C   C1704     1.0  0.91742  0.58200  0.86919  1.0000
  C   C1705     1.0  0.90747  0.57362  0.85671  1.0000
  C   C1706     1.0  0.91290  0.55537  0.85274  1.0000
  C   C1707     1.0  0.92828  0.54573  0.86097  1.0000
  H   H1706     1.0  0.94042  0.57898  0.88692  1.0000
  H   H1707     1.0  0.91321  0.59607  0.87243  1.0000
  H   H1708     1.0  0.90530  0.54874  0.84324  1.0000
  H   H1709     1.0  0.93242  0.53166  0.85769  1.0000
  N   N142      1.0  0.97276  0.57673  0.84424  1.0000
  H   H1710     1.0  0.84193  0.62107  0.75486  1.0000
  H   H1711     1.0  0.75915  0.64619  0.93560  1.0000
  H   H1712     1.0  0.94048  0.61317  0.84510  1.0000
  H   H1713     1.0  0.88167  0.54044  0.76754  1.0000
  H   H1714     1.0  0.97708  0.66622  0.67211  1.0000
  C   C1708     1.0  0.86058  0.53030  0.75284  1.0000
  N   N143      1.0  0.81899  0.60932  0.77064  1.0000
  N   N144      1.0  0.88203  0.51081  0.77111  1.0000
  H   H1715     1.0  0.85532  0.54411  0.74762  1.0000
  S   S572      1.0  0.98573  0.53859  0.92732  1.0000
  C   C1709     1.0  0.83277  0.62128  0.76741  1.0000
  C   C1710     1.0  0.81000  0.62164  0.79997  1.0000
  C   C1711     1.0  0.83545  0.63377  0.78041  1.0000
  C   C1712     1.0  0.80774  0.60933  0.78668  1.0000
  C   C1713     1.0  0.81653  0.59590  0.75725  1.0000
  H   H1716     1.0  0.93094  0.72397  0.68944  1.0000
  S   S573      1.0  0.91990  0.68058  0.66415  1.0000
  C   C1714     1.0  0.95350  0.49544  0.90087  1.0000
  H   H1717     1.0  0.96519  0.62600  0.86115  1.0000
  C   C1715     1.0  0.98478  0.49828  0.88586  1.0000
  C   C1716     1.0  0.96740  0.61226  0.85618  1.0000
  S   S574      1.0  0.98434  0.57631  0.96134  1.0000
  H   H1718     1.0  0.94280  0.50269  0.89203  1.0000
  H   H1719     1.0  0.80130  0.62119  0.81289  1.0000
  C   C1717     1.0  0.95360  0.60513  0.84712  1.0000
  C   C1718     1.0  0.87548  0.52813  0.76421  1.0000
  Fe  Fe288     1.0  0.90668  0.65356  0.67269  1.0000
  H   H1720     1.0  0.84084  0.51612  0.73969  1.0000
  H   H1721     1.0  0.98316  0.55877  0.82375  1.0000
  H   H1722     1.0  0.80182  0.59659  0.75381  1.0000
  C   C1719     1.0  0.75080  0.59875  0.85749  1.0000
  C   C1720     1.0  0.89781  0.50879  0.78283  1.0000
  C   C1721     1.0  0.98404  0.60159  0.85889  1.0000
  H   H1723     1.0  0.89752  0.49584  0.79235  1.0000
  H   H1724     1.0  0.98392  0.54864  0.84759  1.0000
  H   H1725     1.0  0.96235  0.55181  0.83715  1.0000
  C   C1722     1.0  0.93618  0.72252  0.67516  1.0000
  H   H1726     1.0  0.82525  0.59852  0.74408  1.0000
  H   H1727     1.0  0.89714  0.52035  0.79198  1.0000
  C   C1723     1.0  0.98991  0.66759  0.66360  1.0000
  S   S575      1.0  0.98720  0.58038  0.90561  1.0000
  C   C1724     1.0  0.95361  0.71348  0.67129  1.0000
  C   C1725     1.0  0.98651  0.58377  0.85275  1.0000
  C   C1726     1.0  0.92528  0.72920  0.66058  1.0000
  C   C1727     1.0  0.75168  0.63531  0.93018  1.0000
  H   H1728     1.0  0.95762  0.50549  0.91022  1.0000
  C   C1728     1.0  0.87450  0.49533  0.76643  1.0000
  S   S576      1.0  0.74302  0.61506  0.89122  1.0000
