data_image0
_chemical_formula_structural       FeHSCHNSC4HCHCHCH3CHFeH2NSCFeSHSCFeCH2SC2FeCHCH3CH2S2HFeSHS2HSCFeSCHFeH2FeS2C2HCH2FeS2FeSHFeSFeCS2HCH2C7H4C3H3SC3HC10H5C2HC7H2CHS2C2H3NSHSH3CHC2H2CFeCHC2HFeH2C3SNC2NCH2CHC4SH2CHCSHCHCHCH2NH3CSNCH4CHCH2FeCNSCS2CSFeSCSHFeS2FeSHFeSFeHS2HCHSCHNCH2NHCFeHC3HC4H2C7H4C2H4CFeCH2SHCSH4NHC3SHC2H4C2HC3H2SCFeCHCSH2C2HCHCH3CHCNH2C3H2C2HCHS2CSFeSH2NFeSH2C3SC3H2C3H2CH2CH2CHC5HSHNCSHCFeHCFeS2CH3C4H2CHSCH2C2HCFeSHS3FeS2FeSHFeSFeS3C3H2C2H2C3H3C6H5CHNHC4HCH3CHCHC3HC2FeH2NCHC2HC4H2CH4NH3C2HC2HCHC2H3SCH3SC2SFeSFeSFe2S2FeSFeHS2HSHC3H4C2HNC7H7CH2CH2CH2CHSH3CH2CH3C2HC2SNC4H2CHCH2C4HCSCHCNC2HC2HC2H3C2HSHNH3FeS2CSFeHS2C2SC2HCFeSHNC3FeC2HN2H2CHCH2C5H4CHSC2H2CH2FeC2H2SCHCSH4C3H3C3HCH2C2H3CSCSCHFeSHSFeS2CFeS2FeS2FeCFeS3HCH2CH2C3H2CHC2HC2SCH2C2H2C2HCHC6H4C3H2CNC6H8C3NH3CS2HCH4NC7H5CFeHCHCH3FeNHCHSC2FeH4SHCH2SFeS2CSH2FeS2CFeCH2CHSFeSCFeS2FeSFeHS2CHCFeS2C2HSHC6H4CHC2H3CHC3FeCH3NHC6H4C3H2C3NCH6SNC2NCH3NC2H2FeH3SCHCH3C3H2FeSNSHC2HSFeCHFeC2H4C2S2HC2H3C6HC4SH2SFeSFeSC4H2C4H2C2H2NSHFeCHFeHSH3CSH2CFeCH4NC2SCH2CHCH
_chemical_formula_sum              "Fe72 H432 S144 C432 N36"
_cell_length_a       58.4177
_cell_length_b       58.341
_cell_length_c       28.8998
_cell_angle_alpha    89.6859
_cell_angle_beta     90.4078
_cell_angle_gamma    119.828

_space_group_name_H-M_alt    "P 1"
_space_group_IT_number       1

loop_
  _space_group_symop_operation_xyz
  'x, y, z'

loop_
  _atom_site_type_symbol
  _atom_site_label
  _atom_site_symmetry_multiplicity
  _atom_site_fract_x
  _atom_site_fract_y
  _atom_site_fract_z
  _atom_site_occupancy
  Fe  Fe1       1.0  0.48377  0.32335  0.44396  1.0000
  H   H1        1.0  0.44172  0.25791  0.41452  1.0000
  S   S1        1.0  0.45872  0.31431  0.37961  1.0000
  C   C1        1.0  0.44613  0.24190  0.41452  1.0000
  H   H2        1.0  0.49238  0.28233  0.37116  1.0000
  N   N1        1.0  0.46427  0.24220  0.38445  1.0000
  S   S2        1.0  0.47253  0.29201  0.50101  1.0000
  C   C2        1.0  0.44088  0.20199  0.44984  1.0000
  C   C3        1.0  0.50435  0.24344  0.48903  1.0000
  C   C4        1.0  0.45939  0.20244  0.41909  1.0000
  C   C5        1.0  0.43410  0.22177  0.44750  1.0000
  H   H3        1.0  0.48827  0.26030  0.32446  1.0000
  C   C6        1.0  0.49979  0.26490  0.48267  1.0000
  H   H4        1.0  0.46568  0.18783  0.42233  1.0000
  C   C7        1.0  0.47772  0.26442  0.35218  1.0000
  H   H5        1.0  0.42071  0.22236  0.47267  1.0000
  C   C8        1.0  0.47106  0.22288  0.38653  1.0000
  H   H6        1.0  0.46337  0.26889  0.33470  1.0000
  H   H7        1.0  0.48616  0.22361  0.36400  1.0000
  H   H8        1.0  0.43281  0.18705  0.47682  1.0000
  C   C9        1.0  0.48217  0.26773  0.51143  1.0000
  H   H9        1.0  0.36434  0.32649  0.40034  1.0000
  Fe  Fe2       1.0  0.49729  0.33623  0.34165  1.0000
  H   H10       1.0  0.33134  0.33551  0.36197  1.0000
  H   H11       1.0  0.43267  0.01433  0.54276  1.0000
  N   N2        1.0  0.50306  0.15664  0.91910  1.0000
  S   S3        1.0  0.46437  0.13941  0.63331  1.0000
  C   C10       1.0  0.42491  0.02927  0.65276  1.0000
  Fe  Fe3       1.0  0.47449  0.10833  0.60970  1.0000
  S   S4        1.0  0.45109  0.06580  0.58164  1.0000
  H   H12       1.0  0.45672  0.25156  0.57062  1.0000
  S   S5        1.0  0.50144  0.13548  0.55421  1.0000
  C   C11       1.0  0.47503  0.22824  0.55457  1.0000
  Fe  Fe4       1.0  0.49413  0.16750  0.58120  1.0000
  C   C12       1.0  0.43327  0.03353  0.60667  1.0000
  H   H13       1.0  0.46487  0.21390  0.58166  1.0000
  H   H14       1.0  0.42977  0.04601  0.67486  1.0000
  S   S6        1.0  0.50752  0.12021  0.66121  1.0000
  C   C13       1.0  0.47030  0.24957  0.54798  1.0000
  C   C14       1.0  0.42648  0.01136  0.57852  1.0000
  Fe  Fe5       1.0  0.49985  0.15285  0.68121  1.0000
  C   C15       1.0  0.48944  0.12995  0.89946  1.0000
  H   H15       1.0  0.48561  0.13048  0.86179  1.0000
  C   C16       1.0  0.49866  0.17583  0.90085  1.0000
  H   H16       1.0  0.48597  0.17170  0.87073  1.0000
  H   H17       1.0  0.50171  0.12031  0.90299  1.0000
  H   H18       1.0  0.47037  0.11769  0.91737  1.0000
  C   C17       1.0  0.49166  0.22466  0.52446  1.0000
  H   H19       1.0  0.50351  0.08157  0.53370  1.0000
  H   H20       1.0  0.50299  0.06229  0.58307  1.0000
  S   S7        1.0  0.49330  0.19486  0.52390  1.0000
  S   S8        1.0  0.50617  0.16858  0.75479  1.0000
  H   H21       1.0  0.50809  0.21663  0.90459  1.0000
  Fe  Fe6       1.0  0.18028  0.59001  0.07648  1.0000
  S   S9        1.0  0.15689  0.58374  0.14243  1.0000
  H   H22       1.0  0.13773  0.60810  0.48110  1.0000
  S   S10       1.0  0.24822  0.56211  0.06490  1.0000
  S   S11       1.0  0.22452  0.61313  0.07608  1.0000
  H   H23       1.0  0.07285  0.40822  0.46427  1.0000
  S   S12       1.0  0.39807  0.61249  0.05217  1.0000
  C   C18       1.0  0.01536  0.62925  0.38504  1.0000
  Fe  Fe7       1.0  0.41352  0.58411  0.05829  1.0000
  S   S13       1.0  0.41742  0.56699  0.12703  1.0000
  C   C19       1.0  0.17816  0.58820  0.35813  1.0000
  H   H24       1.0  0.33439  0.56964  0.03820  1.0000
  Fe  Fe8       1.0  0.17260  0.65261  0.43140  1.0000
  H   H25       1.0  0.18383  0.64051  0.12554  1.0000
  H   H26       1.0  0.36121  0.46160  0.16019  1.0000
  Fe  Fe9       1.0  0.12278  0.65647  0.42242  1.0000
  S   S14       1.0  0.07951  0.62810  0.44199  1.0000
  S   S15       1.0  0.13938  0.63576  0.38020  1.0000
  C   C20       1.0  0.42870  0.54301  0.48671  1.0000
  C   C21       1.0  0.17017  0.60037  0.48314  1.0000
  H   H27       1.0  0.02915  0.58304  0.46207  1.0000
  C   C22       1.0  0.38808  0.47306  0.21758  1.0000
  H   H28       1.0  0.40207  0.51653  0.08220  1.0000
  H   H29       1.0  0.11692  0.42795  0.42658  1.0000
  Fe  Fe10      1.0  0.34474  0.48033  0.33956  1.0000
  S   S16       1.0  0.32838  0.44338  0.38419  1.0000
  S   S17       1.0  0.33555  0.47984  0.26284  1.0000
  Fe  Fe11      1.0  0.37332  0.51633  0.41908  1.0000
  S   S18       1.0  0.35988  0.48290  0.46918  1.0000
  H   H30       1.0  0.49121  0.57108  0.42905  1.0000
  Fe  Fe12      1.0  0.36969  0.46212  0.41377  1.0000
  S   S19       1.0  0.39435  0.44397  0.44044  1.0000
  Fe  Fe13      1.0  0.31982  0.46710  0.43627  1.0000
  C   C23       1.0  0.08903  0.40732  0.48116  1.0000
  S   S20       1.0  0.38634  0.49736  0.36601  1.0000
  S   S21       1.0  0.33299  0.50218  0.38929  1.0000
  H   H31       1.0  0.43248  0.60279  0.49839  1.0000
  C   C24       1.0  0.21550  0.64921  0.28642  1.0000
  H   H32       1.0  0.04316  0.59382  0.33875  1.0000
  H   H33       1.0  0.18608  0.57391  0.27407  1.0000
  C   C25       1.0  0.10445  0.65790  0.27636  1.0000
  C   C26       1.0  0.42201  0.38747  0.38655  1.0000
  C   C27       1.0  0.43358  0.40303  0.42580  1.0000
  C   C28       1.0  0.42598  0.42138  0.44013  1.0000
  C   C29       1.0  0.40689  0.42459  0.41537  1.0000
  C   C30       1.0  0.39639  0.41008  0.37471  1.0000
  C   C31       1.0  0.40381  0.39154  0.36061  1.0000
  H   H34       1.0  0.45386  0.61613  0.39348  1.0000
  H   H35       1.0  0.43434  0.43258  0.47151  1.0000
  H   H36       1.0  0.38167  0.41223  0.35531  1.0000
  H   H37       1.0  0.39471  0.37960  0.33023  1.0000
  C   C32       1.0  0.42260  0.56311  0.48018  1.0000
  C   C33       1.0  0.17857  0.58276  0.49749  1.0000
  C   C34       1.0  0.42393  0.51149  0.15827  1.0000
  H   H38       1.0  0.32143  0.51143  0.48559  1.0000
  H   H39       1.0  0.15370  0.42658  0.46665  1.0000
  H   H40       1.0  0.44750  0.40010  0.44624  1.0000
  S   S22       1.0  0.17831  0.55366  0.04618  1.0000
  C   C35       1.0  0.38119  0.47496  0.17182  1.0000
  C   C36       1.0  0.17790  0.65757  0.18746  1.0000
  C   C37       1.0  0.10806  0.65070  0.23224  1.0000
  H   H41       1.0  0.37008  0.48905  0.09216  1.0000
  C   C38       1.0  0.04685  0.62010  0.42520  1.0000
  C   C39       1.0  0.04163  0.63668  0.39727  1.0000
  C   C40       1.0  0.34767  0.37676  0.45425  1.0000
  C   C41       1.0  0.26061  0.45972  0.49796  1.0000
  C   C42       1.0  0.39228  0.54647  0.16629  1.0000
  C   C43       1.0  0.36659  0.52863  0.15155  1.0000
  C   C44       1.0  0.34883  0.50895  0.18211  1.0000
  C   C45       1.0  0.35640  0.50739  0.22783  1.0000
  C   C46       1.0  0.38150  0.52633  0.24325  1.0000
  C   C47       1.0  0.39942  0.54554  0.21247  1.0000
  H   H42       1.0  0.36084  0.52916  0.11606  1.0000
  H   H43       1.0  0.32937  0.49447  0.16998  1.0000
  H   H44       1.0  0.38755  0.52549  0.27832  1.0000
  H   H45       1.0  0.41923  0.55926  0.22416  1.0000
  H   H46       1.0  0.41753  0.52437  0.46888  1.0000
  C   C48       1.0  0.29636  0.56630  0.05013  1.0000
  C   C49       1.0  0.11369  0.41832  0.46003  1.0000
  H   H47       1.0  0.29438  0.55816  0.08458  1.0000
  C   C50       1.0  0.48701  0.66002  0.44072  1.0000
  C   C51       1.0  0.16035  0.61058  0.17547  1.0000
  C   C52       1.0  0.14876  0.60569  0.21947  1.0000
  C   C53       1.0  0.15227  0.62669  0.24785  1.0000
  C   C54       1.0  0.16684  0.65272  0.23187  1.0000
  C   C55       1.0  0.43728  0.58725  0.50322  1.0000
  C   C56       1.0  0.17493  0.63659  0.15949  1.0000
  H   H48       1.0  0.13744  0.58557  0.23193  1.0000
  H   H49       1.0  0.14353  0.62274  0.28184  1.0000
  C   C57       1.0  0.20232  0.63217  0.32333  1.0000
  H   H50       1.0  0.31250  0.62097  0.10093  1.0000
  S   S23       1.0  0.39703  0.55852  0.44266  1.0000
  S   S24       1.0  0.48385  0.36181  0.45672  1.0000
  C   C58       1.0  0.33482  0.36369  0.41352  1.0000
  C   C59       1.0  0.30241  0.63732  0.04252  1.0000
  H   H51       1.0  0.16385  0.59338  0.37322  1.0000
  H   H52       1.0  0.48158  0.66145  0.47699  1.0000
  H   H53       1.0  0.09956  0.61828  0.18671  1.0000
  N   N3        1.0  0.19181  0.60547  0.31870  1.0000
  S   S25       1.0  0.49809  0.37490  0.34565  1.0000
  H   H54       1.0  0.39337  0.66360  0.02290  1.0000
  S   S26       1.0  0.28655  0.45226  0.49011  1.0000
  H   H55       1.0  0.22544  0.48411  0.44256  1.0000
  H   H56       1.0  0.37349  0.45861  0.24092  1.0000
  H   H57       1.0  0.20894  0.60316  0.20778  1.0000
  C   C60       1.0  0.39149  0.49576  0.09500  1.0000
  H   H58       1.0  0.28251  0.63076  0.05437  1.0000
  C   C61       1.0  0.23145  0.47562  0.47019  1.0000
  C   C62       1.0  0.31901  0.57285  0.02404  1.0000
  H   H59       1.0  0.41864  0.48998  0.26946  1.0000
  H   H60       1.0  0.16701  0.56703  0.34816  1.0000
  C   C63       1.0  0.25302  0.47141  0.46323  1.0000
  Fe  Fe14      1.0  0.22222  0.57810  0.04028  1.0000
  C   C64       1.0  0.14436  0.59460  0.49213  1.0000
  H   H61       1.0  0.34371  0.39166  0.46829  1.0000
  C   C65       1.0  0.19452  0.59507  0.27809  1.0000
  C   C66       1.0  0.37133  0.35340  0.45663  1.0000
  H   H62       1.0  0.43783  0.52709  0.13569  1.0000
  Fe  Fe15      1.0  0.46164  0.35422  0.38935  1.0000
  H   H63       1.0  0.05768  0.65554  0.38608  1.0000
  H   H64       1.0  0.07219  0.59492  0.36327  1.0000
  C   C67       1.0  0.06082  0.59206  0.33069  1.0000
  C   C68       1.0  0.20772  0.61155  0.24055  1.0000
  C   C69       1.0  0.43149  0.51014  0.20383  1.0000
  S   S27       1.0  0.19213  0.62962  0.45429  1.0000
  N   N4        1.0  0.07723  0.61213  0.29653  1.0000
  C   C70       1.0  0.27639  0.57041  0.03185  1.0000
  C   C71       1.0  0.41336  0.49083  0.23366  1.0000
  N   N5        1.0  0.39895  0.49421  0.14300  1.0000
  C   C72       1.0  0.02543  0.59598  0.44028  1.0000
  H   H65       1.0  0.35746  0.63498  0.07232  1.0000
  H   H66       1.0  0.45568  0.57492  0.38783  1.0000
  C   C73       1.0  0.47011  0.61514  0.40991  1.0000
  H   H67       1.0  0.12087  0.66578  0.20778  1.0000
  C   C74       1.0  0.08067  0.60487  0.25328  1.0000
  C   C75       1.0  0.21752  0.46883  0.51227  1.0000
  C   C76       1.0  0.13444  0.41747  0.48290  1.0000
  C   C77       1.0  0.47106  0.59171  0.40643  1.0000
  S   S28       1.0  0.45315  0.61275  0.02825  1.0000
  H   H68       1.0  0.20020  0.64039  0.35554  1.0000
  H   H69       1.0  0.08650  0.64397  0.34278  1.0000
  C   C78       1.0  0.34057  0.34526  0.39422  1.0000
  H   H70       1.0  0.39630  0.48346  0.07235  1.0000
  C   C79       1.0  0.09617  0.62403  0.22053  1.0000
  S   S29       1.0  0.42633  0.36010  0.37294  1.0000
  H   H71       1.0  0.26329  0.47660  0.43049  1.0000
  C   C80       1.0  0.49093  0.58954  0.42960  1.0000
  H   H72       1.0  0.19270  0.59075  0.38555  1.0000
  C   C81       1.0  0.35889  0.34000  0.41592  1.0000
  H   H73       1.0  0.05400  0.57167  0.31837  1.0000
  C   C82       1.0  0.21819  0.63877  0.24480  1.0000
  H   H74       1.0  0.32104  0.36838  0.39649  1.0000
  H   H75       1.0  0.50416  0.36481  0.24574  1.0000
  N   N6        1.0  0.36588  0.37175  0.47493  1.0000
  H   H76       1.0  0.07170  0.58420  0.24393  1.0000
  H   H77       1.0  0.22763  0.65164  0.21540  1.0000
  H   H78       1.0  0.45102  0.52442  0.21617  1.0000
  C   C83       1.0  0.08890  0.63825  0.30829  1.0000
  S   S30       1.0  0.15535  0.67114  0.47685  1.0000
  N   N7        1.0  0.48867  0.63593  0.43530  1.0000
  C   C84       1.0  0.34468  0.63988  0.05235  1.0000
  H   H79       1.0  0.19852  0.58714  0.49045  1.0000
  H   H80       1.0  0.38616  0.34977  0.47232  1.0000
  H   H81       1.0  0.47220  0.66048  0.41700  1.0000
  H   H82       1.0  0.01156  0.64244  0.36410  1.0000
  C   C85       1.0  0.31932  0.63195  0.06878  1.0000
  H   H83       1.0  0.25881  0.66930  0.07267  1.0000
  C   C86       1.0  0.50834  0.63403  0.45779  1.0000
  H   H84       1.0  0.32936  0.54265  0.51103  1.0000
  H   H85       1.0  0.22283  0.67027  0.28961  1.0000
  Fe  Fe16      1.0  0.43644  0.63955  0.01738  1.0000
  C   C87       1.0  0.44980  0.54721  0.51559  1.0000
  N   N8        1.0  0.34278  0.51968  0.54850  1.0000
  S   S31       1.0  0.22104  0.59206  0.96843  1.0000
  C   C88       1.0  0.18406  0.56815  0.67230  1.0000
  S   S32       1.0  0.24584  0.66601  0.97505  1.0000
  S   S33       1.0  0.14835  0.54296  0.92186  1.0000
  C   C89       1.0  0.15797  0.55453  0.68778  1.0000
  S   S34       1.0  0.34869  0.59043  0.94484  1.0000
  Fe  Fe17      1.0  0.43582  0.59595  0.95872  1.0000
  S   S35       1.0  0.45921  0.58727  0.90608  1.0000
  C   C90       1.0  0.11206  0.54494  0.68533  1.0000
  S   S36       1.0  0.42215  0.62503  0.94585  1.0000
  H   H86       1.0  0.39867  0.38712  0.52162  1.0000
  Fe  Fe18      1.0  0.15747  0.49131  0.67347  1.0000
  S   S37       1.0  0.15020  0.45235  0.64419  1.0000
  S   S38       1.0  0.18390  0.51242  0.73538  1.0000
  Fe  Fe19      1.0  0.13042  0.50120  0.59198  1.0000
  S   S39       1.0  0.12161  0.46373  0.55639  1.0000
  H   H87       1.0  0.17736  0.60750  0.59258  1.0000
  Fe  Fe20      1.0  0.10923  0.44544  0.62683  1.0000
  S   S40       1.0  0.07140  0.40559  0.63575  1.0000
  Fe  Fe21      1.0  0.16320  0.47393  0.57593  1.0000
  H   H88       1.0  0.37860  0.64605  0.96986  1.0000
  S   S41       1.0  0.11586  0.48259  0.66167  1.0000
  S   S42       1.0  0.17262  0.51315  0.60613  1.0000
  H   H89       1.0  0.25988  0.51869  0.85144  1.0000
  C   C91       1.0  0.32135  0.58296  0.97927  1.0000
  H   H90       1.0  0.36661  0.37498  0.54801  1.0000
  S   S43       1.0  0.49246  0.57677  0.57051  1.0000
  C   C92       1.0  0.19118  0.58747  0.63810  1.0000
  H   H91       1.0  0.21118  0.59772  0.62492  1.0000
  N   N9        1.0  0.13958  0.56024  0.67022  1.0000
  C   C93       1.0  0.50123  0.67003  0.95217  1.0000
  H   H92       1.0  0.15246  0.53910  0.71347  1.0000
  H   H93       1.0  0.45474  0.53174  0.52005  1.0000
  N   N10       1.0  0.13074  0.40598  0.52567  1.0000
  H   H94       1.0  0.31565  0.48003  0.56848  1.0000
  C   C94       1.0  0.48552  0.60054  0.82311  1.0000
  Fe  Fe22      1.0  0.38498  0.59528  0.98110  1.0000
  H   H95       1.0  0.26372  0.58385  0.97273  1.0000
  C   C95       1.0  0.33643  0.65815  0.98494  1.0000
  C   C96       1.0  0.03888  0.40091  0.62948  1.0000
  C   C97       1.0  0.03458  0.42166  0.61685  1.0000
  H   H96       1.0  0.19844  0.56323  0.68610  1.0000
  C   C98       1.0  0.21842  0.50582  0.85742  1.0000
  C   C99       1.0  0.47166  0.60682  0.85551  1.0000
  C   C100      1.0  0.46997  0.62970  0.84897  1.0000
  C   C101      1.0  0.48337  0.64694  0.81210  1.0000
  H   H97       1.0  0.06657  0.38777  0.54215  1.0000
  H   H98       1.0  0.45928  0.63473  0.87331  1.0000
  C   C102      1.0  0.24679  0.45305  0.54019  1.0000
  C   C103      1.0  0.15840  0.53613  0.86850  1.0000
  C   C104      1.0  0.13938  0.51664  0.83938  1.0000
  C   C105      1.0  0.14677  0.50965  0.79780  1.0000
  C   C106      1.0  0.17334  0.52210  0.78509  1.0000
  C   C107      1.0  0.19230  0.54204  0.81359  1.0000
  C   C108      1.0  0.18489  0.54905  0.85513  1.0000
  H   H99       1.0  0.11884  0.50657  0.84947  1.0000
  H   H100      1.0  0.13199  0.49416  0.77628  1.0000
  H   H101      1.0  0.21288  0.55190  0.80387  1.0000
  H   H102      1.0  0.19970  0.56426  0.87694  1.0000
  C   C109      1.0  0.24410  0.51599  0.87439  1.0000
  C   C110      1.0  0.30132  0.58686  0.96093  1.0000
  H   H103      1.0  0.05127  0.44118  0.61115  1.0000
  H   H104      1.0  0.30311  0.59466  0.92625  1.0000
  H   H105      1.0  0.16787  0.54606  0.53258  1.0000
  H   H106      1.0  0.39460  0.51245  0.62150  1.0000
  C   C111      1.0  0.49850  0.64147  0.78130  1.0000
  Fe  Fe23      1.0  0.17713  0.57036  0.97642  1.0000
  C   C112      1.0  0.38701  0.53807  0.57816  1.0000
  H   H107      1.0  0.10276  0.55753  0.68642  1.0000
  H   H108      1.0  0.13151  0.58275  0.62104  1.0000
  S   S44       1.0  0.39738  0.56455  0.98922  1.0000
  H   H109      1.0  0.29753  0.65378  0.97886  1.0000
  C   C113      1.0  0.01680  0.37567  0.63677  1.0000
  S   S45       1.0  0.11418  0.52640  0.56441  1.0000
  H   H110      1.0  0.10400  0.38748  0.58176  1.0000
  H   H111      1.0  0.11059  0.53658  0.72059  1.0000
  H   H112      1.0  0.21518  0.45243  0.58010  1.0000
  H   H113      1.0  0.40715  0.55436  0.58017  1.0000
  N   N11       1.0  0.35308  0.65326  0.01133  1.0000
  H   H114      1.0  0.10075  0.52840  0.66080  1.0000
  C   C114      1.0  0.08548  0.39579  0.52483  1.0000
  C   C115      1.0  0.35408  0.49353  0.59808  1.0000
  C   C116      1.0  0.15296  0.40617  0.54995  1.0000
  S   S46       1.0  0.17539  0.60495  0.00710  1.0000
  H   H115      1.0  0.25241  0.44397  0.56736  1.0000
  C   C117      1.0  0.14636  0.57910  0.63658  1.0000
  C   C118      1.0  0.37994  0.51449  0.60138  1.0000
  H   H116      1.0  0.34839  0.47498  0.61557  1.0000
  H   H117      1.0  0.48676  0.58277  0.82766  1.0000
  H   H118      1.0  0.26939  0.53118  0.93450  1.0000
  H   H119      1.0  0.18576  0.50429  0.99910  1.0000
  C   C119      1.0  0.22557  0.45779  0.54752  1.0000
  C   C120      1.0  0.24945  0.52303  0.92094  1.0000
  H   H120      1.0  0.14629  0.38791  0.57080  1.0000
  C   C121      1.0  0.37957  0.66121  0.99419  1.0000
  C   C122      1.0  0.13557  0.55397  0.53105  1.0000
  C   C123      1.0  0.27899  0.58078  0.98728  1.0000
  H   H121      1.0  0.10726  0.56723  0.52355  1.0000
  H   H122      1.0  0.47015  0.61032  0.54879  1.0000
  S   S47       1.0  0.18928  0.47296  0.51739  1.0000
  C   C124      1.0  0.10675  0.39558  0.54701  1.0000
  Fe  Fe24      1.0  0.21977  0.62538  0.00451  1.0000
  C   C125      1.0  0.17227  0.59308  0.62017  1.0000
  H   H123      1.0  0.37407  0.55842  0.53223  1.0000
  C   C126      1.0  0.46497  0.57156  0.53767  1.0000
  S   S48       1.0  0.50785  0.64833  0.61329  1.0000
  H   H124      1.0  0.18450  0.52871  0.96227  1.0000
  H   H125      1.0  0.16324  0.49421  0.95078  1.0000
  C   C127      1.0  0.33563  0.49651  0.57138  1.0000
  C   C128      1.0  0.32343  0.52176  0.51880  1.0000
  H   H126      1.0  0.21404  0.50079  0.82102  1.0000
  C   C129      1.0  0.22900  0.52006  0.94981  1.0000
  H   H127      1.0  0.17866  0.49562  0.87367  1.0000
  C   C130      1.0  0.45855  0.59152  0.53181  1.0000
  H   H128      1.0  0.38262  0.40620  0.51718  1.0000
  H   H129      1.0  0.16257  0.42359  0.57314  1.0000
  H   H130      1.0  0.48280  0.66512  0.80843  1.0000
  C   C131      1.0  0.31086  0.65024  0.00010  1.0000
  H   H131      1.0  0.48909  0.66366  0.98293  1.0000
  C   C132      1.0  0.16126  0.55951  0.52135  1.0000
  N   N12       1.0  0.20391  0.51008  0.93288  1.0000
  H   H132      1.0  0.01981  0.35944  0.64658  1.0000
  H   H133      1.0  0.30373  0.51240  0.53556  1.0000
  C   C133      1.0  0.37901  0.38557  0.51772  1.0000
  C   C134      1.0  0.19844  0.50292  0.88739  1.0000
  C   C135      1.0  0.49883  0.61775  0.78598  1.0000
  H   H134      1.0  0.34281  0.66806  0.95180  1.0000
  H   H135      1.0  0.23337  0.52606  0.98575  1.0000
  C   C136      1.0  0.18333  0.50914  0.96279  1.0000
  C   C137      1.0  0.36814  0.54027  0.55135  1.0000
  H   H136      1.0  0.16815  0.40759  0.52527  1.0000
  C   C138      1.0  0.12711  0.57144  0.51610  1.0000
  H   H137      1.0  0.25078  0.73111  0.48445  1.0000
  S   S49       1.0  0.14380  0.69435  0.38083  1.0000
  S   S50       1.0  0.42403  0.77660  0.05499  1.0000
  C   C139      1.0  0.46783  0.92256  0.45427  1.0000
  S   S51       1.0  0.34971  0.74135  0.08616  1.0000
  Fe  Fe25      1.0  0.43891  0.82005  0.06215  1.0000
  S   S52       1.0  0.47167  0.84734  0.11097  1.0000
  H   H138      1.0  0.28327  0.82959  0.51351  1.0000
  H   H139      1.0  0.48635  0.80398  0.07784  1.0000
  N   N13       1.0  0.50173  0.78528  0.19796  1.0000
  Fe  Fe26      1.0  0.17783  0.70740  0.43184  1.0000
  S   S53       1.0  0.20744  0.75126  0.44548  1.0000
  H   H140      1.0  0.30007  0.69859  0.11549  1.0000
  H   H141      1.0  0.26183  0.72898  0.02410  1.0000
  C   C140      1.0  0.24948  0.79503  0.48462  1.0000
  C   C141      1.0  0.48086  0.76680  0.17263  1.0000
  C   C142      1.0  0.27000  0.74862  0.48894  1.0000
  S   S54       1.0  0.19708  0.68927  0.39043  1.0000
  C   C143      1.0  0.49712  0.92200  0.51295  1.0000
  C   C144      1.0  0.43453  0.85823  0.47294  1.0000
  C   C145      1.0  0.45634  0.85449  0.47871  1.0000
  H   H142      1.0  0.42742  0.85875  0.43849  1.0000
  H   H143      1.0  0.46563  0.85171  0.44877  1.0000
  C   C146      1.0  0.47340  0.83809  0.16869  1.0000
  C   C147      1.0  0.45917  0.80519  0.22992  1.0000
  C   C148      1.0  0.45559  0.81290  0.18547  1.0000
  H   H144      1.0  0.44560  0.78549  0.24233  1.0000
  H   H145      1.0  0.43942  0.79917  0.16381  1.0000
  C   C149      1.0  0.49430  0.85573  0.19726  1.0000
  H   H146      1.0  0.18909  0.67767  0.17482  1.0000
  H   H147      1.0  0.48873  0.76764  0.26415  1.0000
  C   C150      1.0  0.27624  0.68308  0.05393  1.0000
  H   H148      1.0  0.47336  0.73494  0.05793  1.0000
  H   H149      1.0  0.25266  0.80321  0.45005  1.0000
  C   C151      1.0  0.29955  0.69981  0.07815  1.0000
  H   H150      1.0  0.45805  0.75871  0.10958  1.0000
  C   C152      1.0  0.46387  0.73008  0.02435  1.0000
  C   C153      1.0  0.42246  0.86210  0.51151  1.0000
  C   C154      1.0  0.32189  0.71869  0.05440  1.0000
  C   C155      1.0  0.47353  0.92124  0.50081  1.0000
  C   C156      1.0  0.47511  0.77313  0.12892  1.0000
  H   H151      1.0  0.11424  0.67860  0.28605  1.0000
  S   S55       1.0  0.48563  0.81103  0.31149  1.0000
  H   H152      1.0  0.46820  0.74719  0.18658  1.0000
  N   N14       1.0  0.28225  0.76524  0.45245  1.0000
  C   C157      1.0  0.32235  0.78039  0.05132  1.0000
  S   S56       1.0  0.39860  0.81595  0.05973  1.0000
  H   H153      1.0  0.26130  0.77281  0.40003  1.0000
  C   C158      1.0  0.48037  0.82263  0.25811  1.0000
  Fe  Fe27      1.0  0.38414  0.77295  0.04655  1.0000
  H   H154      1.0  0.31531  0.80146  0.43006  1.0000
  C   C159      1.0  0.28090  0.74669  0.01967  1.0000
  Fe  Fe28      1.0  0.16236  0.67418  0.34278  1.0000
  S   S57       1.0  0.17143  0.67958  0.26623  1.0000
  S   S58       1.0  0.39783  0.87068  0.50343  1.0000
  C   C160      1.0  0.29736  0.75847  0.05778  1.0000
  H   H155      1.0  0.48172  0.92612  0.38418  1.0000
  H   H156      1.0  0.29121  0.75000  0.09206  1.0000
  H   H157      1.0  0.33565  0.78906  0.08057  1.0000
  C   C161      1.0  0.22804  0.76952  0.49291  1.0000
  C   C162      1.0  0.49108  0.79842  0.11094  1.0000
  C   C163      1.0  0.49776  0.84808  0.24188  1.0000
  C   C164      1.0  0.48606  0.92539  0.42055  1.0000
  H   H158      1.0  0.25275  0.73890  0.40458  1.0000
  H   H159      1.0  0.44898  0.92069  0.44446  1.0000
  C   C165      1.0  0.26950  0.75951  0.40678  1.0000
  H   H160      1.0  0.28379  0.76222  0.37924  1.0000
  S   S59       1.0  0.46066  0.68236  0.03732  1.0000
  C   C166      1.0  0.30583  0.78802  0.45874  1.0000
  H   H161      1.0  0.50648  0.67776  0.43345  1.0000
  H   H162      1.0  0.50815  0.87525  0.18448  1.0000
  C   C167      1.0  0.50722  0.77806  0.24369  1.0000
  C   C168      1.0  0.31785  0.79460  0.50244  1.0000
  H   H163      1.0  0.33644  0.81285  0.50744  1.0000
  C   C169      1.0  0.44795  0.82186  0.84918  1.0000
  Fe  Fe29      1.0  0.40409  0.82050  0.98255  1.0000
  S   S60       1.0  0.39157  0.84566  0.94164  1.0000
  H   H164      1.0  0.44131  0.78305  0.83202  1.0000
  S   S61       1.0  0.44125  0.76515  0.92757  1.0000
  S   S62       1.0  0.38633  0.77726  0.96935  1.0000
  S   S63       1.0  0.44576  0.82837  0.98571  1.0000
  Fe  Fe30      1.0  0.37463  0.85921  0.67287  1.0000
  S   S64       1.0  0.34460  0.87201  0.68250  1.0000
  S   S65       1.0  0.38649  0.83675  0.72304  1.0000
  Fe  Fe31      1.0  0.38010  0.87347  0.57049  1.0000
  S   S66       1.0  0.35043  0.88743  0.57241  1.0000
  H   H165      1.0  0.35159  0.94872  0.57828  1.0000
  Fe  Fe32      1.0  0.37168  0.90760  0.63857  1.0000
  S   S67       1.0  0.38178  0.94874  0.66471  1.0000
  Fe  Fe33      1.0  0.32634  0.85079  0.61538  1.0000
  S   S68       1.0  0.28253  0.81924  0.61313  1.0000
  S   S69       1.0  0.40288  0.89580  0.63343  1.0000
  S   S70       1.0  0.35486  0.83600  0.60884  1.0000
  C   C170      1.0  0.40277  0.98110  0.64185  1.0000
  C   C171      1.0  0.41156  0.98535  0.59602  1.0000
  C   C172      1.0  0.46612  0.85460  0.52307  1.0000
  H   H166      1.0  0.40647  0.96863  0.57376  1.0000
  H   H167      1.0  0.27017  0.85486  0.66638  1.0000
  C   C173      1.0  0.45410  0.86579  0.86570  1.0000
  C   C174      1.0  0.26253  0.80019  0.56581  1.0000
  H   H168      1.0  0.45917  0.91843  0.52713  1.0000
  H   H169      1.0  0.30770  0.78127  0.89689  1.0000
  C   C175      1.0  0.49576  0.76610  0.55930  1.0000
  C   C176      1.0  0.45342  0.85746  0.56171  1.0000
  C   C177      1.0  0.29906  0.89541  0.68122  1.0000
  H   H170      1.0  0.33381  0.81073  0.92230  1.0000
  H   H171      1.0  0.46076  0.85732  0.59613  1.0000
  H   H172      1.0  0.42218  0.86377  0.58594  1.0000
  C   C178      1.0  0.38749  0.84173  0.88109  1.0000
  C   C179      1.0  0.38558  0.86092  0.85445  1.0000
  C   C180      1.0  0.38397  0.85907  0.80583  1.0000
  C   C181      1.0  0.38397  0.83781  0.78373  1.0000
  C   C182      1.0  0.38464  0.81802  0.81061  1.0000
  C   C183      1.0  0.38667  0.82008  0.85904  1.0000
  H   H173      1.0  0.38608  0.87768  0.87134  1.0000
  H   H174      1.0  0.38350  0.87446  0.78545  1.0000
  H   H175      1.0  0.38442  0.80141  0.79372  1.0000
  H   H176      1.0  0.38800  0.80511  0.87915  1.0000
  H   H177      1.0  0.34402  0.96559  0.62184  1.0000
  C   C184      1.0  0.44043  0.71791  0.93663  1.0000
  H   H178      1.0  0.33848  0.78284  0.91216  1.0000
  N   N15       1.0  0.31428  0.77865  0.96942  1.0000
  H   H179      1.0  0.43139  0.71319  0.90263  1.0000
  C   C185      1.0  0.26690  0.81008  0.52058  1.0000
  C   C186      1.0  0.28983  0.75694  0.97538  1.0000
  C   C187      1.0  0.29770  0.70369  0.98198  1.0000
  C   C188      1.0  0.24079  0.77492  0.57433  1.0000
  H   H180      1.0  0.29698  0.70533  0.94474  1.0000
  C   C189      1.0  0.43832  0.80371  0.77205  1.0000
  H   H181      1.0  0.50089  0.91981  0.54906  1.0000
  H   H182      1.0  0.44557  0.87799  0.85294  1.0000
  H   H183      1.0  0.43827  0.68020  0.94582  1.0000
  C   C190      1.0  0.22391  0.75946  0.53803  1.0000
  H   H184      1.0  0.43353  0.78756  0.74836  1.0000
  C   C191      1.0  0.43987  0.82703  0.75595  1.0000
  H   H185      1.0  0.31406  0.78297  0.57423  1.0000
  C   C192      1.0  0.28360  0.87854  0.60448  1.0000
  C   C193      1.0  0.33511  0.94987  0.59504  1.0000
  C   C194      1.0  0.30073  0.90363  0.58644  1.0000
  H   H186      1.0  0.33806  0.73455  0.98754  1.0000
  C   C195      1.0  0.44254  0.80112  0.81891  1.0000
  C   C196      1.0  0.45572  0.70519  0.00527  1.0000
  Fe  Fe34      1.0  0.42749  0.78451  0.97859  1.0000
  H   H187      1.0  0.30172  0.90648  0.54924  1.0000
  H   H188      1.0  0.27726  0.74698  0.94585  1.0000
  N   N16       1.0  0.44884  0.84444  0.83328  1.0000
  C   C197      1.0  0.32393  0.78877  0.92285  1.0000
  H   H189      1.0  0.27150  0.86209  0.58167  1.0000
  C   C198      1.0  0.50513  0.69252  0.92834  1.0000
  C   C199      1.0  0.28284  0.87445  0.65217  1.0000
  H   H190      1.0  0.23699  0.76720  0.60928  1.0000
  C   C200      1.0  0.31590  0.92026  0.66204  1.0000
  C   C201      1.0  0.44764  0.74242  0.95665  1.0000
  C   C202      1.0  0.30544  0.77778  0.53984  1.0000
  C   C203      1.0  0.33052  0.79032  0.00663  1.0000
  H   H191      1.0  0.49593  0.70357  0.94060  1.0000
  H   H192      1.0  0.44462  0.85767  0.89967  1.0000
  C   C204      1.0  0.43158  0.86112  0.55597  1.0000
  H   H193      1.0  0.32510  0.95602  0.56911  1.0000
  H   H194      1.0  0.20738  0.74003  0.54515  1.0000
  H   H195      1.0  0.45096  0.81950  0.88558  1.0000
  H   H196      1.0  0.29914  0.89227  0.71824  1.0000
  N   N17       1.0  0.31653  0.92412  0.61518  1.0000
  H   H197      1.0  0.32894  0.93627  0.68484  1.0000
  H   H198      1.0  0.44564  0.86508  0.77448  1.0000
  H   H199      1.0  0.43582  0.82903  0.71984  1.0000
  C   C205      1.0  0.44418  0.69917  0.96117  1.0000
  C   C206      1.0  0.44542  0.84742  0.78716  1.0000
  H   H200      1.0  0.47568  0.87858  0.87095  1.0000
  C   C207      1.0  0.50191  0.79195  0.54909  1.0000
  C   C208      1.0  0.32103  0.72025  0.00619  1.0000
  H   H201      1.0  0.47588  0.74985  0.55378  1.0000
  C   C209      1.0  0.27521  0.68523  0.00585  1.0000
  H   H202      1.0  0.38814  0.68054  0.97598  1.0000
  C   C210      1.0  0.40955  0.00325  0.67000  1.0000
  C   C211      1.0  0.45954  0.74854  0.00038  1.0000
  H   H203      1.0  0.40281  0.00029  0.70545  1.0000
  H   H204      1.0  0.35010  0.80721  0.00177  1.0000
  H   H205      1.0  0.48686  0.79610  0.53595  1.0000
  S   S71       1.0  0.49501  0.85274  0.53103  1.0000
  C   C212      1.0  0.28143  0.75461  0.53310  1.0000
  H   H206      1.0  0.27125  0.74187  0.56225  1.0000
  H   H207      1.0  0.46578  0.76769  0.01533  1.0000
  H   H208      1.0  0.55831  0.06155  0.44621  1.0000
  S   S72       1.0  0.63877  0.21648  0.05942  1.0000
  C   C213      1.0  0.69828  0.05845  0.33342  1.0000
  C   C214      1.0  0.61352  0.14334  0.49596  1.0000
  S   S73       1.0  0.58410  0.23581  0.05693  1.0000
  Fe  Fe35      1.0  0.61761  0.17205  0.05863  1.0000
  S   S74       1.0  0.61183  0.14611  0.12165  1.0000
  Fe  Fe36      1.0  0.64001  0.12399  0.40765  1.0000
  S   S75       1.0  0.66012  0.11563  0.46623  1.0000
  Fe  Fe37      1.0  0.60171  0.21234  0.02804  1.0000
  Fe  Fe38      1.0  0.68323  0.13569  0.33977  1.0000
  S   S76       1.0  0.70753  0.12831  0.39274  1.0000
  S   S77       1.0  0.69648  0.15051  0.26669  1.0000
  Fe  Fe39      1.0  0.66845  0.09262  0.41303  1.0000
  S   S78       1.0  0.66385  0.05226  0.43137  1.0000
  Fe  Fe40      1.0  0.69742  0.15189  0.44194  1.0000
  H   H209      1.0  0.63675  0.31025  0.03611  1.0000
  S   S79       1.0  0.64554  0.09856  0.35617  1.0000
  S   S80       1.0  0.67591  0.16154  0.38710  1.0000
  H   H210      1.0  0.57995  0.13362  0.32579  1.0000
  S   S81       1.0  0.60059  0.12182  0.40886  1.0000
  H   H211      1.0  0.67069  0.18447  0.29381  1.0000
  C   C215      1.0  0.53715  0.06904  0.49972  1.0000
  C   C216      1.0  0.71200  0.26304  0.03102  1.0000
  C   C217      1.0  0.75280  0.30521  0.03630  1.0000
  H   H212      1.0  0.57936  0.31638  0.03345  1.0000
  H   H213      1.0  0.67376  0.09215  0.24676  1.0000
  H   H214      1.0  0.70450  0.04919  0.35952  1.0000
  H   H215      1.0  0.61615  0.03252  0.37358  1.0000
  C   C218      1.0  0.63743  0.01994  0.41824  1.0000
  C   C219      1.0  0.77606  0.20530  0.48858  1.0000
  H   H216      1.0  0.63562  0.04686  0.23055  1.0000
  N   N18       1.0  0.66410  0.05686  0.28443  1.0000
  C   C220      1.0  0.57067  0.13311  0.46619  1.0000
  C   C221      1.0  0.63609  0.14687  0.15972  1.0000
  C   C222      1.0  0.66310  0.16391  0.15304  1.0000
  C   C223      1.0  0.68150  0.16448  0.18556  1.0000
  C   C224      1.0  0.67301  0.14856  0.22547  1.0000
  C   C225      1.0  0.64601  0.13165  0.23219  1.0000
  C   C226      1.0  0.62770  0.13058  0.19917  1.0000
  H   H217      1.0  0.66980  0.17651  0.12277  1.0000
  H   H218      1.0  0.70238  0.17757  0.18002  1.0000
  H   H219      1.0  0.63916  0.11931  0.26270  1.0000
  H   H220      1.0  0.60684  0.11738  0.20461  1.0000
  H   H221      1.0  0.67306  0.20201  0.24187  1.0000
  H   H222      1.0  0.63243  0.14455  0.49131  1.0000
  H   H223      1.0  0.62494  0.04984  0.28774  1.0000
  C   C227      1.0  0.71534  0.08430  0.31908  1.0000
  H   H224      1.0  0.57375  0.27764  0.07860  1.0000
  H   H225      1.0  0.83715  0.32620  0.47764  1.0000
  C   C228      1.0  0.73240  0.28279  0.05765  1.0000
  H   H226      1.0  0.58628  0.16700  0.19009  1.0000
  H   H227      1.0  0.73235  0.28071  0.09490  1.0000
  C   C229      1.0  0.59489  0.13412  0.46011  1.0000
  H   H228      1.0  0.71951  0.11660  0.27639  1.0000
  H   H229      1.0  0.62745  0.02123  0.27260  1.0000
  C   C230      1.0  0.66268  0.19586  0.27564  1.0000
  H   H230      1.0  0.55868  0.13613  0.25233  1.0000
  S   S82       1.0  0.77802  0.32965  0.07049  1.0000
  H   H231      1.0  0.83022  0.28571  0.43882  1.0000
  H   H232      1.0  0.62814  0.16142  0.33575  1.0000
  H   H233      1.0  0.81841  0.22265  0.48366  1.0000
  C   C231      1.0  0.68064  0.08231  0.27046  1.0000
  H   H234      1.0  0.66733  0.21368  0.29619  1.0000
  H   H235      1.0  0.76614  0.28943  0.50003  1.0000
  C   C232      1.0  0.59170  0.14710  0.29842  1.0000
  H   H236      1.0  0.54580  0.13905  0.51320  1.0000
  H   H237      1.0  0.55628  0.12619  0.43841  1.0000
  H   H238      1.0  0.63428  0.19465  0.20152  1.0000
  C   C233      1.0  0.70656  0.09631  0.28720  1.0000
  C   C234      1.0  0.63667  0.04300  0.26800  1.0000
  H   H239      1.0  0.77184  0.19020  0.46306  1.0000
  C   C235      1.0  0.80248  0.22379  0.50033  1.0000
  C   C236      1.0  0.57977  0.14862  0.25740  1.0000
  S   S83       1.0  0.72153  0.18586  0.49291  1.0000
  N   N19       1.0  0.63407  0.17957  0.26920  1.0000
  C   C237      1.0  0.62244  0.18169  0.22935  1.0000
  C   C238      1.0  0.61903  0.16288  0.30384  1.0000
  C   C239      1.0  0.59518  0.16610  0.22269  1.0000
  C   C240      1.0  0.55864  0.06769  0.48169  1.0000
  H   H240      1.0  0.54014  0.31959  0.20372  1.0000
  H   H241      1.0  0.69646  0.24571  0.04771  1.0000
  C   C241      1.0  0.65601  0.32287  0.02128  1.0000
  H   H242      1.0  0.68048  0.28775  0.05806  1.0000
  C   C242      1.0  0.58088  0.28048  0.04339  1.0000
  H   H243      1.0  0.65939  0.02497  0.32768  1.0000
  H   H244      1.0  0.73512  0.09521  0.33347  1.0000
  C   C243      1.0  0.67260  0.04490  0.31554  1.0000
  C   C244      1.0  0.75522  0.20672  0.50937  1.0000
  C   C245      1.0  0.61691  0.01576  0.38795  1.0000
  C   C246      1.0  0.80920  0.27869  0.44093  1.0000
  H   H245      1.0  0.75065  0.22753  0.40411  1.0000
  C   C247      1.0  0.58111  0.07558  0.50899  1.0000
  S   S84       1.0  0.57940  0.16819  0.03256  1.0000
  C   C248      1.0  0.79163  0.25620  0.41588  1.0000
  H   H246      1.0  0.79897  0.24609  0.39442  1.0000
  C   C249      1.0  0.81876  0.31356  0.49727  1.0000
  N   N20       1.0  0.80001  0.29085  0.46963  1.0000
  C   C250      1.0  0.76452  0.24582  0.42123  1.0000
  C   C251      1.0  0.58716  0.26244  0.02363  1.0000
  H   H247      1.0  0.59825  0.07552  0.49482  1.0000
  C   C252      1.0  0.77345  0.28064  0.47545  1.0000
  C   C253      1.0  0.75532  0.25803  0.45127  1.0000
  H   H248      1.0  0.64624  0.27616  0.04540  1.0000
  C   C254      1.0  0.66658  0.28723  0.03110  1.0000
  C   C255      1.0  0.53631  0.33571  0.19786  1.0000
  H   H249      1.0  0.51721  0.24091  0.46545  1.0000
  H   H250      1.0  0.81044  0.32624  0.50770  1.0000
  H   H251      1.0  0.73429  0.24919  0.45748  1.0000
  C   C256      1.0  0.56465  0.14029  0.50867  1.0000
  C   C257      1.0  0.58420  0.30250  0.01798  1.0000
  H   H252      1.0  0.51993  0.06333  0.47803  1.0000
  S   S85       1.0  0.50935  0.32068  0.28025  1.0000
  H   H253      1.0  0.50933  0.27879  0.45475  1.0000
  N   N21       1.0  0.67376  0.31418  0.01709  1.0000
  H   H254      1.0  0.63171  0.18782  0.86156  1.0000
  H   H255      1.0  0.71252  0.32366  0.99668  1.0000
  H   H256      1.0  0.52301  0.14681  0.97094  1.0000
  Fe  Fe41      1.0  0.59445  0.16915  0.96102  1.0000
  S   S86       1.0  0.56918  0.14134  0.90400  1.0000
  S   S87       1.0  0.61374  0.21299  0.95449  1.0000
  C   C258      1.0  0.60353  0.20768  0.77884  1.0000
  S   S88       1.0  0.88759  0.31381  0.65104  1.0000
  Fe  Fe42      1.0  0.85919  0.30453  0.59064  1.0000
  H   H257      1.0  0.59948  0.09141  0.57495  1.0000
  S   S89       1.0  0.83352  0.31674  0.62796  1.0000
  S   S90       1.0  0.63096  0.16924  0.98681  1.0000
  C   C259      1.0  0.82222  0.29371  0.92430  1.0000
  C   C260      1.0  0.52624  0.16221  0.79254  1.0000
  S   S91       1.0  0.84217  0.26837  0.54277  1.0000
  C   C261      1.0  0.51934  0.16195  0.95665  1.0000
  C   C262      1.0  0.59484  0.16412  0.76348  1.0000
  H   H258      1.0  0.54485  0.19134  0.00631  1.0000
  C   C263      1.0  0.73277  0.28773  0.96145  1.0000
  Fe  Fe43      1.0  0.53351  0.14874  0.60719  1.0000
  S   S92       1.0  0.57416  0.15372  0.60071  1.0000
  H   H259      1.0  0.73303  0.28959  0.92415  1.0000
  N   N22       1.0  0.53823  0.07835  0.54350  1.0000
  C   C264      1.0  0.55400  0.15049  0.86028  1.0000
  C   C265      1.0  0.55536  0.17512  0.86015  1.0000
  C   C266      1.0  0.54139  0.18088  0.82649  1.0000
  Fe  Fe44      1.0  0.64920  0.21349  0.98577  1.0000
  C   C267      1.0  0.78763  0.24503  0.55427  1.0000
  C   C268      1.0  0.53949  0.13216  0.82550  1.0000
  H   H260      1.0  0.56657  0.18945  0.88663  1.0000
  N   N23       1.0  0.84731  0.31002  0.90866  1.0000
  N   N24       1.0  0.59170  0.18525  0.75252  1.0000
  H   H261      1.0  0.56566  0.19528  0.71704  1.0000
  H   H262      1.0  0.58957  0.19263  0.68098  1.0000
  C   C269      1.0  0.75301  0.30759  0.98811  1.0000
  H   H263      1.0  0.76897  0.32441  0.97124  1.0000
  C   C270      1.0  0.59339  0.30626  0.97248  1.0000
  H   H264      1.0  0.60601  0.29067  0.91707  1.0000
  H   H265      1.0  0.84199  0.28958  0.84488  1.0000
  C   C271      1.0  0.59898  0.28784  0.95234  1.0000
  C   C272      1.0  0.62098  0.18734  0.83036  1.0000
  C   C273      1.0  0.82774  0.32604  0.98161  1.0000
  C   C274      1.0  0.69833  0.33045  0.99936  1.0000
  C   C275      1.0  0.58181  0.08452  0.55393  1.0000
  H   H266      1.0  0.66738  0.27602  0.00074  1.0000
  H   H267      1.0  0.82405  0.30633  0.52888  1.0000
  H   H268      1.0  0.81285  0.31992  0.83282  1.0000
  H   H269      1.0  0.74533  0.22768  0.55930  1.0000
  C   C276      1.0  0.57639  0.18424  0.71140  1.0000
  H   H270      1.0  0.62158  0.15677  0.56668  1.0000
  S   S93       1.0  0.68669  0.24141  0.94869  1.0000
  C   C277      1.0  0.60740  0.15035  0.53859  1.0000
  C   C278      1.0  0.61827  0.20905  0.81822  1.0000
  H   H271      1.0  0.53777  0.22657  0.97293  1.0000
  H   H272      1.0  0.52273  0.09795  0.58345  1.0000
  C   C279      1.0  0.85771  0.30134  0.87068  1.0000
  H   H273      1.0  0.61081  0.14757  0.81262  1.0000
  H   H274      1.0  0.62716  0.22660  0.83972  1.0000
  Fe  Fe45      1.0  0.86290  0.32866  0.68616  1.0000
  C   C280      1.0  0.51578  0.08001  0.56181  1.0000
  C   C281      1.0  0.60931  0.16475  0.80277  1.0000
  H   H275      1.0  0.60067  0.25222  0.96222  1.0000
  H   H276      1.0  0.53834  0.11307  0.82539  1.0000
  S   S94       1.0  0.52843  0.18235  0.63060  1.0000
  C   C282      1.0  0.81202  0.30151  0.96086  1.0000
  H   H277      1.0  0.58556  0.14639  0.74248  1.0000
  C   C283      1.0  0.58274  0.14836  0.54529  1.0000
  S   S95       1.0  0.84358  0.31849  0.75703  1.0000
  H   H278      1.0  0.80063  0.32792  0.72468  1.0000
  H   H279      1.0  0.54192  0.19968  0.82727  1.0000
  H   H280      1.0  0.60115  0.22446  0.76992  1.0000
  H   H281      1.0  0.56111  0.16360  0.70304  1.0000
  C   C284      1.0  0.59607  0.26609  0.97797  1.0000
  C   C285      1.0  0.71213  0.26553  0.98288  1.0000
  C   C286      1.0  0.56003  0.08572  0.57079  1.0000
  H   H282      1.0  0.87332  0.31848  0.85127  1.0000
  H   H283      1.0  0.86606  0.28922  0.88437  1.0000
  H   H284      1.0  0.79180  0.26021  0.57958  1.0000
  C   C287      1.0  0.53196  0.18713  0.97656  1.0000
  C   C288      1.0  0.52580  0.13805  0.79157  1.0000
  C   C289      1.0  0.52792  0.20693  0.95782  1.0000
  H   H285      1.0  0.79202  0.28868  0.97301  1.0000
  C   C290      1.0  0.76124  0.22648  0.54273  1.0000
  H   H286      1.0  0.80985  0.27463  0.90823  1.0000
  H   H287      1.0  0.56104  0.09357  0.60518  1.0000
  C   C291      1.0  0.86299  0.33397  0.92927  1.0000
  C   C292      1.0  0.80848  0.24398  0.53277  1.0000
  H   H288      1.0  0.78583  0.33430  0.77307  1.0000
  H   H289      1.0  0.51395  0.12339  0.76595  1.0000
  H   H290      1.0  0.81996  0.33232  0.00983  1.0000
  C   C293      1.0  0.51121  0.20131  0.91966  1.0000
  S   S96       1.0  0.59891  0.33417  0.94060  1.0000
  C   C294      1.0  0.83078  0.33889  0.83131  1.0000
  S   S97       1.0  0.79891  0.40408  0.07119  1.0000
  C   C295      1.0  0.89376  0.42311  0.47376  1.0000
  H   H291      1.0  0.88311  0.38749  0.51202  1.0000
  Fe  Fe46      1.0  0.84281  0.42623  0.06306  1.0000
  S   S98       1.0  0.87236  0.45385  0.11613  1.0000
  H   H292      1.0  0.58026  0.50857  0.45957  1.0000
  S   S99       1.0  0.67823  0.42149  0.08936  1.0000
  Fe  Fe47      1.0  0.58514  0.39466  0.05296  1.0000
  S   S100      1.0  0.55486  0.39409  0.10237  1.0000
  S   S101      1.0  0.60752  0.37279  0.06046  1.0000
  C   C296      1.0  0.77409  0.48807  0.44635  1.0000
  Fe  Fe48      1.0  0.87128  0.51878  0.34751  1.0000
  S   S102      1.0  0.88175  0.55592  0.38721  1.0000
  S   S103      1.0  0.84296  0.50256  0.28647  1.0000
  Fe  Fe49      1.0  0.89772  0.50089  0.41856  1.0000
  S   S104      1.0  0.90983  0.53588  0.46478  1.0000
  S   S105      1.0  0.52209  0.34284  0.40528  1.0000
  Fe  Fe50      1.0  0.86888  0.52992  0.45075  1.0000
  C   C297      1.0  0.81366  0.55283  0.49014  1.0000
  Fe  Fe51      1.0  0.92194  0.55910  0.39808  1.0000
  S   S106      1.0  0.96113  0.59712  0.38449  1.0000
  S   S107      1.0  0.85636  0.49277  0.41007  1.0000
  S   S108      1.0  0.91190  0.52407  0.35279  1.0000
  H   H293      1.0  0.62358  0.40886  0.14982  1.0000
  C   C298      1.0  0.80580  0.51384  0.38604  1.0000
  H   H294      1.0  0.54265  0.46276  0.46269  1.0000
  H   H295      1.0  0.72144  0.49129  0.48798  1.0000
  C   C299      1.0  0.57765  0.49623  0.48950  1.0000
  H   H296      1.0  0.82812  0.56293  0.46334  1.0000
  H   H297      1.0  0.94590  0.50272  0.50880  1.0000
  C   C300      1.0  0.78161  0.48272  0.08182  1.0000
  C   C301      1.0  0.99393  0.60517  0.40029  1.0000
  C   C302      1.0  0.51616  0.36122  0.22182  1.0000
  H   H298      1.0  0.77603  0.47932  0.04455  1.0000
  H   H299      1.0  0.98299  0.56999  0.44005  1.0000
  C   C303      1.0  0.76802  0.51978  0.40438  1.0000
  H   H300      1.0  0.77473  0.53541  0.37877  1.0000
  C   C304      1.0  0.79341  0.55896  0.49756  1.0000
  C   C305      1.0  0.88915  0.44426  0.46699  1.0000
  H   H301      1.0  0.60511  0.46534  0.44272  1.0000
  C   C306      1.0  0.74143  0.41666  0.04665  1.0000
  C   C307      1.0  0.86389  0.51364  0.10162  1.0000
  S   S109      1.0  0.90852  0.46909  0.42723  1.0000
  C   C308      1.0  0.57160  0.40597  0.49740  1.0000
  H   H302      1.0  0.78591  0.47890  0.45431  1.0000
  H   H303      1.0  0.81405  0.47477  0.02821  1.0000
  C   C309      1.0  0.54170  0.37264  0.15042  1.0000
  C   C310      1.0  0.82396  0.48758  0.05752  1.0000
  H   H304      1.0  0.74657  0.46778  0.50173  1.0000
  H   H305      1.0  0.57770  0.41044  0.32647  1.0000
  C   C311      1.0  0.52624  0.37710  0.18212  1.0000
  C   C312      1.0  0.50975  0.61081  0.45537  1.0000
  H   H306      1.0  0.52208  0.39298  0.17596  1.0000
  C   C313      1.0  0.60038  0.45021  0.46868  1.0000
  H   H307      1.0  0.77501  0.49634  0.09495  1.0000
  C   C314      1.0  0.86345  0.46680  0.16340  1.0000
  C   C315      1.0  0.83714  0.45913  0.17287  1.0000
  C   C316      1.0  0.83102  0.47010  0.21089  1.0000
  C   C317      1.0  0.85110  0.48847  0.23995  1.0000
  C   C318      1.0  0.87732  0.49584  0.23075  1.0000
  C   C319      1.0  0.88346  0.48522  0.19241  1.0000
  H   H308      1.0  0.82157  0.44498  0.15074  1.0000
  H   H309      1.0  0.81068  0.46435  0.21778  1.0000
  H   H310      1.0  0.89297  0.51022  0.25252  1.0000
  H   H311      1.0  0.90387  0.49136  0.18515  1.0000
  C   C320      1.0  0.61674  0.45573  0.50758  1.0000
  C   C321      1.0  0.72063  0.41483  0.07342  1.0000
  C   C322      1.0  0.54670  0.35184  0.15835  1.0000
  H   H312      1.0  0.82330  0.52576  0.40839  1.0000
  H   H313      1.0  0.71670  0.40557  0.10719  1.0000
  C   C323      1.0  0.75193  0.48176  0.47341  1.0000
  N   N25       1.0  0.86785  0.44025  0.29624  1.0000
  C   C324      1.0  0.85555  0.42497  0.25834  1.0000
  C   C325      1.0  0.89480  0.45481  0.29840  1.0000
  C   C326      1.0  0.87032  0.42330  0.22196  1.0000
  C   C327      1.0  0.91018  0.45384  0.26239  1.0000
  C   C328      1.0  0.89780  0.43797  0.22394  1.0000
  C   C329      1.0  0.85204  0.44237  0.33332  1.0000
  H   H314      1.0  0.83421  0.41442  0.25556  1.0000
  H   H315      1.0  0.90454  0.46753  0.32785  1.0000
  H   H316      1.0  0.86055  0.41174  0.19135  1.0000
  H   H317      1.0  0.93152  0.46571  0.26397  1.0000
  H   H318      1.0  0.90938  0.43763  0.19500  1.0000
  H   H319      1.0  0.84816  0.45879  0.32546  1.0000
  H   H320      1.0  0.83290  0.42379  0.33723  1.0000
  H   H321      1.0  0.86246  0.44630  0.36721  1.0000
  C   C330      1.0  0.99919  0.58848  0.42779  1.0000
  C   C331      1.0  0.73780  0.49492  0.46566  1.0000
  C   C332      1.0  0.82242  0.50909  0.12603  1.0000
  N   N26       1.0  0.78170  0.50668  0.41208  1.0000
  H   H322      1.0  0.80751  0.52553  0.35447  1.0000
  H   H323      1.0  0.75343  0.40883  0.05990  1.0000
  H   H324      1.0  0.85913  0.53113  0.16372  1.0000
  C   C333      1.0  0.86992  0.44581  0.49311  1.0000
  S   S110      1.0  0.55584  0.42055  0.41801  1.0000
  S   S111      1.0  0.83882  0.52339  0.50759  1.0000
  H   H325      1.0  0.80620  0.49588  0.37466  1.0000
  C   C334      1.0  0.55636  0.47037  0.49162  1.0000
  H   H326      1.0  0.81128  0.51317  0.15133  1.0000
  H   H327      1.0  0.55407  0.38679  0.49377  1.0000
  H   H328      1.0  0.58582  0.36884  0.27573  1.0000
  H   H329      1.0  0.55046  0.40564  0.28990  1.0000
  N   N27       1.0  0.58057  0.40126  0.25637  1.0000
  C   C335      1.0  0.59054  0.38461  0.25096  1.0000
  C   C336      1.0  0.58613  0.42086  0.22471  1.0000
  C   C337      1.0  0.60625  0.38715  0.21273  1.0000
  C   C338      1.0  0.60171  0.42391  0.18605  1.0000
  C   C339      1.0  0.61183  0.40694  0.18011  1.0000
  C   C340      1.0  0.56473  0.39870  0.29728  1.0000
  C   C341      1.0  0.84951  0.51943  0.13315  1.0000
  H   H330      1.0  0.57790  0.43380  0.22849  1.0000
  H   H331      1.0  0.90869  0.42192  0.45367  1.0000
  H   H332      1.0  0.60510  0.43869  0.15990  1.0000
  H   H333      1.0  0.86643  0.46223  0.48834  1.0000
  H   H334      1.0  0.52472  0.60894  0.47479  1.0000
  C   C342      1.0  0.57758  0.42551  0.46393  1.0000
  Fe  Fe52      1.0  0.64304  0.41194  0.04468  1.0000
  H   H335      1.0  0.79239  0.57366  0.47601  1.0000
  C   C343      1.0  0.70455  0.42446  0.05617  1.0000
  H   H336      1.0  0.73577  0.52532  0.42650  1.0000
  C   C344      1.0  0.74585  0.51406  0.43098  1.0000
  H   H337      1.0  0.77079  0.46358  0.10050  1.0000
  H   H338      1.0  0.52382  0.41935  0.49645  1.0000
  H   H339      1.0  0.61360  0.37354  0.20785  1.0000
  Fe  Fe53      1.0  0.52012  0.38007  0.41207  1.0000
  N   N28       1.0  0.81011  0.49379  0.08813  1.0000
  H   H340      1.0  0.55283  0.37770  0.30832  1.0000
  C   C345      1.0  0.87938  0.40367  0.50699  1.0000
  H   H341      1.0  0.86203  0.49234  0.03987  1.0000
  S   S112      1.0  0.84505  0.39116  0.03694  1.0000
  C   C346      1.0  0.52121  0.34051  0.22996  1.0000
  C   C347      1.0  0.85107  0.49752  0.06371  1.0000
  Fe  Fe54      1.0  0.80080  0.37012  0.03880  1.0000
  H   H342      1.0  0.88475  0.52083  0.10742  1.0000
  H   H343      1.0  0.55843  0.34812  0.13396  1.0000
  H   H344      1.0  0.52269  0.65038  0.47861  1.0000
  H   H345      1.0  0.63410  0.47490  0.51113  1.0000
  S   S113      1.0  0.62119  0.43450  0.04245  1.0000
  H   H346      1.0  0.98878  0.50782  0.48365  1.0000
  C   C348      1.0  0.97594  0.49153  0.50612  1.0000
  H   H347      1.0  0.00172  0.47495  0.50941  1.0000
  H   H348      1.0  0.00577  0.43356  0.60225  1.0000
  S   S114      1.0  0.77306  0.43236  0.96950  1.0000
  Fe  Fe55      1.0  0.84012  0.40361  0.96554  1.0000
  S   S115      1.0  0.86648  0.40715  0.90556  1.0000
  S   S116      1.0  0.79596  0.38002  0.96550  1.0000
  C   C349      1.0  0.85312  0.40430  0.70074  1.0000
  S   S117      1.0  0.64137  0.40597  0.96789  1.0000
  H   H349      1.0  0.69022  0.55354  0.80878  1.0000
  H   H350      1.0  0.86587  0.41172  0.67074  1.0000
  Fe  Fe56      1.0  0.61607  0.42491  0.96634  1.0000
  S   S118      1.0  0.61357  0.44967  0.90761  1.0000
  S   S119      1.0  0.51977  0.66649  0.74257  1.0000
  C   C350      1.0  0.83545  0.35829  0.86461  1.0000
  Fe  Fe57      1.0  0.86051  0.35706  0.59977  1.0000
  C   C351      1.0  0.73064  0.43857  0.98609  1.0000
  H   H351      1.0  0.66392  0.58417  0.69795  1.0000
  H   H352      1.0  0.65809  0.45009  0.68119  1.0000
  C   C352      1.0  0.85760  0.42042  0.73916  1.0000
  H   H353      1.0  0.79742  0.50663  0.57446  1.0000
  S   S120      1.0  0.88780  0.37008  0.66064  1.0000
  Fe  Fe58      1.0  0.65898  0.48684  0.60437  1.0000
  S   S121      1.0  0.67152  0.52153  0.55695  1.0000
  C   C353      1.0  0.79640  0.52129  0.55283  1.0000
  Fe  Fe59      1.0  0.69119  0.52076  0.68491  1.0000
  S   S122      1.0  0.70657  0.55870  0.64398  1.0000
  S   S123      1.0  0.70182  0.51704  0.75921  1.0000
  Fe  Fe60      1.0  0.66470  0.54172  0.61732  1.0000
  S   S124      1.0  0.63319  0.55427  0.61268  1.0000
  Fe  Fe61      1.0  0.71241  0.53567  0.58654  1.0000
  H   H354      1.0  0.61230  0.52599  0.52508  1.0000
  S   S125      1.0  0.64953  0.50564  0.66264  1.0000
  S   S126      1.0  0.69988  0.49924  0.62965  1.0000
  C   C354      1.0  0.61036  0.43656  0.54190  1.0000
  H   H355      1.0  0.97155  0.43746  0.55938  1.0000
  C   C355      1.0  0.65380  0.42922  0.79253  1.0000
  Fe  Fe62      1.0  0.57658  0.65344  0.62108  1.0000
  S   S127      1.0  0.61638  0.65465  0.62561  1.0000
  S   S128      1.0  0.54204  0.62375  0.66257  1.0000
  C   C356      1.0  0.74657  0.42871  0.00308  1.0000
  C   C357      1.0  0.53022  0.42798  0.53160  1.0000
  H   H356      1.0  0.66641  0.43152  0.82193  1.0000
  S   S129      1.0  0.84176  0.44065  0.99136  1.0000
  H   H357      1.0  0.61085  0.53956  0.80590  1.0000
  C   C358      1.0  0.62955  0.58288  0.61406  1.0000
  C   C359      1.0  0.65088  0.60843  0.62031  1.0000
  C   C360      1.0  0.64653  0.63014  0.62364  1.0000
  C   C361      1.0  0.62090  0.62667  0.62066  1.0000
  C   C362      1.0  0.59962  0.60111  0.61428  1.0000
  C   C363      1.0  0.60395  0.57942  0.61099  1.0000
  H   H358      1.0  0.67072  0.61155  0.62246  1.0000
  H   H359      1.0  0.66315  0.64983  0.62837  1.0000
  H   H360      1.0  0.57980  0.59806  0.61190  1.0000
  H   H361      1.0  0.58724  0.55980  0.60627  1.0000
  C   C364      1.0  0.61497  0.56643  0.72816  1.0000
  H   H362      1.0  0.80678  0.37710  0.80587  1.0000
  C   C365      1.0  0.93552  0.46765  0.54928  1.0000
  C   C366      1.0  0.67491  0.55628  0.79258  1.0000
  H   H363      1.0  0.90650  0.42679  0.60024  1.0000
  H   H364      1.0  0.61046  0.37991  0.83828  1.0000
  H   H365      1.0  0.91675  0.46552  0.55966  1.0000
  C   C367      1.0  0.70953  0.43626  0.01243  1.0000
  H   H366      1.0  0.62336  0.58646  0.71245  1.0000
  C   C368      1.0  0.70545  0.35601  0.98440  1.0000
  C   C369      1.0  0.98650  0.39202  0.61905  1.0000
  C   C370      1.0  0.68714  0.36470  0.98739  1.0000
  Fe  Fe63      1.0  0.53363  0.65676  0.67593  1.0000
  C   C371      1.0  0.81963  0.38460  0.77604  1.0000
  H   H367      1.0  0.69739  0.44406  0.99923  1.0000
  H   H368      1.0  0.56856  0.45155  0.59467  1.0000
  H   H369      1.0  0.62833  0.41056  0.86976  1.0000
  N   N29       1.0  0.94265  0.44953  0.56282  1.0000
  H   H370      1.0  0.88279  0.34708  0.91663  1.0000
  C   C372      1.0  0.63852  0.46766  0.86671  1.0000
  C   C373      1.0  0.66505  0.47572  0.87535  1.0000
  C   C374      1.0  0.68433  0.49094  0.84218  1.0000
  C   C375      1.0  0.67713  0.49761  0.79984  1.0000
  C   C376      1.0  0.65052  0.48905  0.79102  1.0000
  C   C377      1.0  0.63138  0.47443  0.82451  1.0000
  H   H371      1.0  0.67077  0.47077  0.90796  1.0000
  H   H372      1.0  0.70490  0.49758  0.84937  1.0000
  H   H373      1.0  0.64469  0.49415  0.75886  1.0000
  H   H374      1.0  0.61088  0.46828  0.81768  1.0000
  C   C378      1.0  0.83207  0.37832  0.70120  1.0000
  C   C379      1.0  0.77602  0.52727  0.56000  1.0000
  C   C380      1.0  0.95199  0.48883  0.52058  1.0000
  H   H375      1.0  0.69218  0.38429  0.97539  1.0000
  H   H376      1.0  0.73462  0.44802  0.95246  1.0000
  C   C381      1.0  0.85898  0.38253  0.86363  1.0000
  C   C382      1.0  0.87732  0.38749  0.82844  1.0000
  C   C383      1.0  0.87241  0.36832  0.79465  1.0000
  N   N30       1.0  0.52794  0.66357  0.89670  1.0000
  C   C384      1.0  0.59566  0.50597  0.52613  1.0000
  H   H377      1.0  0.84429  0.42275  0.80756  1.0000
  H   H378      1.0  0.89556  0.40623  0.82748  1.0000
  H   H379      1.0  0.88693  0.37224  0.76819  1.0000
  H   H380      1.0  0.97408  0.35173  0.63744  1.0000
  H   H381      1.0  0.55978  0.65590  0.89846  1.0000
  H   H382      1.0  0.54366  0.65070  0.84269  1.0000
  S   S130      1.0  0.57813  0.38673  0.97657  1.0000
  N   N31       1.0  0.62693  0.41455  0.79639  1.0000
  C   C385      1.0  0.61106  0.41188  0.75935  1.0000
  C   C386      1.0  0.62204  0.42455  0.71734  1.0000
  N   N32       1.0  0.55324  0.45463  0.52908  1.0000
  C   C387      1.0  0.61500  0.40078  0.83984  1.0000
  H   H383      1.0  0.58979  0.40003  0.76228  1.0000
  H   H384      1.0  0.59965  0.56435  0.75307  1.0000
  H   H385      1.0  0.82884  0.36581  0.67143  1.0000
  N   N33       1.0  0.63568  0.56307  0.75069  1.0000
  C   C388      1.0  0.65996  0.57348  0.73047  1.0000
  C   C389      1.0  0.67998  0.57042  0.75129  1.0000
  H   H386      1.0  0.69927  0.57871  0.73536  1.0000
  H   H387      1.0  0.60543  0.55151  0.70029  1.0000
  Fe  Fe64      1.0  0.91099  0.35520  0.62092  1.0000
  H   H388      1.0  0.76156  0.51718  0.58680  1.0000
  H   H389      1.0  0.52770  0.62720  0.88794  1.0000
  H   H390      1.0  0.92027  0.40834  0.57498  1.0000
  S   S131      1.0  0.55414  0.64586  0.55402  1.0000
  C   C390      1.0  0.64988  0.54506  0.81226  1.0000
  H   H391      1.0  0.64561  0.53338  0.84373  1.0000
  C   C391      1.0  0.63033  0.54856  0.79059  1.0000
  H   H392      1.0  0.58311  0.39654  0.56272  1.0000
  H   H393      1.0  0.59660  0.40131  0.84723  1.0000
  H   H394      1.0  0.51361  0.42867  0.54864  1.0000
  C   C392      1.0  0.84073  0.41057  0.77707  1.0000
  C   C393      1.0  0.64938  0.43992  0.71340  1.0000
  C   C394      1.0  0.66542  0.44228  0.75113  1.0000
  H   H395      1.0  0.82113  0.35434  0.89147  1.0000
  H   H396      1.0  0.68668  0.45480  0.74870  1.0000
  Fe  Fe65      1.0  0.51929  0.61803  0.59659  1.0000
  S   S132      1.0  0.84297  0.38190  0.57680  1.0000
  N   N34       1.0  0.81585  0.36871  0.73874  1.0000
  S   S133      1.0  0.62930  0.44387  0.59281  1.0000
  H   H397      1.0  0.60953  0.42260  0.68792  1.0000
  C   C395      1.0  0.59226  0.48981  0.56420  1.0000
  C   C396      1.0  0.99077  0.37123  0.63169  1.0000
  H   H398      1.0  0.72500  0.36905  0.97059  1.0000
  S   S134      1.0  0.74737  0.55236  0.53614  1.0000
  Fe  Fe66      1.0  0.60387  0.36848  0.98321  1.0000
  C   C397      1.0  0.84928  0.34384  0.79631  1.0000
  H   H399      1.0  0.53496  0.41439  0.55113  1.0000
  Fe  Fe67      1.0  0.79785  0.41586  0.99754  1.0000
  C   C398      1.0  0.79385  0.34143  0.73789  1.0000
  C   C399      1.0  0.57078  0.46406  0.56520  1.0000
  H   H400      1.0  0.87413  0.44047  0.73968  1.0000
  H   H401      1.0  0.86567  0.36181  0.98089  1.0000
  H   H402      1.0  0.93550  0.42806  0.62560  1.0000
  H   H403      1.0  0.60631  0.49717  0.59259  1.0000
  C   C400      1.0  0.96607  0.45199  0.54877  1.0000
  C   C401      1.0  0.92530  0.42720  0.59247  1.0000
  S   S135      1.0  0.95425  0.38791  0.61106  1.0000
  S   S136      1.0  0.88447  0.34460  0.55802  1.0000
  H   H404      1.0  0.64800  0.35478  0.00884  1.0000
  C   C402      1.0  0.77420  0.54596  0.53202  1.0000
  C   C403      1.0  0.54050  0.64867  0.88078  1.0000
  H   H405      1.0  0.77783  0.34004  0.71511  1.0000
  H   H406      1.0  0.84071  0.42763  0.54665  1.0000
  H   H407      1.0  0.51040  0.61330  0.76241  1.0000
  C   C404      1.0  0.86034  0.40532  0.53351  1.0000
  C   C405      1.0  0.66233  0.34815  0.00619  1.0000
  C   C406      1.0  0.85544  0.42627  0.52621  1.0000
  C   C407      1.0  0.85340  0.34242  0.96575  1.0000
  C   C408      1.0  0.00862  0.41722  0.61171  1.0000
  C   C409      1.0  0.58800  0.41153  0.53642  1.0000
  H   H408      1.0  0.50897  0.63772  0.95381  1.0000
  C   C410      1.0  0.51278  0.65565  0.93577  1.0000
  C   C411      1.0  0.81511  0.53368  0.51742  1.0000
  C   C412      1.0  0.98313  0.47306  0.52039  1.0000
  C   C413      1.0  0.53216  0.74221  0.47996  1.0000
  S   S137      1.0  0.55946  0.85881  0.36111  1.0000
  H   H409      1.0  0.65372  0.00074  0.46003  1.0000
  H   H410      1.0  0.52941  0.77396  0.44592  1.0000
  S   S138      1.0  0.56042  0.87676  0.46873  1.0000
  Fe  Fe68      1.0  0.55852  0.89257  0.39836  1.0000
  S   S139      1.0  0.57409  0.93551  0.37427  1.0000
  Fe  Fe69      1.0  0.55729  0.84107  0.43228  1.0000
  S   S140      1.0  0.58044  0.82207  0.46197  1.0000
  C   C414      1.0  0.58319  0.78081  0.50413  1.0000
  C   C415      1.0  0.54177  0.76871  0.46615  1.0000
  C   C416      1.0  0.56744  0.78822  0.47795  1.0000
  C   C417      1.0  0.63791  0.99779  0.43672  1.0000
  H   H411      1.0  0.53379  0.82494  0.20089  1.0000
  H   H412      1.0  0.60316  0.79561  0.51313  1.0000
  C   C418      1.0  0.51762  0.81007  0.18044  1.0000
  C   C419      1.0  0.61833  0.97180  0.42487  1.0000
  C   C420      1.0  0.59824  0.96764  0.39358  1.0000
  C   C421      1.0  0.59766  0.98981  0.37536  1.0000
  H   H413      1.0  0.61923  0.95505  0.43897  1.0000
  H   H414      1.0  0.58223  0.98685  0.35112  1.0000
  C   C422      1.0  0.53958  0.92587  0.49367  1.0000
  C   C423      1.0  0.51256  0.81699  0.13667  1.0000
  H   H415      1.0  0.55014  0.92380  0.46360  1.0000
  H   H416      1.0  0.52388  0.92903  0.40755  1.0000
  N   N35       1.0  0.51482  0.92463  0.47968  1.0000
  S   S141      1.0  0.51404  0.87203  0.39784  1.0000
  H   H417      1.0  0.51239  0.72734  0.47010  1.0000
  Fe  Fe70      1.0  0.51513  0.83785  0.36536  1.0000
  C   C424      1.0  0.54776  0.73486  0.50669  1.0000
  H   H418      1.0  0.52437  0.83701  0.12370  1.0000
  Fe  Fe71      1.0  0.51628  0.85447  0.46542  1.0000
  H   H419      1.0  0.55287  0.94513  0.51042  1.0000
  S   S142      1.0  0.51326  0.81824  0.43369  1.0000
  H   H420      1.0  0.51418  0.86166  0.26329  1.0000
  H   H421      1.0  0.52088  0.79580  0.26422  1.0000
  H   H422      1.0  0.51605  0.76516  0.24008  1.0000
  C   C425      1.0  0.50977  0.92675  0.43400  1.0000
  S   S143      1.0  0.57011  0.68772  0.63938  1.0000
  H   H423      1.0  0.58574  0.74909  0.53895  1.0000
  H   H424      1.0  0.58866  0.82303  0.56988  1.0000
  C   C426      1.0  0.57407  0.82947  0.57742  1.0000
  Fe  Fe72      1.0  0.54455  0.67742  0.57527  1.0000
  C   C427      1.0  0.52781  0.81258  0.55526  1.0000
  H   H425      1.0  0.53244  0.83258  0.54684  1.0000
  H   H426      1.0  0.51100  0.74118  0.58360  1.0000
  H   H427      1.0  0.57687  0.83697  0.61339  1.0000
  H   H428      1.0  0.55628  0.77837  0.59462  1.0000
  N   N36       1.0  0.54706  0.80758  0.57092  1.0000
  C   C428      1.0  0.54103  0.78239  0.58227  1.0000
  C   C429      1.0  0.51538  0.76125  0.57628  1.0000
  S   S144      1.0  0.53423  0.70099  0.52289  1.0000
  C   C430      1.0  0.52069  0.70052  0.88863  1.0000
  H   H429      1.0  0.57850  0.84586  0.55274  1.0000
  H   H430      1.0  0.52349  0.71771  0.86931  1.0000
  C   C431      1.0  0.57335  0.75440  0.51889  1.0000
  H   H431      1.0  0.54378  0.69182  0.84185  1.0000
  C   C432      1.0  0.53223  0.68586  0.87342  1.0000
  H   H432      1.0  0.53557  0.90949  0.51806  1.0000
