data_image0
_chemical_formula_structural       FeCSHFeS2HCFeS2FeS2FeHFeS3H3FeS2FeSHFeSFeCSH2CH2CHCHC6H2CHC2H2CNSCHSHCHCHCH2C6H4C2HSC3HCHCNCS2NC2HC3HNCHCH2FeHSHC2H5SCHC3SCH2C3H2C2SHC2H4CHCHSCH2FeHSHSFeHSFeS2CFeS2FeS2FeHFeS3FeSHFeSHFeCFeS3NCSCFeC4H2C8H4CHCHC2SHC3H2SCHCH2C6H4CHSHCH6NC3FeC2H4C2SCHCHSCNC6H8NC6HCHS2HC2HCH2C2H4CHC2SHCNHCHFeS2FeS2FeCFeS3FeS2FeS2FeSFeS3H2CFeS2HFeSH2CH2CNH4C6H4C3H4CH2CH2C6H4C6H6C2HNC2HC3NH2CSCH5CHC3HC2H3SNHC2HC5HNH4C3H4C3HNC5SHCSC2SH2C3H2CH2SC2FeC3HCHFeCNH2NHSH2C2FeS2HCSHCFeS2H2FeS2FeS2FeSFeS3FeS2FeS2FeSFeHS2CH2C2H2C7H4CH2CHNC6H3CH4C7H4C2HCHCHFeCH2NC6H9NSFeSCHC2H3CH3CHCHC2H3C4HCH2NCFeC3HCHNHCHC3HNC2HCSHCH3SHSFeSFeCFeS2FeSHFeSHFeSFeS3CH2C6H2SHC6H5C2HNC6NH2C3H2C4FeHFeCHC2H2C4SCNHC2HCSHCHC3H4CSC2H3C2HCHCHCHCHC5H4CFeH6C2HCHC2HSH2CH2CHSHCHCN2H4C2HCHC2HC2H2FeSCFeS2FeSFeS3FeSFeS2FeCS2C3H2C6H4CHC7H3SC4H3CH2SCH2C2HC4HC3HC3H3CFeCH4C2H2CNC2HC3H4FeH5CHCHNH4SCH2CNC4HSCH2CNCFeH2CH2CS2HC2HCSH2CH2SHCH2CH2CH2CHCHCHCHCHCH2NCH2SHCH3SH5FeC2H6CHCH3C4NCH2CSC2H3CHSCHSNCH2C3H2SHSH4C6FeH2NFeH3CH2C2SHC2H2NC5H2CH2CSH6SHCHC2FeSCHCHC2H3CH2C5SH2FeCHC2H2NH4NSNH2CHCSC4SCH5FeHC4FeH2CHSFeC2S2HFeSCFeSCFeSFeS3FeS2FeS2FeSFeS3FeS2CHFeC8H4CHCHCHC3H6CH2C6H4C4HNHC3HNC6H8CHSCH2NC2H2C2FeH2CHC3HSCSH2NC3HCH3CHC4H2C2H4C2HCH2SHCHSHCHCHFeS2C2FeS2FeS2FeSFeS3FeSCFeSCFeSFeS3FeCHC3H2C2HC6FeH2SC6H4C2SC2H5CH3C6H3CSNC6H9C3H2CH2NHC2HSC2HSCHCHCH2NHCH2NH4C2H3CHC4HCSCHCH2C4SNHCHCNFeS2FeS2FeS2FeSFeS3FeSCSFeHFeS2CH2CHC6H5C2HC2H2C6H5CHC2SC3HNCN2C6H9C2HCH2CHCHSH3SHCH5CHCFeH2CNCHSH2SH2C6H2NH2CHCH2SH2SC2HCFeH2C4NCHCFeS2FeS2FeS2FeCFeS3HSNSFeSFeS2CHCHC6H4CH5CHC6H5FeC4H2C3HSH3SH2CH2NC6H8C2SNHFeC2HNFeCHCH2NCHCHC2HCHSH2CHCSHC2SCHC2HCH4SH6FeSCFeS2FeS2FeSFeS3FeSHFeS2FeSFeS3HCFe2S2CHC3H2SHFeC2HSHCHC2HC2NC6H4C6H4NC3HC5H2C2H2CH3CSH2C2HCSH2CNCH2CHC2HCH4SCNHC6HNC6H8NC3HC3H7SH2CH2C2H2CH2CHCHNC3H2FeS2CHCFeS2FeS2FeSFeS3FeS2FeSHFeSFeS3HCH3SH2FeC6H4CH5C4H3CHCHC2SCHC6H4SCHC3FeC3NH3SCHCNC2HNC6H8SC2H3C2HCH2CHNCH3FeH3CHC2HCH4C2HC2SHCHC2HC3H2C2HC2FeS
_chemical_formula_sum              "Fe144 C864 S288 H864 N72"
_cell_length_a       49.5205
_cell_length_b       49.4603
_cell_length_c       73.7152
_cell_angle_alpha    90.6215
_cell_angle_beta     90.3905
_cell_angle_gamma    118.411

_space_group_name_H-M_alt    "P 1"
_space_group_IT_number       1

loop_
  _space_group_symop_operation_xyz
  'x, y, z'

loop_
  _atom_site_type_symbol
  _atom_site_label
  _atom_site_symmetry_multiplicity
  _atom_site_fract_x
  _atom_site_fract_y
  _atom_site_fract_z
  _atom_site_occupancy
  Fe  Fe1       1.0  0.27226  0.02454  0.23104  1.0000
  C   C1        1.0  0.29656  0.01669  0.18587  1.0000
  S   S1        1.0  0.30360  0.03874  0.20638  1.0000
  H   H1        1.0  0.22704  0.16779  0.21367  1.0000
  Fe  Fe2       1.0  0.25500  0.31071  0.23040  1.0000
  S   S2        1.0  0.25288  0.33747  0.20558  1.0000
  S   S3        1.0  0.22489  0.25939  0.23146  1.0000
  H   H2        1.0  0.13283  0.35268  0.11304  1.0000
  C   C2        1.0  0.03116  0.34104  0.16181  1.0000
  Fe  Fe3       1.0  0.32091  0.40372  0.10607  1.0000
  S   S4        1.0  0.30171  0.43676  0.10596  1.0000
  S   S5        1.0  0.32709  0.37983  0.13110  1.0000
  Fe  Fe4       1.0  0.33696  0.41350  0.06490  1.0000
  S   S6        1.0  0.31793  0.44657  0.06218  1.0000
  S   S7        1.0  0.36633  0.40867  0.04243  1.0000
  Fe  Fe5       1.0  0.34244  0.46686  0.08872  1.0000
  H   H3        1.0  0.22520  0.45408  0.11973  1.0000
  Fe  Fe6       1.0  0.27902  0.41365  0.07951  1.0000
  S   S8        1.0  0.22755  0.39359  0.07419  1.0000
  S   S9        1.0  0.36335  0.43569  0.09077  1.0000
  S   S10       1.0  0.29632  0.37875  0.08037  1.0000
  H   H4        1.0  0.35674  0.45263  0.02124  1.0000
  H   H5        1.0  0.08971  0.30572  0.21881  1.0000
  H   H6        1.0  0.20193  0.34412  0.21983  1.0000
  Fe  Fe7       1.0  0.04540  0.39849  0.10485  1.0000
  S   S11       1.0  0.08085  0.44834  0.10693  1.0000
  S   S12       1.0  0.04235  0.36554  0.12749  1.0000
  Fe  Fe8       1.0  0.02977  0.40537  0.06448  1.0000
  S   S13       1.0  0.06510  0.45539  0.06412  1.0000
  H   H7        1.0  0.22013  0.07829  0.21796  1.0000
  Fe  Fe9       1.0  0.09574  0.44080  0.07940  1.0000
  S   S14       1.0  0.14747  0.46328  0.07564  1.0000
  Fe  Fe10      1.0  0.04747  0.45861  0.09159  1.0000
  C   C3        1.0  0.21965  0.12127  0.21562  1.0000
  S   S15       1.0  0.06183  0.39042  0.07773  1.0000
  H   H8        1.0  0.30867  0.04179  0.01281  1.0000
  H   H9        1.0  0.02247  0.32088  0.18853  1.0000
  C   C4        1.0  0.12656  0.29418  0.21651  1.0000
  H   H10       1.0  0.04066  0.40807  0.01522  1.0000
  H   H11       1.0  0.40342  0.40684  0.01335  1.0000
  C   C5        1.0  0.31886  0.02716  0.17220  1.0000
  H   H12       1.0  0.10217  0.37695  0.10882  1.0000
  C   C6        1.0  0.41940  0.47895  0.13729  1.0000
  H   H13       1.0  0.21254  0.48539  0.07706  1.0000
  C   C7        1.0  0.20606  0.41377  0.07333  1.0000
  C   C8        1.0  0.17392  0.39690  0.07148  1.0000
  C   C9        1.0  0.15567  0.41172  0.07194  1.0000
  C   C10       1.0  0.16947  0.44368  0.07408  1.0000
  C   C11       1.0  0.20166  0.46063  0.07552  1.0000
  C   C12       1.0  0.21990  0.44577  0.07524  1.0000
  H   H14       1.0  0.16306  0.37216  0.06989  1.0000
  H   H15       1.0  0.13097  0.39843  0.07062  1.0000
  C   C13       1.0  0.01852  0.39804  0.00839  1.0000
  H   H16       1.0  0.24461  0.45903  0.07660  1.0000
  C   C14       1.0  0.32562  0.37012  0.01573  1.0000
  C   C15       1.0  0.35617  0.38868  0.02121  1.0000
  H   H17       1.0  0.34165  0.44149  0.14066  1.0000
  H   H18       1.0  0.30727  0.36670  0.02486  1.0000
  C   C16       1.0  0.02904  0.48368  0.01559  1.0000
  N   N1        1.0  0.99248  0.45708  0.04554  1.0000
  S   S16       1.0  0.01056  0.40910  0.09155  1.0000
  C   C17       1.0  0.02582  0.35966  0.14949  1.0000
  H   H19       1.0  0.30425  0.15399  0.20169  1.0000
  S   S17       1.0  0.29226  0.30917  0.24744  1.0000
  H   H20       1.0  0.28127  0.18872  0.20442  1.0000
  C   C18       1.0  0.99916  0.34762  0.18456  1.0000
  H   H21       1.0  0.15227  0.25947  0.21345  1.0000
  C   C19       1.0  0.23328  0.10222  0.21418  1.0000
  H   H22       1.0  0.33326  0.99650  0.20555  1.0000
  C   C20       1.0  0.32444  0.03344  0.00893  1.0000
  H   H23       1.0  0.19634  0.11214  0.22046  1.0000
  H   H24       1.0  0.18288  0.28480  0.22814  1.0000
  C   C21       1.0  0.27382  0.34877  0.18493  1.0000
  C   C22       1.0  0.29817  0.34283  0.18115  1.0000
  C   C23       1.0  0.31407  0.35243  0.16462  1.0000
  C   C24       1.0  0.30582  0.36794  0.15160  1.0000
  C   C25       1.0  0.28147  0.37390  0.15537  1.0000
  C   C26       1.0  0.26564  0.36440  0.17193  1.0000
  H   H25       1.0  0.30482  0.33091  0.19096  1.0000
  H   H26       1.0  0.33286  0.34769  0.16189  1.0000
  H   H27       1.0  0.27481  0.38577  0.14555  1.0000
  H   H28       1.0  0.24689  0.36917  0.17467  1.0000
  C   C27       1.0  0.15298  0.37493  0.11490  1.0000
  C   C28       1.0  0.01939  0.48394  0.04761  1.0000
  H   H29       1.0  0.38606  0.43135  0.14161  1.0000
  S   S18       1.0  0.22466  0.01906  0.23012  1.0000
  C   C29       1.0  0.00109  0.45682  0.01350  1.0000
  C   C30       1.0  0.27721  0.09365  0.20820  1.0000
  C   C31       1.0  0.34466  0.01470  0.23293  1.0000
  H   H30       1.0  0.26105  0.07077  0.20223  1.0000
  C   C32       1.0  0.20807  0.40513  0.11768  1.0000
  H   H31       1.0  0.12484  0.36136  0.22341  1.0000
  C   C33       1.0  0.01811  0.33520  0.17926  1.0000
  N   N2        1.0  0.15020  0.40116  0.11574  1.0000
  C   C34       1.0  0.18197  0.37655  0.11570  1.0000
  S   S19       1.0  0.99771  0.27711  0.23237  1.0000
  S   S20       1.0  0.28125  0.22577  0.24735  1.0000
  N   N3        1.0  0.15765  0.30499  0.21691  1.0000
  C   C35       1.0  0.00710  0.37228  0.15487  1.0000
  C   C36       1.0  0.26742  0.16425  0.20669  1.0000
  H   H32       1.0  0.18663  0.29015  0.20395  1.0000
  C   C37       1.0  0.99168  0.38403  0.01855  1.0000
  C   C38       1.0  0.17566  0.42926  0.11787  1.0000
  C   C39       1.0  0.20497  0.43169  0.11887  1.0000
  H   H33       1.0  0.12049  0.41746  0.10549  1.0000
  N   N4        1.0  0.26312  0.11385  0.20886  1.0000
  C   C40       1.0  0.28030  0.14450  0.20530  1.0000
  H   H34       1.0  0.17344  0.45008  0.11805  1.0000
  C   C41       1.0  0.11984  0.39938  0.11457  1.0000
  H   H35       1.0  0.29806  0.10312  0.19967  1.0000
  H   H36       1.0  0.35557  0.03836  0.22849  1.0000
  Fe  Fe11      1.0  0.26026  0.25816  0.25024  1.0000
  H   H37       1.0  0.43871  0.47434  0.13766  1.0000
  S   S21       1.0  0.03170  0.49360  0.09931  1.0000
  H   H38       1.0  0.11094  0.26972  0.21532  1.0000
  C   C42       1.0  0.38977  0.45460  0.13961  1.0000
  C   C43       1.0  0.17728  0.33570  0.21930  1.0000
  H   H39       1.0  0.40261  0.47191  0.00401  1.0000
  H   H40       1.0  0.23071  0.40673  0.11751  1.0000
  H   H41       1.0  0.18149  0.38078  0.22376  1.0000
  H   H42       1.0  0.11228  0.40248  0.12824  1.0000
  H   H43       1.0  0.04554  0.33108  0.15780  1.0000
  S   S22       1.0  0.31192  0.00605  0.04247  1.0000
  C   C44       1.0  0.37971  0.39262  0.00921  1.0000
  H   H44       1.0  0.18437  0.35596  0.11411  1.0000
  C   C45       1.0  0.13418  0.34573  0.22111  1.0000
  C   C46       1.0  0.17035  0.28372  0.21542  1.0000
  C   C47       1.0  0.33116  0.01581  0.02125  1.0000
  S   S23       1.0  0.99209  0.38126  0.04260  1.0000
  C   C48       1.0  0.23690  0.15248  0.21187  1.0000
  H   H45       1.0  0.33152  0.01872  0.14542  1.0000
  H   H46       1.0  0.00262  0.38652  0.14559  1.0000
  C   C49       1.0  0.16587  0.35654  0.22147  1.0000
  C   C50       1.0  0.35161  0.00519  0.01599  1.0000
  C   C51       1.0  0.11438  0.31441  0.21842  1.0000
  H   H47       1.0  0.33986  0.04854  0.17423  1.0000
  H   H48       1.0  0.28376  0.09033  0.22212  1.0000
  C   C52       1.0  0.36475  0.46025  0.13904  1.0000
  C   C53       1.0  0.31423  0.01025  0.15582  1.0000
  S   S24       1.0  0.34547  0.99815  0.09101  1.0000
  H   H49       1.0  0.32095  0.42523  0.01160  1.0000
  C   C54       1.0  0.34210  0.44705  0.00879  1.0000
  C   C55       1.0  0.99370  0.36609  0.17222  1.0000
  H   H50       1.0  0.47657  0.00068  0.09298  1.0000
  H   H51       1.0  0.30617  0.18387  0.24702  1.0000
  H   H52       1.0  0.33587  0.46557  0.00661  1.0000
  H   H53       1.0  0.04363  0.49360  0.00396  1.0000
  C   C56       1.0  0.36954  0.48998  0.13604  1.0000
  H   H54       1.0  0.35019  0.49447  0.13488  1.0000
  C   C57       1.0  0.28241  0.17093  0.25096  1.0000
  H   H55       1.0  0.00029  0.33247  0.00118  1.0000
  S   S25       1.0  0.22008  0.00333  0.27392  1.0000
  C   C58       1.0  0.27929  0.47622  0.37002  1.0000
  H   H56       1.0  0.47243  0.01661  0.42648  1.0000
  H   H57       1.0  0.32511  0.27863  0.27142  1.0000
  Fe  Fe12      1.0  0.23754  0.04597  0.25654  1.0000
  H   H58       1.0  0.24091  0.46190  0.46703  1.0000
  S   S26       1.0  0.99542  0.28176  0.27729  1.0000
  H   H59       1.0  0.29646  0.41764  0.47448  1.0000
  S   S27       1.0  0.15377  0.24425  0.25905  1.0000
  Fe  Fe13      1.0  0.20562  0.26928  0.25670  1.0000
  H   H60       1.0  0.31339  0.30939  0.31465  1.0000
  S   S28       1.0  0.22039  0.08117  0.26087  1.0000
  Fe  Fe14      1.0  0.26845  0.31485  0.27214  1.0000
  S   S29       1.0  0.29930  0.34946  0.29397  1.0000
  S   S30       1.0  0.23864  0.26393  0.27575  1.0000
  C   C59       1.0  0.13215  0.31369  0.26333  1.0000
  Fe  Fe15      1.0  0.32488  0.41003  0.44107  1.0000
  S   S31       1.0  0.34012  0.46081  0.44153  1.0000
  S   S32       1.0  0.32359  0.37929  0.46450  1.0000
  Fe  Fe16      1.0  0.30717  0.40293  0.39991  1.0000
  S   S33       1.0  0.32194  0.45333  0.39760  1.0000
  S   S34       1.0  0.27868  0.36649  0.37821  1.0000
  Fe  Fe17      1.0  0.36283  0.46167  0.41503  1.0000
  H   H61       1.0  0.20566  0.40292  0.38965  1.0000
  Fe  Fe18      1.0  0.29794  0.44842  0.42410  1.0000
  S   S35       1.0  0.26822  0.47172  0.42720  1.0000
  S   S36       1.0  0.34991  0.41120  0.41540  1.0000
  S   S37       1.0  0.28089  0.39779  0.42571  1.0000
  Fe  Fe19      1.0  0.03448  0.40194  0.40077  1.0000
  S   S38       1.0  0.08469  0.43608  0.39901  1.0000
  H   H62       1.0  0.33164  0.31262  0.28364  1.0000
  Fe  Fe20      1.0  0.03089  0.42064  0.44087  1.0000
  S   S39       1.0  0.08115  0.45515  0.44186  1.0000
  H   H63       1.0  0.08938  0.22557  0.25524  1.0000
  Fe  Fe21      1.0  0.07236  0.46869  0.41423  1.0000
  C   C60       1.0  0.14869  0.29720  0.26307  1.0000
  Fe  Fe22      1.0  0.08939  0.42000  0.42664  1.0000
  S   S40       1.0  0.12250  0.40115  0.43259  1.0000
  S   S41       1.0  0.02174  0.43582  0.41377  1.0000
  S   S42       1.0  0.03957  0.38429  0.42794  1.0000
  N   N5        1.0  0.24812  0.38886  0.47654  1.0000
  C   C61       1.0  0.25544  0.45169  0.37887  1.0000
  S   S43       1.0  0.29439  0.99680  0.29333  1.0000
  C   C62       1.0  0.27397  0.41635  0.47410  1.0000
  Fe  Fe23      1.0  0.03018  0.30353  0.25536  1.0000
  C   C63       1.0  0.25109  0.36110  0.47940  1.0000
  C   C64       1.0  0.34833  0.02789  0.48919  1.0000
  C   C65       1.0  0.00027  0.38386  0.32847  1.0000
  C   C66       1.0  0.13341  0.26541  0.26006  1.0000
  H   H64       1.0  0.20897  0.37595  0.37453  1.0000
  H   H65       1.0  0.17321  0.30910  0.26534  1.0000
  C   C67       1.0  0.26457  0.18606  0.25267  1.0000
  C   C68       1.0  0.34823  0.41563  0.49580  1.0000
  C   C69       1.0  0.22756  0.45157  0.42734  1.0000
  C   C70       1.0  0.21137  0.41951  0.42827  1.0000
  C   C71       1.0  0.17914  0.40441  0.42957  1.0000
  C   C72       1.0  0.16275  0.42110  0.42959  1.0000
  C   C73       1.0  0.17889  0.45308  0.42809  1.0000
  C   C74       1.0  0.21118  0.46824  0.42712  1.0000
  H   H66       1.0  0.22367  0.40641  0.42854  1.0000
  H   H67       1.0  0.16680  0.37965  0.43076  1.0000
  H   H68       1.0  0.16655  0.46620  0.42816  1.0000
  H   H69       1.0  0.27034  0.36597  0.48903  1.0000
  C   C75       1.0  0.33708  0.38665  0.48747  1.0000
  H   H70       1.0  0.25084  0.39258  0.35374  1.0000
  C   C76       1.0  0.00580  0.38700  0.49166  1.0000
  H   H71       1.0  0.35001  0.43481  0.48803  1.0000
  C   C77       1.0  0.21664  0.41330  0.47230  1.0000
  C   C78       1.0  0.37166  0.05055  0.50018  1.0000
  S   S44       1.0  0.35745  0.02180  0.46670  1.0000
  H   H72       1.0  0.23000  0.34219  0.48518  1.0000
  C   C79       1.0  0.28217  0.01238  0.32776  1.0000
  C   C80       1.0  0.24292  0.44147  0.47004  1.0000
  C   C81       1.0  0.28259  0.43998  0.34918  1.0000
  H   H73       1.0  0.27107  0.02376  0.32091  1.0000
  H   H74       1.0  0.35224  0.29220  0.29026  1.0000
  S   S45       1.0  0.23379  0.32046  0.25494  1.0000
  C   C82       1.0  0.29305  0.47025  0.35514  1.0000
  H   H75       1.0  0.19407  0.41176  0.47109  1.0000
  C   C83       1.0  0.29514  0.99757  0.31757  1.0000
  H   H76       1.0  0.23379  0.39017  0.39418  1.0000
  H   H77       1.0  0.29338  0.43487  0.33782  1.0000
  C   C84       1.0  0.29266  0.35422  0.31725  1.0000
  C   C85       1.0  0.26553  0.33409  0.32592  1.0000
  C   C86       1.0  0.26192  0.33802  0.34460  1.0000
  C   C87       1.0  0.28521  0.36219  0.35484  1.0000
  C   C88       1.0  0.31219  0.38253  0.34612  1.0000
  C   C89       1.0  0.31590  0.37843  0.32748  1.0000
  H   H78       1.0  0.24739  0.31541  0.31827  1.0000
  H   H79       1.0  0.24085  0.32226  0.35115  1.0000
  H   H80       1.0  0.33030  0.40126  0.35376  1.0000
  H   H81       1.0  0.33704  0.39410  0.32094  1.0000
  C   C90       1.0  0.22118  0.13721  0.26088  1.0000
  H   H82       1.0  0.25190  0.19714  0.30465  1.0000
  S   S46       1.0  0.99599  0.41677  0.46238  1.0000
  H   H83       1.0  0.01186  0.40750  0.35459  1.0000
  C   C91       1.0  0.00582  0.38615  0.34739  1.0000
  H   H84       1.0  0.24538  0.45649  0.39067  1.0000
  H   H85       1.0  0.28346  0.12766  0.25221  1.0000
  H   H86       1.0  0.25611  0.35311  0.46630  1.0000
  H   H87       1.0  0.14425  0.33833  0.26554  1.0000
  H   H88       1.0  0.29439  0.22852  0.28423  1.0000
  H   H89       1.0  0.27440  0.02504  0.35460  1.0000
  N   N6        1.0  0.24544  0.42207  0.37299  1.0000
  C   C92       1.0  0.25854  0.41607  0.35828  1.0000
  C   C93       1.0  0.28416  0.01312  0.34691  1.0000
  C   C94       1.0  0.99235  0.35630  0.31881  1.0000
  Fe  Fe24      1.0  0.26830  0.01004  0.27232  1.0000
  C   C95       1.0  0.22224  0.39655  0.38334  1.0000
  C   C96       1.0  0.27177  0.44304  0.47082  1.0000
  H   H90       1.0  0.27140  0.27890  0.33564  1.0000
  H   H91       1.0  0.29222  0.46471  0.46846  1.0000
  H   H92       1.0  0.02327  0.38555  0.48362  1.0000
  H   H93       1.0  0.37756  0.05240  0.25982  1.0000
  C   C97       1.0  0.21966  0.38699  0.47541  1.0000
  C   C98       1.0  0.26959  0.13903  0.25387  1.0000
  S   S47       1.0  0.00825  0.36163  0.38092  1.0000
  C   C99       1.0  0.99441  0.33292  0.34735  1.0000
  H   H94       1.0  0.23994  0.22235  0.33056  1.0000
  C   C100      1.0  0.23396  0.16908  0.25790  1.0000
  H   H95       1.0  0.99242  0.48144  0.45791  1.0000
  S   S48       1.0  0.28640  0.05423  0.25654  1.0000
  C   C101      1.0  0.33515  0.36210  0.49789  1.0000
  N   N7        1.0  0.06987  0.36304  0.33597  1.0000
  C   C102      1.0  0.06871  0.33795  0.32721  1.0000
  C   C103      1.0  0.06852  0.38584  0.32629  1.0000
  C   C104      1.0  0.06604  0.33518  0.30828  1.0000
  C   C105      1.0  0.06547  0.38361  0.30737  1.0000
  C   C106      1.0  0.06437  0.35818  0.29836  1.0000
  C   C107      1.0  0.07314  0.36552  0.35580  1.0000
  H   H96       1.0  0.06964  0.31981  0.33487  1.0000
  H   H97       1.0  0.06881  0.40547  0.33318  1.0000
  H   H98       1.0  0.06502  0.31528  0.30124  1.0000
  H   H99       1.0  0.06296  0.40097  0.29976  1.0000
  H   H100      1.0  0.06192  0.35614  0.28372  1.0000
  H   H101      1.0  0.05532  0.34422  0.36213  1.0000
  H   H102      1.0  0.09627  0.36935  0.36001  1.0000
  H   H103      1.0  0.06986  0.38475  0.36137  1.0000
  N   N8        1.0  0.30546  0.27091  0.29781  1.0000
  C   C108      1.0  0.28920  0.23970  0.29537  1.0000
  C   C109      1.0  0.29982  0.28478  0.31237  1.0000
  C   C110      1.0  0.26528  0.22177  0.30702  1.0000
  C   C111      1.0  0.27617  0.26759  0.32435  1.0000
  C   C112      1.0  0.25862  0.23591  0.32152  1.0000
  C   C113      1.0  0.32991  0.28947  0.28521  1.0000
  H   H104      1.0  0.00216  0.40360  0.32125  1.0000
  C   C114      1.0  0.10137  0.25022  0.25748  1.0000
  H   H105      1.0  0.19730  0.12421  0.26459  1.0000
  S   S49       1.0  0.08135  0.32114  0.25929  1.0000
  S   S50       1.0  0.02141  0.34381  0.25250  1.0000
  H   H106      1.0  0.32650  0.33956  0.49163  1.0000
  C   C115      1.0  0.10023  0.29864  0.26047  1.0000
  C   C116      1.0  0.23873  0.12187  0.25864  1.0000
  H   H107      1.0  0.39430  0.06416  0.49464  1.0000
  C   C117      1.0  0.31921  0.01040  0.49657  1.0000
  H   H108      1.0  0.19909  0.36509  0.47678  1.0000
  H   H109      1.0  0.21993  0.18033  0.25931  1.0000
  C   C118      1.0  0.00259  0.36056  0.35698  1.0000
  C   C119      1.0  0.08479  0.26678  0.25761  1.0000
  H   H110      1.0  0.06018  0.25497  0.25538  1.0000
  H   H111      1.0  0.33889  0.04200  0.26683  1.0000
  H   H112      1.0  0.35996  0.02547  0.27772  1.0000
  H   H113      1.0  0.40126  0.00935  0.48914  1.0000
  C   C120      1.0  0.35552  0.03327  0.26446  1.0000
  H   H114      1.0  0.04099  0.47933  0.45451  1.0000
  C   C121      1.0  0.48646  0.01002  0.43477  1.0000
  C   C122      1.0  0.29865  0.99865  0.35619  1.0000
  S   S51       1.0  0.29896  0.99931  0.38042  1.0000
  H   H115      1.0  0.99162  0.31289  0.35462  1.0000
  C   C123      1.0  0.98980  0.33091  0.32835  1.0000
  N   N9        1.0  0.34276  0.00809  0.25100  1.0000
  H   H116      1.0  0.22352  0.49306  0.42639  1.0000
  C   C124      1.0  0.99006  0.40188  0.48475  1.0000
  H   H117      1.0  0.31208  0.48899  0.34842  1.0000
  Fe  Fe25      1.0  0.37332  0.37309  0.56990  1.0000
  S   S52       1.0  0.40565  0.35341  0.56632  1.0000
  S   S53       1.0  0.36516  0.40171  0.54828  1.0000
  Fe  Fe26      1.0  0.36885  0.36122  0.61168  1.0000
  S   S54       1.0  0.40174  0.34178  0.61065  1.0000
  S   S55       1.0  0.34941  0.37029  0.63790  1.0000
  Fe  Fe27      1.0  0.42946  0.38055  0.59163  1.0000
  C   C125      1.0  0.35482  0.19645  0.62929  1.0000
  Fe  Fe28      1.0  0.37518  0.31650  0.58555  1.0000
  S   S56       1.0  0.35550  0.26455  0.58212  1.0000
  S   S57       1.0  0.39883  0.40192  0.59443  1.0000
  S   S58       1.0  0.34064  0.33418  0.58742  1.0000
  Fe  Fe29      1.0  0.40759  0.13735  0.58424  1.0000
  S   S59       1.0  0.35716  0.10736  0.58784  1.0000
  S   S60       1.0  0.42902  0.18852  0.57869  1.0000
  Fe  Fe30      1.0  0.42199  0.08429  0.59044  1.0000
  S   S61       1.0  0.37194  0.05086  0.59524  1.0000
  S   S62       1.0  0.45381  0.06287  0.58839  1.0000
  Fe  Fe31      1.0  0.36319  0.07258  0.57071  1.0000
  S   S63       1.0  0.32871  0.04356  0.54853  1.0000
  Fe  Fe32      1.0  0.37058  0.08858  0.61209  1.0000
  S   S64       1.0  0.34899  0.09211  0.63900  1.0000
  S   S65       1.0  0.41282  0.10409  0.56528  1.0000
  S   S66       1.0  0.42141  0.12046  0.60905  1.0000
  H   H118      1.0  0.36891  0.10919  0.53940  1.0000
  H   H119      1.0  0.40959  0.16325  0.53687  1.0000
  C   C126      1.0  0.03475  0.28988  0.69664  1.0000
  Fe  Fe33      1.0  0.26325  0.29023  0.73136  1.0000
  S   S67       1.0  0.21272  0.26099  0.73706  1.0000
  S   S68       1.0  0.28435  0.28362  0.70516  1.0000
  H   H120      1.0  0.43930  0.02807  0.51597  1.0000
  Fe  Fe34      1.0  0.26385  0.01849  0.73064  1.0000
  S   S69       1.0  0.22091  0.02292  0.72933  1.0000
  H   H121      1.0  0.01690  0.31501  0.65801  1.0000
  H   H122      1.0  0.27526  0.17617  0.73350  1.0000
  C   C127      1.0  0.37388  0.25199  0.62677  1.0000
  H   H123      1.0  0.39631  0.22992  0.54228  1.0000
  H   H124      1.0  0.39803  0.02611  0.56721  1.0000
  C   C128      1.0  0.25793  0.16750  0.74387  1.0000
  N   N10       1.0  0.37898  0.22509  0.62656  1.0000
  H   H125      1.0  0.34983  0.04098  0.70934  1.0000
  H   H126      1.0  0.35125  0.24632  0.62050  1.0000
  H   H127      1.0  0.41460  0.45942  0.56256  1.0000
  H   H128      1.0  0.34239  0.19365  0.53983  1.0000
  C   C129      1.0  0.33011  0.06678  0.65725  1.0000
  C   C130      1.0  0.32009  0.07786  0.67202  1.0000
  C   C131      1.0  0.30493  0.05889  0.68681  1.0000
  C   C132      1.0  0.29950  0.02842  0.68703  1.0000
  C   C133      1.0  0.30969  0.01735  0.67234  1.0000
  C   C134      1.0  0.32487  0.03635  0.65753  1.0000
  H   H129      1.0  0.32397  0.10131  0.67200  1.0000
  H   H130      1.0  0.29739  0.06787  0.69800  1.0000
  H   H131      1.0  0.38069  0.12350  0.74142  1.0000
  H   H132      1.0  0.33242  0.02744  0.64632  1.0000
  C   C135      1.0  0.33692  0.03832  0.52567  1.0000
  C   C136      1.0  0.36614  0.05554  0.51835  1.0000
  C   C137      1.0  0.35733  0.34063  0.72504  1.0000
  H   H133      1.0  0.38456  0.07262  0.52664  1.0000
  H   H134      1.0  0.39135  0.27100  0.61862  1.0000
  H   H135      1.0  0.36705  0.32956  0.69110  1.0000
  H   H136      1.0  0.34241  0.34716  0.52417  1.0000
  C   C138      1.0  0.32502  0.14482  0.54157  1.0000
  H   H137      1.0  0.34021  0.14775  0.63159  1.0000
  H   H138      1.0  0.33185  0.19346  0.63106  1.0000
  C   C139      1.0  0.41328  0.20346  0.62453  1.0000
  H   H139      1.0  0.02315  0.36547  0.66252  1.0000
  H   H140      1.0  0.46834  0.40511  0.55124  1.0000
  C   C140      1.0  0.32897  0.34478  0.65566  1.0000
  C   C141      1.0  0.32558  0.31508  0.65656  1.0000
  C   C142      1.0  0.31111  0.29646  0.67159  1.0000
  C   C143      1.0  0.29992  0.30725  0.68591  1.0000
  C   C144      1.0  0.30281  0.33673  0.68488  1.0000
  C   C145      1.0  0.31729  0.35536  0.66985  1.0000
  H   H141      1.0  0.33442  0.30664  0.64577  1.0000
  H   H142      1.0  0.30894  0.27368  0.67221  1.0000
  H   H143      1.0  0.29418  0.34531  0.69571  1.0000
  H   H144      1.0  0.31967  0.37824  0.66923  1.0000
  C   C146      1.0  0.40843  0.20944  0.58037  1.0000
  C   C147      1.0  0.37647  0.19462  0.58182  1.0000
  C   C148      1.0  0.36067  0.21190  0.58218  1.0000
  C   C149      1.0  0.37666  0.24414  0.58142  1.0000
  C   C150      1.0  0.40867  0.25905  0.58031  1.0000
  C   C151      1.0  0.42446  0.24171  0.57964  1.0000
  H   H145      1.0  0.36386  0.16984  0.58237  1.0000
  H   H146      1.0  0.33590  0.20022  0.58312  1.0000
  H   H147      1.0  0.42122  0.28389  0.57972  1.0000
  H   H148      1.0  0.44921  0.25338  0.57848  1.0000
  H   H149      1.0  0.46430  0.45350  0.60351  1.0000
  H   H150      1.0  0.35047  0.41492  0.72923  1.0000
  C   C152      1.0  0.35488  0.39517  0.52478  1.0000
  C   C153      1.0  0.34420  0.36634  0.51637  1.0000
  H   H151      1.0  0.05676  0.36448  0.70718  1.0000
  N   N11       1.0  0.19246  0.15389  0.72078  1.0000
  C   C154      1.0  0.12725  0.27258  0.74499  1.0000
  C   C155      1.0  0.19766  0.18355  0.71946  1.0000
  H   H152      1.0  0.42712  0.25147  0.62202  1.0000
  C   C156      1.0  0.22131  0.20452  0.70865  1.0000
  C   C157      1.0  0.24480  0.13654  0.74877  1.0000
  C   C158      1.0  0.20986  0.14413  0.71117  1.0000
  N   N12       1.0  0.34797  0.03536  0.73806  1.0000
  H   H153      1.0  0.18397  0.19133  0.72716  1.0000
  H   H154      1.0  0.17219  0.11379  0.73710  1.0000
  C   C159      1.0  0.38875  0.17419  0.62717  1.0000
  S   S70       1.0  0.25346  0.11173  0.73570  1.0000
  C   C160      1.0  0.44692  0.44387  0.55480  1.0000
  H   H155      1.0  0.08232  0.23480  0.73874  1.0000
  H   H156      1.0  0.13883  0.25883  0.74370  1.0000
  H   H157      1.0  0.03607  0.38489  0.68389  1.0000
  H   H158      1.0  0.36504  0.44216  0.52070  1.0000
  H   H159      1.0  0.35855  0.31937  0.72383  1.0000
  C   C161      1.0  0.33370  0.00174  0.73696  1.0000
  H   H160      1.0  0.42450  0.21718  0.54168  1.0000
  C   C162      1.0  0.02381  0.28906  0.67903  1.0000
  C   C163      1.0  0.40800  0.22886  0.62439  1.0000
  C   C164      1.0  0.37897  0.35448  0.69465  1.0000
  H   H161      1.0  0.16480  0.14412  0.74434  1.0000
  C   C165      1.0  0.16740  0.13224  0.73208  1.0000
  C   C166      1.0  0.43857  0.46603  0.56019  1.0000
  H   H162      1.0  0.20610  0.12073  0.71241  1.0000
  H   H163      1.0  0.01012  0.36110  0.51389  1.0000
  H   H164      1.0  0.22572  0.22815  0.70775  1.0000
  S   S71       1.0  0.48168  0.40757  0.59121  1.0000
  N   N13       1.0  0.03733  0.34250  0.68177  1.0000
  H   H165      1.0  0.06372  0.38436  0.66810  1.0000
  C   C167      1.0  0.34694  0.34724  0.74124  1.0000
  C   C168      1.0  0.04686  0.31722  0.70676  1.0000
  H   H166      1.0  0.43607  0.20629  0.62207  1.0000
  C   C169      1.0  0.36302  0.12765  0.53957  1.0000
  C   C170      1.0  0.04034  0.37072  0.67364  1.0000
  C   C171      1.0  0.48541  0.42823  0.54648  1.0000
  C   C172      1.0  0.09519  0.25902  0.74222  1.0000
  C   C173      1.0  0.23975  0.19507  0.69924  1.0000
  H   H167      1.0  0.39244  0.15426  0.62721  1.0000
  N   N14       1.0  0.37831  0.18153  0.53811  1.0000
  H   H168      1.0  0.31476  0.09720  0.54283  1.0000
  H   H169      1.0  0.37660  0.36667  0.68264  1.0000
  H   H170      1.0  0.40554  0.21833  0.52082  1.0000
  H   H171      1.0  0.14554  0.12169  0.72419  1.0000
  C   C174      1.0  0.48835  0.46515  0.60005  1.0000
  C   C175      1.0  0.04789  0.34345  0.69910  1.0000
  C   C176      1.0  0.42201  0.02928  0.54242  1.0000
  H   H172      1.0  0.24848  0.15705  0.69347  1.0000
  H   H173      1.0  0.40373  0.36216  0.69704  1.0000
  H   H174      1.0  0.25866  0.21153  0.69124  1.0000
  H   H175      1.0  0.37478  0.26038  0.64089  1.0000
  C   C177      1.0  0.07960  0.27636  0.74421  1.0000
  C   C178      1.0  0.23397  0.16463  0.70042  1.0000
  C   C179      1.0  0.35933  0.17058  0.62959  1.0000
  H   H176      1.0  0.42912  0.42025  0.55292  1.0000
  N   N15       1.0  0.36562  0.36057  0.71088  1.0000
  C   C180      1.0  0.36329  0.38700  0.71226  1.0000
  C   C181      1.0  0.33249  0.12094  0.54145  1.0000
  C   C182      1.0  0.35262  0.39412  0.72820  1.0000
  C   C183      1.0  0.38581  0.15823  0.53798  1.0000
  C   C184      1.0  0.34474  0.37423  0.74284  1.0000
  S   S72       1.0  0.26672  0.33151  0.74664  1.0000
  H   H177      1.0  0.36951  0.40263  0.70095  1.0000
  C   C185      1.0  0.14415  0.30377  0.74969  1.0000
  S   S73       1.0  0.03895  0.25749  0.74171  1.0000
  C   C186      1.0  0.31351  0.01581  0.51464  1.0000
  C   C187      1.0  0.41897  0.01952  0.52427  1.0000
  S   S74       1.0  0.28139  0.00394  0.70573  1.0000
  H   H178      1.0  0.05510  0.31790  0.72052  1.0000
  H   H179      1.0  0.01399  0.26781  0.67114  1.0000
  C   C188      1.0  0.40231  0.21329  0.53552  1.0000
  C   C189      1.0  0.34834  0.17516  0.53971  1.0000
  C   C190      1.0  0.39597  0.01856  0.55316  1.0000
  H   H180      1.0  0.30133  0.13985  0.54306  1.0000
  H   H181      1.0  0.03353  0.26932  0.70258  1.0000
  C   C191      1.0  0.35685  0.41976  0.51435  1.0000
  H   H182      1.0  0.37076  0.09724  0.71115  1.0000
  H   H183      1.0  0.29081  0.00232  0.52014  1.0000
  S   S75       1.0  0.29062  0.06293  0.74567  1.0000
  C   C192      1.0  0.37201  0.09883  0.74046  1.0000
  C   C193      1.0  0.09653  0.30765  0.74869  1.0000
  Fe  Fe35      1.0  0.24707  0.06613  0.74599  1.0000
  C   C194      1.0  0.35447  0.05223  0.72257  1.0000
  C   C195      1.0  0.02551  0.31581  0.67171  1.0000
  C   C196      1.0  0.36645  0.08416  0.72352  1.0000
  H   H184      1.0  0.44435  0.04516  0.54822  1.0000
  C   C197      1.0  0.36730  0.99831  0.54571  1.0000
  H   H185      1.0  0.25685  0.21026  0.74694  1.0000
  Fe  Fe36      1.0  0.00502  0.27595  0.74594  1.0000
  C   C198      1.0  0.99826  0.37312  0.50884  1.0000
  N   N16       1.0  0.47707  0.45174  0.55220  1.0000
  H   H186      1.0  0.08494  0.32130  0.75035  1.0000
  H   H187      1.0  0.48670  0.42761  0.53147  1.0000
  N   N17       1.0  0.39075  0.99965  0.51705  1.0000
  H   H188      1.0  0.42437  0.31630  0.96318  1.0000
  S   S76       1.0  0.27837  0.27359  0.75572  1.0000
  H   H189      1.0  0.03422  0.28510  0.80415  1.0000
  H   H190      1.0  0.00794  0.33725  0.97749  1.0000
  C   C199      1.0  0.04754  0.29553  0.79172  1.0000
  C   C200      1.0  0.40458  0.45631  0.97696  1.0000
  Fe  Fe37      1.0  0.27805  0.31239  0.77154  1.0000
  S   S77       1.0  0.22896  0.28477  0.77992  1.0000
  S   S78       1.0  0.32040  0.34030  0.78946  1.0000
  H   H191      1.0  0.43620  0.26477  0.97430  1.0000
  C   C201      1.0  0.10332  0.32199  0.79732  1.0000
  S   S79       1.0  0.01683  0.32432  0.75368  1.0000
  H   H192      1.0  0.34209  0.40913  0.95134  1.0000
  C   C202      1.0  0.37712  0.30246  0.96883  1.0000
  Fe  Fe38      1.0  0.27440  0.03654  0.77163  1.0000
  S   S80       1.0  0.23210  0.04262  0.77277  1.0000
  S   S81       1.0  0.31402  0.05463  0.79256  1.0000
  H   H193      1.0  0.31578  0.10895  0.90269  1.0000
  H   H194      1.0  0.15267  0.34348  0.80104  1.0000
  Fe  Fe39      1.0  0.41679  0.39929  0.91745  1.0000
  S   S82       1.0  0.36645  0.38611  0.91861  1.0000
  S   S83       1.0  0.44839  0.45111  0.91948  1.0000
  Fe  Fe40      1.0  0.40249  0.33211  0.91751  1.0000
  S   S84       1.0  0.35186  0.31473  0.91912  1.0000
  S   S85       1.0  0.42406  0.30055  0.91608  1.0000
  Fe  Fe41      1.0  0.35893  0.34961  0.89770  1.0000
  S   S86       1.0  0.32085  0.33276  0.87597  1.0000
  Fe  Fe42      1.0  0.36352  0.35267  0.93982  1.0000
  S   S87       1.0  0.33237  0.34314  0.96427  1.0000
  S   S88       1.0  0.40942  0.36510  0.89482  1.0000
  S   S89       1.0  0.41404  0.36764  0.93990  1.0000
  Fe  Fe43      1.0  0.36121  0.06770  0.89944  1.0000
  S   S90       1.0  0.39393  0.11824  0.89723  1.0000
  S   S91       1.0  0.32593  0.03722  0.87779  1.0000
  Fe  Fe44      1.0  0.37640  0.06686  0.94063  1.0000
  S   S92       1.0  0.40926  0.11764  0.94098  1.0000
  S   S93       1.0  0.37509  0.03644  0.96436  1.0000
  Fe  Fe45      1.0  0.37449  0.12310  0.92377  1.0000
  S   S94       1.0  0.35478  0.15604  0.92800  1.0000
  Fe  Fe46      1.0  0.42619  0.10848  0.91453  1.0000
  H   H195      1.0  0.19417  0.13622  0.77994  1.0000
  S   S95       1.0  0.34002  0.07275  0.92540  1.0000
  S   S96       1.0  0.39504  0.05752  0.91474  1.0000
  C   C203      1.0  0.01672  0.39822  0.98925  1.0000
  H   H196      1.0  0.03765  0.40829  0.98149  1.0000
  H   H197      1.0  0.14150  0.34539  0.75497  1.0000
  C   C204      1.0  0.35818  0.02956  0.98628  1.0000
  C   C205      1.0  0.24760  0.18694  0.75155  1.0000
  H   H198      1.0  0.46989  0.01424  0.94980  1.0000
  H   H199      1.0  0.33246  0.05394  0.98232  1.0000
  C   C206      1.0  0.34363  0.24779  0.96987  1.0000
  C   C207      1.0  0.40354  0.25995  0.91744  1.0000
  C   C208      1.0  0.37236  0.24444  0.92168  1.0000
  C   C209      1.0  0.35762  0.21248  0.92446  1.0000
  C   C210      1.0  0.37382  0.19570  0.92296  1.0000
  C   C211      1.0  0.40474  0.21102  0.91813  1.0000
  C   C212      1.0  0.41952  0.24302  0.91543  1.0000
  H   H200      1.0  0.35981  0.25717  0.92333  1.0000
  H   H201      1.0  0.33365  0.20077  0.92813  1.0000
  H   H202      1.0  0.41748  0.19838  0.91691  1.0000
  H   H203      1.0  0.44367  0.25483  0.91216  1.0000
  C   C213      1.0  0.34234  0.36044  0.98624  1.0000
  H   H204      1.0  0.42947  0.46776  0.97666  1.0000
  H   H205      1.0  0.29507  0.34169  0.99426  1.0000
  C   C214      1.0  0.99401  0.32014  0.98784  1.0000
  H   H206      1.0  0.39126  0.38241  0.98264  1.0000
  N   N18       1.0  0.07721  0.29569  0.79249  1.0000
  C   C215      1.0  0.31642  0.04960  0.81634  1.0000
  C   C216      1.0  0.34372  0.06936  0.82582  1.0000
  C   C217      1.0  0.34710  0.06599  0.84458  1.0000
  C   C218      1.0  0.32336  0.04239  0.85407  1.0000
  C   C219      1.0  0.29612  0.02252  0.84457  1.0000
  C   C220      1.0  0.29251  0.02626  0.82589  1.0000
  H   H207      1.0  0.36247  0.08740  0.81860  1.0000
  H   H208      1.0  0.36819  0.08144  0.85165  1.0000
  H   H209      1.0  0.36544  0.21968  0.96572  1.0000
  C   C221      1.0  0.13178  0.32238  0.79786  1.0000
  H   H210      1.0  0.43931  0.08153  0.95635  1.0000
  H   H211      1.0  0.35659  0.15784  0.85413  1.0000
  H   H212      1.0  0.39920  0.43649  0.95010  1.0000
  H   H213      1.0  0.10237  0.34299  0.80044  1.0000
  C   C222      1.0  0.36890  0.24305  0.96660  1.0000
  C   C223      1.0  0.32014  0.33980  0.81359  1.0000
  C   C224      1.0  0.29283  0.32442  0.82320  1.0000
  C   C225      1.0  0.29356  0.32344  0.84230  1.0000
  C   C226      1.0  0.32153  0.33760  0.85206  1.0000
  C   C227      1.0  0.34887  0.35341  0.84249  1.0000
  C   C228      1.0  0.34813  0.35453  0.82336  1.0000
  H   H214      1.0  0.27112  0.31317  0.81593  1.0000
  H   H215      1.0  0.27228  0.31127  0.84956  1.0000
  H   H216      1.0  0.37056  0.36465  0.84981  1.0000
  H   H217      1.0  0.36939  0.36672  0.81608  1.0000
  C   C229      1.0  0.38757  0.43872  0.96203  1.0000
  C   C230      1.0  0.31647  0.11359  0.85049  1.0000
  H   H218      1.0  0.32856  0.28195  0.97357  1.0000
  C   C231      1.0  0.12862  0.32125  0.75133  1.0000
  H   H219      1.0  0.27724  0.06875  0.85121  1.0000
  C   C232      1.0  0.33880  0.13793  0.86077  1.0000
  H   H220      1.0  0.05781  0.24847  0.78449  1.0000
  Fe  Fe47      1.0  0.21694  0.30095  0.75407  1.0000
  C   C233      1.0  0.07844  0.26917  0.78865  1.0000
  H   H221      1.0  0.05026  0.31911  0.79057  1.0000
  H   H222      1.0  0.25149  0.06167  0.89065  1.0000
  N   N19       1.0  0.33355  0.27820  0.85073  1.0000
  C   C234      1.0  0.30322  0.26168  0.85517  1.0000
  C   C235      1.0  0.34197  0.28326  0.83293  1.0000
  C   C236      1.0  0.28044  0.24970  0.84159  1.0000
  C   C237      1.0  0.31977  0.27180  0.81902  1.0000
  C   C238      1.0  0.28882  0.25484  0.82341  1.0000
  C   C239      1.0  0.35738  0.29069  0.86499  1.0000
  H   H223      1.0  0.29643  0.25860  0.86928  1.0000
  H   H224      1.0  0.36591  0.29708  0.82944  1.0000
  H   H225      1.0  0.25639  0.23732  0.84516  1.0000
  H   H226      1.0  0.32639  0.27695  0.80495  1.0000
  H   H227      1.0  0.27134  0.24644  0.81274  1.0000
  H   H228      1.0  0.34739  0.28850  0.87871  1.0000
  H   H229      1.0  0.37136  0.27859  0.86487  1.0000
  H   H230      1.0  0.37254  0.31568  0.86296  1.0000
  H   H231      1.0  0.31681  0.11424  0.83577  1.0000
  N   N20       1.0  0.29457  0.08599  0.87782  1.0000
  S   S97       1.0  0.20755  0.19819  0.77195  1.0000
  Fe  Fe48      1.0  0.22861  0.24720  0.76226  1.0000
  S   S98       1.0  0.18414  0.32155  0.75484  1.0000
  C   C240      1.0  0.36552  0.08148  0.75619  1.0000
  H   H232      1.0  0.28143  0.05375  0.89921  1.0000
  C   C241      1.0  0.27146  0.05852  0.88685  1.0000
  C   C242      1.0  0.33829  0.13640  0.87966  1.0000
  H   H233      1.0  0.10759  0.24800  0.78540  1.0000
  H   H234      1.0  0.32095  0.22838  0.97153  1.0000
  H   H235      1.0  0.26372  0.03777  0.87795  1.0000
  C   C243      1.0  0.10648  0.26871  0.78918  1.0000
  H   H236      1.0  0.31612  0.41412  0.97870  1.0000
  H   H237      1.0  0.47559  0.13465  0.95200  1.0000
  H   H238      1.0  0.03400  0.28219  0.77966  1.0000
  C   C244      1.0  0.13331  0.29557  0.79369  1.0000
  H   H239      1.0  0.46310  0.06821  0.90674  1.0000
  C   C245      1.0  0.31582  0.11011  0.88801  1.0000
  H   H240      1.0  0.35548  0.15518  0.88785  1.0000
  C   C246      1.0  0.42390  0.26230  0.96124  1.0000
  C   C247      1.0  0.45110  0.04532  0.95318  1.0000
  H   H241      1.0  0.36882  0.09242  0.76947  1.0000
  H   H242      1.0  0.42731  0.02738  0.95282  1.0000
  H   H243      1.0  0.38056  0.32578  0.96991  1.0000
  C   C248      1.0  0.35557  0.42363  0.96265  1.0000
  C   C249      1.0  0.29417  0.08779  0.85931  1.0000
  C   C250      1.0  0.37289  0.37876  0.99178  1.0000
  C   C251      1.0  0.21224  0.14509  0.77001  1.0000
  H   H244      1.0  0.41672  0.23901  0.95539  1.0000
  C   C252      1.0  0.31880  0.35597  0.99837  1.0000
  H   H245      1.0  0.44003  0.27907  0.95142  1.0000
  H   H246      1.0  0.15540  0.29589  0.79335  1.0000
  N   N21       1.0  0.39744  0.26749  0.96411  1.0000
  C   C253      1.0  0.33792  0.04039  0.99160  1.0000
  Fe  Fe49      1.0  0.20904  0.99829  0.75601  1.0000
  C   C254      1.0  0.36487  0.01190  0.99861  1.0000
  C   C255      1.0  0.40177  0.29692  0.96521  1.0000
  C   C256      1.0  0.22422  0.17564  0.76433  1.0000
  H   H247      1.0  0.27147  0.01071  0.81881  1.0000
  C   C257      1.0  0.34786  0.27774  0.97101  1.0000
  H   H248      1.0  0.27764  0.00406  0.85172  1.0000
  N   N22       1.0  0.48786  0.09900  0.95517  1.0000
  H   H249      1.0  0.38049  0.00338  0.99469  1.0000
  C   C258      1.0  0.45803  0.07611  0.95509  1.0000
  H   H250      1.0  0.00030  0.30140  0.98797  1.0000
  C   C259      1.0  0.34099  0.42643  0.97822  1.0000
  C   C260      1.0  0.47494  0.03798  0.95160  1.0000
  C   C261      1.0  0.35326  0.04955  0.75472  1.0000
  H   H251      1.0  0.34728  0.03614  0.76703  1.0000
  N   N23       1.0  0.35785  0.44360  0.99284  1.0000
  C   C262      1.0  0.48915  0.47054  0.91943  1.0000
  C   C263      1.0  0.22251  0.12552  0.76224  1.0000
  H   H252      1.0  0.21223  0.10164  0.76607  1.0000
  C   C264      1.0  0.38926  0.45860  0.99234  1.0000
  S   S99       1.0  0.47813  0.13268  0.91144  1.0000
  H   H253      1.0  0.33657  0.37944  0.75537  1.0000
  C   C265      1.0  0.48770  0.08188  0.90850  1.0000
  H   H254      1.0  0.34052  0.33152  0.75251  1.0000
  H   H255      1.0  0.99384  0.44564  0.00027  1.0000
  H   H256      1.0  0.16254  0.78767  0.12047  1.0000
  S   S100      1.0  0.02332  0.76307  0.20287  1.0000
  H   H257      1.0  0.11437  0.92265  0.21099  1.0000
  S   S101      1.0  0.33451  0.94365  0.06060  1.0000
  Fe  Fe50      1.0  0.30566  0.96196  0.10645  1.0000
  S   S102      1.0  0.32276  0.92713  0.10405  1.0000
  Fe  Fe51      1.0  0.36061  0.96196  0.08693  1.0000
  C   C266      1.0  0.31432  0.95405  0.24384  1.0000
  Fe  Fe52      1.0  0.29504  0.91204  0.07808  1.0000
  S   S103      1.0  0.26535  0.86139  0.07060  1.0000
  S   S104      1.0  0.27624  0.94491  0.08099  1.0000
  Fe  Fe53      1.0  0.04036  0.68800  0.10882  1.0000
  S   S105      1.0  0.09065  0.70313  0.10586  1.0000
  H   H258      1.0  0.47288  0.52944  0.08480  1.0000
  Fe  Fe54      1.0  0.02919  0.68267  0.06685  1.0000
  S   S106      1.0  0.07909  0.69840  0.06116  1.0000
  H   H259      1.0  0.10618  0.64360  0.12304  1.0000
  Fe  Fe55      1.0  0.07622  0.66676  0.08381  1.0000
  S   S107      1.0  0.09848  0.63592  0.08148  1.0000
  Fe  Fe56      1.0  0.08943  0.73352  0.08367  1.0000
  S   S108      1.0  0.12151  0.78534  0.08456  1.0000
  S   S109      1.0  0.02613  0.64927  0.08834  1.0000
  S   S110      1.0  0.03937  0.72004  0.08782  1.0000
  C   C267      1.0  0.09584  0.87651  0.20050  1.0000
  H   H260      1.0  0.27410  0.85456  0.11339  1.0000
  H   H261      1.0  0.02966  0.70428  0.02035  1.0000
  C   C268      1.0  0.07808  0.59554  0.08410  1.0000
  C   C269      1.0  0.09324  0.57805  0.08104  1.0000
  C   C270      1.0  0.07890  0.54645  0.08493  1.0000
  C   C271      1.0  0.04936  0.53220  0.09212  1.0000
  C   C272      1.0  0.03381  0.54942  0.09459  1.0000
  C   C273      1.0  0.04803  0.58092  0.09054  1.0000
  H   H262      1.0  0.11651  0.58919  0.07607  1.0000
  H   H263      1.0  0.09112  0.53343  0.08298  1.0000
  S   S111      1.0  0.01512  0.67532  0.13590  1.0000
  H   H264      1.0  0.03608  0.59404  0.09290  1.0000
  C   C274      1.0  0.22493  0.84089  0.07318  1.0000
  C   C275      1.0  0.20925  0.80904  0.06958  1.0000
  C   C276      1.0  0.17743  0.79166  0.07260  1.0000
  C   C277      1.0  0.16096  0.80612  0.07908  1.0000
  C   C278      1.0  0.17650  0.83812  0.08212  1.0000
  C   C279      1.0  0.20832  0.85543  0.07926  1.0000
  H   H265      1.0  0.22187  0.79762  0.06476  1.0000
  H   H266      1.0  0.16573  0.76709  0.07009  1.0000
  H   H267      1.0  0.16391  0.84951  0.08706  1.0000
  H   H268      1.0  0.21995  0.87991  0.08199  1.0000
  H   H269      1.0  0.24376  0.95095  0.16449  1.0000
  C   C280      1.0  0.43305  0.95921  0.09185  1.0000
  C   C281      1.0  0.00101  0.70616  0.18480  1.0000
  H   H270      1.0  0.21650  0.92378  0.04823  1.0000
  N   N24       1.0  0.23179  0.85177  0.12197  1.0000
  C   C282      1.0  0.10795  0.60124  0.12505  1.0000
  C   C283      1.0  0.07013  0.84744  0.19949  1.0000
  C   C284      1.0  0.41006  0.53942  0.09109  1.0000
  C   C285      1.0  0.42741  0.52449  0.08752  1.0000
  C   C286      1.0  0.26961  0.98893  0.18301  1.0000
  C   C287      1.0  0.42534  0.57149  0.09387  1.0000
  N   N25       1.0  0.06749  0.89508  0.21840  1.0000
  H   H271      1.0  0.19516  0.76520  0.10979  1.0000
  H   H272      1.0  0.41211  0.58326  0.09664  1.0000
  C   C288      1.0  0.20083  0.83341  0.12379  1.0000
  C   C289      1.0  0.26488  0.97218  0.16659  1.0000
  C   C290      1.0  0.26845  0.94806  0.01480  1.0000
  H   H273      1.0  0.02109  0.86248  0.22412  1.0000
  H   H274      1.0  0.10176  0.55515  0.12700  1.0000
  C   C291      1.0  0.02029  0.73797  0.18445  1.0000
  C   C292      1.0  0.03807  0.75066  0.16890  1.0000
  C   C293      1.0  0.03681  0.73193  0.15396  1.0000
  C   C294      1.0  0.01774  0.70011  0.15439  1.0000
  Fe  Fe57      1.0  0.31773  0.97798  0.06530  1.0000
  H   H275      1.0  0.05074  0.74213  0.14219  1.0000
  Fe  Fe58      1.0  0.21150  0.97753  0.24739  1.0000
  C   C295      1.0  0.46830  0.97249  0.04979  1.0000
  H   H276      1.0  0.24386  0.89546  0.04768  1.0000
  C   C296      1.0  0.44469  0.94207  0.04909  1.0000
  C   C297      1.0  0.18728  0.80193  0.11973  1.0000
  H   H277      1.0  0.02292  0.82010  0.20696  1.0000
  H   H278      1.0  0.05108  0.91139  0.24035  1.0000
  C   C298      1.0  0.33190  0.99108  0.21986  1.0000
  C   C299      1.0  0.28833  0.93991  0.00575  1.0000
  C   C300      1.0  0.45530  0.53343  0.13285  1.0000
  C   C301      1.0  0.45766  0.58843  0.09339  1.0000
  S   S112      1.0  0.41237  0.97979  0.08860  1.0000
  C   C302      1.0  0.20558  0.78934  0.11364  1.0000
  N   N26       1.0  0.06532  0.60824  0.13455  1.0000
  H   H279      1.0  0.27863  0.88018  0.03226  1.0000
  C   C303      1.0  0.43643  0.91178  0.09323  1.0000
  C   C304      1.0  0.47499  0.57332  0.09032  1.0000
  H   H280      1.0  0.46878  0.52688  0.12346  1.0000
  C   C305      1.0  0.09403  0.90031  0.20992  1.0000
  S   S113      1.0  0.36963  0.51865  0.09356  1.0000
  H   H281      1.0  0.42517  0.88692  0.09329  1.0000
  C   C306      1.0  0.41863  0.92708  0.09215  1.0000
  H   H282      1.0  0.07114  0.82848  0.19251  1.0000
  C   C307      1.0  0.28706  0.98268  0.15285  1.0000
  C   C308      1.0  0.45969  0.54136  0.08717  1.0000
  C   C309      1.0  0.99977  0.68740  0.16987  1.0000
  H   H283      1.0  0.39386  0.91405  0.09130  1.0000
  H   H284      1.0  0.11725  0.88047  0.19437  1.0000
  H   H285      1.0  0.03587  0.62198  0.14838  1.0000
  H   H286      1.0  0.24776  0.96261  0.04795  1.0000
  C   C310      1.0  0.11976  0.87885  0.24364  1.0000
  S   S114      1.0  0.25855  0.98156  0.24665  1.0000
  C   C311      1.0  0.46871  0.92842  0.09383  1.0000
  C   C312      1.0  0.27568  0.89909  0.02707  1.0000
  H   H287      1.0  0.13031  0.61037  0.11880  1.0000
  H   H288      1.0  0.03601  0.62462  0.12397  1.0000
  H   H289      1.0  0.26677  0.96807  0.01037  1.0000
  C   C313      1.0  0.08949  0.86241  0.24970  1.0000
  C   C314      1.0  0.46527  0.97582  0.09304  1.0000
  H   H290      1.0  0.07540  0.83895  0.24519  1.0000
  C   C315      1.0  0.45204  0.91812  0.04840  1.0000
  H   H291      1.0  0.05617  0.93137  0.21915  1.0000
  C   C316      1.0  0.03819  0.49752  0.03273  1.0000
  H   H292      1.0  0.40283  0.53678  0.13131  1.0000
  C   C317      1.0  0.24549  0.88494  0.12539  1.0000
  H   H293      1.0  0.06766  0.65249  0.13748  1.0000
  C   C318      1.0  0.23309  0.94208  0.03935  1.0000
  H   H294      1.0  0.26853  0.89411  0.13195  1.0000
  C   C319      1.0  0.09414  0.61996  0.12749  1.0000
  C   C320      1.0  0.04299  0.84261  0.20775  1.0000
  C   C321      1.0  0.24984  0.83970  0.11577  1.0000
  C   C322      1.0  0.06581  0.92020  0.22819  1.0000
  C   C323      1.0  0.04207  0.86675  0.21728  1.0000
  H   H295      1.0  0.25134  0.79908  0.10614  1.0000
  H   H296      1.0  0.08887  0.93772  0.23320  1.0000
  H   H297      1.0  0.01087  0.53849  0.10004  1.0000
  H   H298      1.0  0.18627  0.84321  0.12783  1.0000
  C   C324      1.0  0.09190  0.57026  0.12958  1.0000
  Fe  Fe59      1.0  0.00117  0.75804  0.23090  1.0000
  H   H299      1.0  0.30786  0.90919  0.00535  1.0000
  H   H300      1.0  0.46227  0.99082  0.05116  1.0000
  H   H301      1.0  0.43404  0.89441  0.04873  1.0000
  H   H302      1.0  0.02604  0.56823  0.14385  1.0000
  H   H303      1.0  0.05308  0.77520  0.16842  1.0000
  H   H304      1.0  0.24811  0.89707  0.11240  1.0000
  C   C325      1.0  0.23707  0.80831  0.11162  1.0000
  C   C326      1.0  0.25600  0.90788  0.03578  1.0000
  H   H305      1.0  0.23132  0.89089  0.13456  1.0000
  C   C327      1.0  0.05052  0.62773  0.13617  1.0000
  H   H306      1.0  0.04928  0.53403  0.13936  1.0000
  C   C328      1.0  0.06239  0.55841  0.13655  1.0000
  C   C329      1.0  0.00821  0.68886  0.01361  1.0000
  H   H307      1.0  0.25225  0.98046  0.19337  1.0000
  S   S115      1.0  0.27916  0.96049  0.13232  1.0000
  H   H308      1.0  0.12876  0.86770  0.23465  1.0000
  H   H309      1.0  0.05991  0.51838  0.03459  1.0000
  C   C330      1.0  0.04932  0.57783  0.13892  1.0000
  H   H310      1.0  0.46687  0.53951  0.14636  1.0000
  H   H311      1.0  0.46914  0.61301  0.09592  1.0000
  C   C331      1.0  0.31651  0.96060  0.22538  1.0000
  H   H312      1.0  0.42092  0.93716  0.05002  1.0000
  S   S116      1.0  0.17462  0.92985  0.23891  1.0000
  H   H313      1.0  0.45559  0.55431  0.12718  1.0000
  C   C332      1.0  0.29202  0.91533  0.01200  1.0000
  H   H314      1.0  0.30592  0.94219  0.21533  1.0000
  C   C333      1.0  0.39947  0.51384  0.13393  1.0000
  N   N27       1.0  0.25253  0.93204  0.02958  1.0000
  N   N28       1.0  0.42392  0.50812  0.13449  1.0000
  H   H315      1.0  0.48877  0.90638  0.04819  1.0000
  H   H316      1.0  0.21975  0.94835  0.02969  1.0000
  H   H317      1.0  0.41601  0.49986  0.08534  1.0000
  H   H318      1.0  0.35702  0.99158  0.02526  1.0000
  C   C334      1.0  0.13809  0.90981  0.24860  1.0000
  C   C335      1.0  0.48303  0.96054  0.09391  1.0000
  H   H319      1.0  0.30194  0.93047  0.24833  1.0000
  C   C336      1.0  0.48276  0.92482  0.04812  1.0000
  H   H320      1.0  0.02683  0.49468  0.06088  1.0000
  C   C337      1.0  0.42495  0.96202  0.40244  1.0000
  C   C338      1.0  0.12502  0.86596  0.28989  1.0000
  H   H321      1.0  0.23498  0.86646  0.37263  1.0000
  C   C339      1.0  0.23109  0.94181  0.36617  1.0000
  C   C340      1.0  0.99612  0.63259  0.37188  1.0000
  H   H322      1.0  0.36418  0.97804  0.49297  1.0000
  H   H323      1.0  0.22300  0.89105  0.39831  1.0000
  Fe  Fe60      1.0  0.03978  0.69691  0.44252  1.0000
  S   S117      1.0  0.07438  0.67985  0.43959  1.0000
  C   C341      1.0  0.45536  0.97411  0.39630  1.0000
  Fe  Fe61      1.0  0.03814  0.70626  0.40072  1.0000
  S   S118      1.0  0.07219  0.68937  0.39519  1.0000
  S   S119      1.0  0.01438  0.72179  0.37956  1.0000
  Fe  Fe62      1.0  0.04592  0.65255  0.41549  1.0000
  S   S120      1.0  0.02540  0.60075  0.41108  1.0000
  Fe  Fe63      1.0  0.09784  0.71849  0.41971  1.0000
  S   S121      1.0  0.15002  0.74750  0.42003  1.0000
  S   S122      1.0  0.00981  0.66752  0.41952  1.0000
  S   S123      1.0  0.06530  0.73743  0.42412  1.0000
  Fe  Fe64      1.0  0.34282  0.94143  0.42086  1.0000
  S   S124      1.0  0.37454  0.91992  0.42160  1.0000
  Fe  Fe65      1.0  0.27658  0.92460  0.43004  1.0000
  S   S125      1.0  0.28732  0.97424  0.42898  1.0000
  S   S126      1.0  0.22639  0.89119  0.43622  1.0000
  Fe  Fe66      1.0  0.31218  0.97593  0.40310  1.0000
  C   C342      1.0  0.47824  0.55991  0.45391  1.0000
  S   S127      1.0  0.29959  0.92571  0.40369  1.0000
  S   S128      1.0  0.31841  0.93610  0.44737  1.0000
  C   C343      1.0  0.46223  0.93649  0.41356  1.0000
  C   C344      1.0  0.43161  0.92393  0.41934  1.0000
  C   C345      1.0  0.41287  0.93671  0.41391  1.0000
  H   H324      1.0  0.00331  0.53574  0.40975  1.0000
  H   H325      1.0  0.42236  0.90421  0.42809  1.0000
  C   C346      1.0  0.17035  0.78823  0.42172  1.0000
  C   C347      1.0  0.20248  0.80344  0.41989  1.0000
  C   C348      1.0  0.21994  0.83529  0.42346  1.0000
  C   C349      1.0  0.20540  0.85214  0.42913  1.0000
  C   C350      1.0  0.17321  0.83719  0.43025  1.0000
  C   C351      1.0  0.15572  0.80544  0.42646  1.0000
  H   H326      1.0  0.21402  0.79033  0.41620  1.0000
  H   H327      1.0  0.24472  0.84649  0.42252  1.0000
  H   H328      1.0  0.16173  0.85009  0.43448  1.0000
  H   H329      1.0  0.13104  0.79410  0.42788  1.0000
  C   C352      1.0  0.46440  0.52953  0.44741  1.0000
  H   H330      1.0  0.02031  0.58570  0.44967  1.0000
  C   C353      1.0  0.47754  0.58571  0.40968  1.0000
  C   C354      1.0  0.07491  0.54212  0.40894  1.0000
  C   C355      1.0  0.09201  0.57441  0.40905  1.0000
  C   C356      1.0  0.07728  0.59277  0.40965  1.0000
  C   C357      1.0  0.04522  0.57893  0.40986  1.0000
  C   C358      1.0  0.02812  0.54666  0.40961  1.0000
  C   C359      1.0  0.04285  0.52832  0.40926  1.0000
  H   H331      1.0  0.11682  0.58527  0.40876  1.0000
  H   H332      1.0  0.09072  0.61757  0.40978  1.0000
  H   H333      1.0  0.31992  0.97168  0.31915  1.0000
  S   S129      1.0  0.03449  0.77838  0.25440  1.0000
  C   C360      1.0  0.43075  0.53622  0.41181  1.0000
  C   C361      1.0  0.46100  0.55395  0.40578  1.0000
  C   C362      1.0  0.43346  0.58260  0.42533  1.0000
  C   C363      1.0  0.41698  0.55072  0.42157  1.0000
  H   H334      1.0  0.19415  0.77605  0.45567  1.0000
  H   H335      1.0  0.42263  0.59362  0.43289  1.0000
  H   H336      1.0  0.39375  0.53735  0.42635  1.0000
  C   C364      1.0  0.38835  0.98937  0.49808  1.0000
  H   H337      1.0  0.24529  0.89089  0.34226  1.0000
  H   H338      1.0  0.04473  0.59608  0.46974  1.0000
  S   S130      1.0  0.09458  0.52010  0.40905  1.0000
  C   C365      1.0  0.23369  0.88752  0.37058  1.0000
  H   H339      1.0  0.09006  0.57758  0.45127  1.0000
  H   H340      1.0  0.28756  0.49958  0.37504  1.0000
  C   C366      1.0  0.23772  0.92830  0.35127  1.0000
  C   C367      1.0  0.10089  0.77543  0.47196  1.0000
  H   H341      1.0  0.12064  0.82442  0.47602  1.0000
  C   C368      1.0  0.01834  0.72408  0.31694  1.0000
  C   C369      1.0  0.01774  0.72380  0.35551  1.0000
  C   C370      1.0  0.03610  0.71409  0.34606  1.0000
  C   C371      1.0  0.03631  0.71417  0.32690  1.0000
  H   H342      1.0  0.04974  0.70607  0.35351  1.0000
  C   C372      1.0  0.00451  0.68262  0.48852  1.0000
  C   C373      1.0  0.08773  0.80279  0.29027  1.0000
  C   C374      1.0  0.06860  0.55666  0.45308  1.0000
  H   H343      1.0  0.19753  0.94269  0.39671  1.0000
  C   C375      1.0  0.12517  0.80534  0.47344  1.0000
  C   C376      1.0  0.32763  0.97823  0.25655  1.0000
  C   C377      1.0  0.30968  0.98313  0.32683  1.0000
  H   H344      1.0  0.08672  0.91868  0.27518  1.0000
  H   H345      1.0  0.41068  0.97187  0.39804  1.0000
  H   H346      1.0  0.43998  0.51450  0.44913  1.0000
  C   C378      1.0  0.10703  0.75116  0.46844  1.0000
  Fe  Fe67      1.0  0.99882  0.74296  0.27223  1.0000
  C   C379      1.0  0.46387  0.60021  0.41951  1.0000
  H   H347      1.0  0.05059  0.80746  0.32154  1.0000
  H   H348      1.0  0.12354  0.79987  0.27524  1.0000
  H   H349      1.0  0.15676  0.85676  0.27462  1.0000
  H   H350      1.0  0.08816  0.86802  0.30393  1.0000
  C   C380      1.0  0.22043  0.94404  0.39831  1.0000
  C   C381      1.0  0.00008  0.73405  0.34554  1.0000
  H   H351      1.0  0.47185  0.54293  0.39824  1.0000
  H   H352      1.0  0.47645  0.92657  0.41796  1.0000
  C   C382      1.0  0.07735  0.87668  0.26098  1.0000
  N   N29       1.0  0.04161  0.55773  0.45479  1.0000
  C   C383      1.0  0.13736  0.75713  0.46614  1.0000
  C   C384      1.0  0.47421  0.96159  0.40195  1.0000
  H   H353      1.0  0.13916  0.89075  0.28952  1.0000
  C   C385      1.0  0.09596  0.90748  0.26641  1.0000
  C   C386      1.0  0.11621  0.81502  0.28175  1.0000
  C   C387      1.0  0.09618  0.85297  0.29802  1.0000
  H   H354      1.0  0.20146  0.78893  0.47916  1.0000
  H   H355      1.0  0.14032  0.94802  0.26407  1.0000
  H   H356      1.0  0.02942  0.50353  0.40915  1.0000
  H   H357      1.0  0.20805  0.81575  0.46107  1.0000
  Fe  Fe68      1.0  0.01104  0.80640  0.26022  1.0000
  H   H358      1.0  0.99309  0.53203  0.45798  1.0000
  H   H359      1.0  0.03629  0.82287  0.30384  1.0000
  H   H360      1.0  0.44743  0.97622  0.44924  1.0000
  H   H361      1.0  0.24264  0.93949  0.33821  1.0000
  H   H362      1.0  0.17411  0.83382  0.47239  1.0000
  C   C388      1.0  0.01448  0.53120  0.45666  1.0000
  H   H363      1.0  0.00617  0.64244  0.47853  1.0000
  C   C389      1.0  0.00039  0.73426  0.32639  1.0000
  H   H364      1.0  0.05021  0.70613  0.31975  1.0000
  N   N30       1.0  0.07781  0.82179  0.29792  1.0000
  H   H365      1.0  0.03231  0.78524  0.30137  1.0000
  H   H366      1.0  0.23838  0.96860  0.39917  1.0000
  H   H367      1.0  0.23099  0.96353  0.36446  1.0000
  H   H368      1.0  0.39747  0.97287  0.49663  1.0000
  S   S131      1.0  0.01731  0.72100  0.29281  1.0000
  C   C390      1.0  0.04784  0.80876  0.30666  1.0000
  H   H369      1.0  0.22111  0.93348  0.41143  1.0000
  H   H370      1.0  0.06083  0.60482  0.44723  1.0000
  C   C391      1.0  0.22701  0.90163  0.38514  1.0000
  N   N31       1.0  0.16104  0.78651  0.46759  1.0000
  C   C392      1.0  0.19276  0.79209  0.46588  1.0000
  C   C393      1.0  0.13488  0.84684  0.28151  1.0000
  C   C394      1.0  0.15534  0.81047  0.47141  1.0000
  C   C395      1.0  0.01388  0.50261  0.45663  1.0000
  H   H371      1.0  0.07728  0.77089  0.47346  1.0000
  S   S132      1.0  0.02372  0.70674  0.46983  1.0000
  C   C396      1.0  0.12630  0.92409  0.26020  1.0000
  H   H372      1.0  0.46428  0.56811  0.46090  1.0000
  H   H373      1.0  0.07335  0.77801  0.29042  1.0000
  C   C397      1.0  0.23934  0.90114  0.35358  1.0000
  N   N32       1.0  0.22641  0.92876  0.38289  1.0000
  C   C398      1.0  0.99664  0.63121  0.33916  1.0000
  Fe  Fe69      1.0  0.33099  0.98580  0.44432  1.0000
  H   H374      1.0  0.08828  0.72788  0.46738  1.0000
  H   H375      1.0  0.00478  0.62571  0.32675  1.0000
  C   C399      1.0  0.04124  0.50135  0.45474  1.0000
  H   H376      1.0  0.09005  0.52756  0.45083  1.0000
  H   H377      1.0  0.14179  0.73817  0.46285  1.0000
  C   C400      1.0  0.06880  0.52846  0.45294  1.0000
  S   S133      1.0  0.03890  0.85684  0.26806  1.0000
  S   S134      1.0  0.35719  0.99171  0.41835  1.0000
  H   H378      1.0  0.02198  0.61580  0.35650  1.0000
  C   C401      1.0  0.00642  0.62551  0.35587  1.0000
  C   C402      1.0  0.48180  0.51916  0.43764  1.0000
  H   H379      1.0  0.30102  0.99290  0.48830  1.0000
  C   C403      1.0  0.04192  0.58752  0.45550  1.0000
  S   S135      1.0  0.48419  0.64003  0.42508  1.0000
  H   H380      1.0  0.00368  0.62848  0.38491  1.0000
  H   H381      1.0  0.47890  0.75650  0.43031  1.0000
  C   C404      1.0  0.99906  0.65218  0.48952  1.0000
  H   H382      1.0  0.47282  0.70382  0.43523  1.0000
  H   H383      1.0  0.32529  0.97299  0.27090  1.0000
  S   S136      1.0  0.41230  0.49582  0.40811  1.0000
  H   H384      1.0  0.32244  0.97220  0.35289  1.0000
  C   C405      1.0  0.31124  0.98345  0.34601  1.0000
  H   H385      1.0  0.46438  0.99342  0.38723  1.0000
  H   H386      1.0  0.47912  0.96001  0.46804  1.0000
  C   C406      1.0  0.47220  0.98728  0.44776  1.0000
  H   H387      1.0  0.47084  0.49605  0.43183  1.0000
  H   H388      1.0  0.20784  0.95203  0.72360  1.0000
  C   C407      1.0  0.11835  0.88119  0.70810  1.0000
  H   H389      1.0  0.10336  0.93907  0.72037  1.0000
  H   H390      1.0  0.30899  0.99165  0.74034  1.0000
  C   C408      1.0  0.46126  0.49649  0.56267  1.0000
  H   H391      1.0  0.20592  0.96953  0.70258  1.0000
  C   C409      1.0  0.10127  0.89590  0.71273  1.0000
  H   H392      1.0  0.07664  0.88255  0.71455  1.0000
  C   C410      1.0  0.99501  0.69477  0.50302  1.0000
  H   H393      1.0  0.20874  0.93490  0.70204  1.0000
  C   C411      1.0  0.11622  0.92759  0.71595  1.0000
  H   H394      1.0  0.10696  0.85636  0.70632  1.0000
  C   C412      1.0  0.15031  0.89847  0.70682  1.0000
  H   H395      1.0  0.34261  0.97360  0.52178  1.0000
  C   C413      1.0  0.19840  0.94727  0.70952  1.0000
  H   H396      1.0  0.00814  0.71325  0.65780  1.0000
  H   H397      1.0  0.16348  0.88669  0.70378  1.0000
  N   N33       1.0  0.16479  0.92959  0.70992  1.0000
  C   C414      1.0  0.14820  0.94414  0.71457  1.0000
  H   H398      1.0  0.15972  0.96851  0.71795  1.0000
  H   H399      1.0  0.99166  0.62468  0.62488  1.0000
  S   S137      1.0  0.00237  0.73746  0.74720  1.0000
  H   H400      1.0  0.99906  0.71825  0.50245  1.0000
  C   C415      1.0  0.36510  0.98886  0.52755  1.0000
  H   H401      1.0  0.30580  0.99389  0.67237  1.0000
  H   H402      1.0  0.00725  0.61008  0.64215  1.0000
  H   H403      1.0  0.99557  0.72592  0.68831  1.0000
  S   S138      1.0  0.07044  0.81960  0.74788  1.0000
  H   H404      1.0  0.45515  0.51379  0.56720  1.0000
  H   H405      1.0  0.34680  0.99066  0.55383  1.0000
  H   H406      1.0  0.13601  0.85683  0.74737  1.0000
  H   H407      1.0  0.34513  0.99308  0.74654  1.0000
  H   H408      1.0  0.33510  0.99352  0.72307  1.0000
  Fe  Fe70      1.0  0.01837  0.78842  0.75076  1.0000
  C   C416      1.0  0.00413  0.69190  0.99489  1.0000
  C   C417      1.0  0.14656  0.90358  0.75387  1.0000
  H   H409      1.0  0.07568  0.81600  0.78623  1.0000
  H   H410      1.0  0.06199  0.84334  0.80961  1.0000
  H   H411      1.0  0.01581  0.65696  0.94160  1.0000
  H   H412      1.0  0.06412  0.76826  0.77168  1.0000
  H   H413      1.0  0.02827  0.73232  0.81497  1.0000
  H   H414      1.0  0.02266  0.70967  0.98739  1.0000
  C   C418      1.0  0.06219  0.80335  0.79772  1.0000
  H   H415      1.0  0.09336  0.92574  0.76459  1.0000
  C   C419      1.0  0.08284  0.87898  0.75817  1.0000
  H   H416      1.0  0.03990  0.73271  0.78238  1.0000
  H   H417      1.0  0.03042  0.81454  0.83593  1.0000
  H   H418      1.0  0.08007  0.75407  0.78897  1.0000
  C   C420      1.0  0.05954  0.75612  0.78484  1.0000
  C   C421      1.0  0.05458  0.81898  0.81096  1.0000
  C   C422      1.0  0.03573  0.75671  0.81375  1.0000
  C   C423      1.0  0.03692  0.80285  0.82570  1.0000
  N   N34       1.0  0.05205  0.77242  0.79900  1.0000
  C   C424      1.0  0.02759  0.77154  0.82720  1.0000
  H   H419      1.0  0.03299  0.67124  0.96321  1.0000
  H   H420      1.0  0.05833  0.86986  0.75969  1.0000
  C   C425      1.0  0.02470  0.65087  0.95394  1.0000
  S   S139      1.0  0.15821  0.96402  0.76053  1.0000
  C   C426      1.0  0.10280  0.91072  0.76092  1.0000
  C   C427      1.0  0.13473  0.92335  0.75854  1.0000
  H   H421      1.0  0.04414  0.64678  0.95026  1.0000
  H   H422      1.0  0.01373  0.75862  0.83854  1.0000
  H   H423      1.0  0.30153  0.95330  0.99435  1.0000
  C   C428      1.0  0.99885  0.62112  0.98081  1.0000
  H   H424      1.0  0.17103  0.91281  0.75213  1.0000
  S   S140      1.0  0.25069  0.99086  0.75643  1.0000
  C   C429      1.0  0.09459  0.85936  0.75305  1.0000
  H   H425      1.0  0.01526  0.63974  0.98940  1.0000
  S   S141      1.0  0.99300  0.78203  0.77693  1.0000
  N   N35       1.0  0.00029  0.62347  0.96232  1.0000
  C   C430      1.0  0.12661  0.87180  0.75121  1.0000
  H   H426      1.0  0.91455  0.30015  0.20966  1.0000
  H   H427      1.0  0.63694  0.04716  0.09697  1.0000
  C   C431      1.0  0.93631  0.27119  0.18831  1.0000
  C   C432      1.0  0.60735  0.03759  0.00835  1.0000
  C   C433      1.0  0.70303  0.03563  0.05456  1.0000
  H   H428      1.0  0.97900  0.37574  0.17612  1.0000
  H   H429      1.0  0.71654  0.02687  0.08083  1.0000
  S   S142      1.0  0.75127  0.02949  0.23144  1.0000
  H   H430      1.0  0.62132  0.05135  0.07595  1.0000
  S   S143      1.0  0.98027  0.33938  0.20589  1.0000
  H   H431      1.0  0.94219  0.36045  0.01707  1.0000
  H   H432      1.0  0.65097  0.06081  0.04792  1.0000
  H   H433      1.0  0.93341  0.20197  0.21357  1.0000
  H   H434      1.0  0.68241  0.04160  0.09761  1.0000
  C   C434      1.0  0.95314  0.23297  0.19121  1.0000
  C   C435      1.0  0.64806  0.00056  0.14756  1.0000
  C   C436      1.0  0.61012  0.01581  0.01925  1.0000
  C   C437      1.0  0.97324  0.44246  0.06125  1.0000
  C   C438      1.0  0.96313  0.37123  0.00937  1.0000
  C   C439      1.0  0.67077  0.02473  0.15811  1.0000
  Fe  Fe71      1.0  0.69984  0.01051  0.23052  1.0000
  H   H435      1.0  0.88001  0.26768  0.20074  1.0000
  H   H436      1.0  0.65410  0.08420  0.08621  1.0000
  N   N36       1.0  0.91856  0.26017  0.20337  1.0000
  Fe  Fe72      1.0  0.98662  0.31616  0.23114  1.0000
  H   H437      1.0  0.69451  0.03893  0.18413  1.0000
  H   H438      1.0  0.94869  0.30156  0.01181  1.0000
  H   H439      1.0  0.90272  0.22620  0.22394  1.0000
  C   C440      1.0  0.90042  0.27466  0.20970  1.0000
  H   H440      1.0  0.98563  0.45246  0.07428  1.0000
  H   H441      1.0  0.71758  0.02875  0.04703  1.0000
  C   C441      1.0  0.52318  0.01061  0.05113  1.0000
  C   C442      1.0  0.93428  0.22130  0.20623  1.0000
  S   S144      1.0  0.70125  0.04749  0.24931  1.0000
  H   H442      1.0  0.96649  0.41754  0.06134  1.0000
  C   C443      1.0  0.95414  0.25804  0.18213  1.0000
  C   C444      1.0  0.91700  0.23524  0.21213  1.0000
  H   H443      1.0  0.68476  0.04632  0.03062  1.0000
  H   H444      1.0  0.93751  0.29095  0.18134  1.0000
  N   N37       1.0  0.66413  0.05126  0.07371  1.0000
  C   C445      1.0  0.68297  0.04282  0.08291  1.0000
  C   C446      1.0  0.66541  0.05348  0.05521  1.0000
  C   C447      1.0  0.70246  0.03458  0.07348  1.0000
  C   C448      1.0  0.68462  0.04542  0.04534  1.0000
  C   C449      1.0  0.67712  0.02008  0.17620  1.0000
  H   H445      1.0  0.68346  0.04727  0.15230  1.0000
  H   H446      1.0  0.89265  0.26824  0.22387  1.0000
  C   C450      1.0  0.64318  0.05901  0.08370  1.0000
  H   H447      1.0  0.59432  0.04856  0.01318  1.0000
  H   H448      1.0  0.96156  0.42260  0.02711  1.0000
  C   C451      1.0  0.98293  0.44386  0.02872  1.0000
  S   S145      1.0  0.64078  0.00783  0.12484  1.0000
  H   H449      1.0  0.95232  0.44528  0.06080  1.0000
  H   H450      1.0  0.53949  0.01288  0.06223  1.0000
  H   H451      1.0  0.53601  0.01710  0.03819  1.0000
  H   H452      1.0  0.51440  0.02706  0.05417  1.0000
  H   H453      1.0  0.89290  0.27900  0.00530  1.0000
  H   H454      1.0  0.96896  0.26765  0.17055  1.0000
  S   S146      1.0  0.59269  0.00767  0.04102  1.0000
  H   H455      1.0  0.96709  0.22272  0.18672  1.0000
  C   C452      1.0  0.62721  0.00199  0.01279  1.0000
  H   H456      1.0  0.55183  0.04431  0.41200  1.0000
  C   C453      1.0  0.78554  0.12097  0.29746  1.0000
  C   C454      1.0  0.82396  0.14125  0.25223  1.0000
  Fe  Fe73      1.0  0.69689  0.01659  0.27268  1.0000
  S   S147      1.0  0.74801  0.03599  0.27633  1.0000
  C   C455      1.0  0.95708  0.35193  0.42806  1.0000
  H   H457      1.0  0.96933  0.37746  0.42873  1.0000
  C   C456      1.0  0.53499  0.01424  0.44239  1.0000
  H   H458      1.0  0.70554  0.07170  0.33723  1.0000
  C   C457      1.0  0.93147  0.33178  0.47596  1.0000
  C   C458      1.0  0.53172  0.04554  0.41778  1.0000
  H   H459      1.0  0.55955  0.02448  0.44029  1.0000
  H   H460      1.0  0.97015  0.34434  0.41897  1.0000
  H   H461      1.0  0.68269  0.09989  0.49507  1.0000
  C   C459      1.0  0.61226  0.01892  0.48560  1.0000
  H   H462      1.0  0.61043  0.06138  0.48904  1.0000
  H   H463      1.0  0.98755  0.32465  0.44262  1.0000
  C   C460      1.0  0.69102  0.07812  0.31077  1.0000
  C   C461      1.0  0.68313  0.00224  0.34690  1.0000
  C   C462      1.0  0.71284  0.08113  0.32382  1.0000
  C   C463      1.0  0.97144  0.32639  0.45184  1.0000
  C   C464      1.0  0.73163  0.10334  0.28927  1.0000
  S   S148      1.0  0.65998  0.00723  0.29400  1.0000
  H   H464      1.0  0.95506  0.41491  0.49029  1.0000
  H   H465      1.0  0.68342  0.08548  0.28288  1.0000
  Fe  Fe74      1.0  0.98500  0.32086  0.27336  1.0000
  C   C465      1.0  0.84463  0.12946  0.25193  1.0000
  H   H466      1.0  0.70551  0.00981  0.32085  1.0000
  C   C466      1.0  0.68462  0.00513  0.32784  1.0000
  C   C467      1.0  0.74390  0.09526  0.31923  1.0000
  H   H467      1.0  0.79172  0.14114  0.28864  1.0000
  H   H468      1.0  0.79033  0.10418  0.28988  1.0000
  N   N38       1.0  0.75298  0.10663  0.30221  1.0000
  H   H469      1.0  0.76063  0.09682  0.32932  1.0000
  H   H470      1.0  0.80080  0.12927  0.30964  1.0000
  H   H471      1.0  0.73863  0.11151  0.27562  1.0000
  H   H472      1.0  0.92190  0.35467  0.45424  1.0000
  N   N39       1.0  0.51733  0.02250  0.43187  1.0000
  S   S149      1.0  0.98591  0.35496  0.29496  1.0000
  N   N40       1.0  0.95405  0.33969  0.44640  1.0000
  H   H473      1.0  0.53917  0.06891  0.42346  1.0000
  H   H474      1.0  0.66674  0.06613  0.31392  1.0000
  C   C468      1.0  0.61434  0.04418  0.49575  1.0000
  H   H475      1.0  0.89233  0.14011  0.25205  1.0000
  C   C469      1.0  0.70037  0.08899  0.29333  1.0000
  S   S150      1.0  0.60402  0.01674  0.46188  1.0000
  C   C470      1.0  0.61733  0.99687  0.49450  1.0000
  C   C471      1.0  0.96743  0.40351  0.49548  1.0000
  C   C472      1.0  0.65918  0.00228  0.31792  1.0000
  C   C473      1.0  0.96909  0.31530  0.46947  1.0000
  S   S151      1.0  0.59531  0.00572  0.41169  1.0000
  C   C474      1.0  0.93453  0.34280  0.45827  1.0000
  H   H476      1.0  0.93413  0.34409  0.42167  1.0000
  H   H477      1.0  0.70297  0.00458  0.35445  1.0000
  H   H478      1.0  0.82006  0.18283  0.25367  1.0000
  H   H479      1.0  0.51555  0.04095  0.40617  1.0000
  H   H480      1.0  0.91669  0.33509  0.48552  1.0000
  Fe  Fe75      1.0  0.74293  0.99950  0.25582  1.0000
  H   H481      1.0  0.98356  0.30953  0.32115  1.0000
  C   C475      1.0  0.63225  0.99621  0.32729  1.0000
  C   C476      1.0  0.86777  0.19350  0.25408  1.0000
  C   C477      1.0  0.83578  0.17339  0.25336  1.0000
  C   C478      1.0  0.94885  0.31792  0.48156  1.0000
  Fe  Fe76      1.0  0.75260  0.06464  0.25173  1.0000
  H   H482      1.0  0.98337  0.30538  0.47388  1.0000
  H   H483      1.0  0.87636  0.21807  0.25507  1.0000
  C   C479      1.0  0.65615  0.99615  0.35626  1.0000
  H   H484      1.0  0.94750  0.31037  0.49548  1.0000
  S   S152      1.0  0.94850  0.29590  0.25167  1.0000
  Fe  Fe77      1.0  0.96138  0.25808  0.25415  1.0000
  C   C480      1.0  0.88847  0.18171  0.25348  1.0000
  C   C481      1.0  0.87662  0.14958  0.25247  1.0000
  S   S153      1.0  0.92918  0.20585  0.25341  1.0000
  S   S154      1.0  0.78328  0.11716  0.25124  1.0000
  H   H485      1.0  0.83603  0.10486  0.25108  1.0000
  Fe  Fe78      1.0  0.93734  0.35805  0.56406  1.0000
  S   S155      1.0  0.90252  0.37508  0.56330  1.0000
  C   C482      1.0  0.51128  0.11315  0.59513  1.0000
  Fe  Fe79      1.0  0.93063  0.34750  0.60592  1.0000
  S   S156      1.0  0.89617  0.36486  0.60776  1.0000
  C   C483      1.0  0.95039  0.30846  0.66348  1.0000
  Fe  Fe80      1.0  0.87494  0.33620  0.58243  1.0000
  S   S157      1.0  0.82270  0.30711  0.58153  1.0000
  Fe  Fe81      1.0  0.92655  0.40194  0.58861  1.0000
  S   S158      1.0  0.94542  0.45385  0.59136  1.0000
  S   S159      1.0  0.90785  0.31715  0.58137  1.0000
  S   S160      1.0  0.96289  0.38665  0.58856  1.0000
  Fe  Fe82      1.0  0.63136  0.10792  0.59148  1.0000
  S   S161      1.0  0.61760  0.05767  0.59309  1.0000
  S   S162      1.0  0.59986  0.12899  0.59649  1.0000
  Fe  Fe83      1.0  0.69883  0.12717  0.58528  1.0000
  S   S163      1.0  0.68939  0.07795  0.58629  1.0000
  S   S164      1.0  0.74955  0.16037  0.58035  1.0000
  Fe  Fe84      1.0  0.64784  0.06628  0.56869  1.0000
  S   S165      1.0  0.63832  0.02956  0.54663  1.0000
  Fe  Fe85      1.0  0.66032  0.07302  0.61052  1.0000
  S   S166      1.0  0.65982  0.04292  0.63420  1.0000
  S   S167      1.0  0.65921  0.11590  0.56597  1.0000
  S   S168      1.0  0.67211  0.12289  0.61068  1.0000
  Fe  Fe86      1.0  0.71720  0.04147  0.73913  1.0000
  S   S169      1.0  0.70978  0.06905  0.71648  1.0000
  S   S170      1.0  0.75965  0.03604  0.73818  1.0000
  C   C484      1.0  0.80450  0.04858  0.70257  1.0000
  H   H486      1.0  0.83298  0.07845  0.73675  1.0000
  Fe  Fe87      1.0  0.93561  0.25498  0.74560  1.0000
  C   C485      1.0  0.69432  0.10241  0.50801  1.0000
  C   C486      1.0  0.72009  0.13245  0.53474  1.0000
  C   C487      1.0  0.67463  0.05094  0.65689  1.0000
  C   C488      1.0  0.67167  0.02644  0.66776  1.0000
  C   C489      1.0  0.68230  0.03143  0.68596  1.0000
  C   C490      1.0  0.69587  0.06107  0.69360  1.0000
  C   C491      1.0  0.69889  0.08559  0.68272  1.0000
  C   C492      1.0  0.68848  0.08064  0.66448  1.0000
  H   H487      1.0  0.94324  0.28572  0.65786  1.0000
  H   H488      1.0  0.74473  0.04676  0.67855  1.0000
  H   H489      1.0  0.70936  0.10863  0.68846  1.0000
  H   H490      1.0  0.69106  0.09976  0.65634  1.0000
  C   C493      1.0  0.62686  0.02557  0.52336  1.0000
  H   H491      1.0  0.76895  0.01396  0.68545  1.0000
  C   C494      1.0  0.61782  0.12228  0.64522  1.0000
  H   H492      1.0  0.62306  0.06705  0.52206  1.0000
  C   C495      1.0  0.76510  0.05551  0.68718  1.0000
  H   H493      1.0  0.76598  0.09880  0.69257  1.0000
  C   C496      1.0  0.54282  0.08003  0.58716  1.0000
  C   C497      1.0  0.55949  0.11079  0.59282  1.0000
  C   C498      1.0  0.54355  0.12726  0.59673  1.0000
  H   H494      1.0  0.90094  0.44877  0.55170  1.0000
  H   H495      1.0  0.55477  0.06708  0.58410  1.0000
  H   H496      1.0  0.55623  0.15106  0.60113  1.0000
  H   H497      1.0  0.81143  0.11797  0.71292  1.0000
  H   H498      1.0  0.97748  0.38996  0.68365  1.0000
  H   H499      1.0  0.62833  0.07422  0.64891  1.0000
  C   C499      1.0  0.86914  0.18322  0.74769  1.0000
  H   H500      1.0  0.72897  0.15365  0.54268  1.0000
  H   H501      1.0  0.49933  0.12608  0.59827  1.0000
  C   C500      1.0  0.80242  0.26634  0.57996  1.0000
  C   C501      1.0  0.81752  0.24889  0.57723  1.0000
  C   C502      1.0  0.80078  0.21652  0.57696  1.0000
  C   C503      1.0  0.76888  0.20116  0.57968  1.0000
  C   C504      1.0  0.75367  0.21855  0.58223  1.0000
  C   C505      1.0  0.77038  0.25097  0.58227  1.0000
  H   H502      1.0  0.84210  0.26036  0.57533  1.0000
  H   H503      1.0  0.81272  0.20329  0.57480  1.0000
  H   H504      1.0  0.72911  0.20708  0.58425  1.0000
  H   H505      1.0  0.75845  0.26426  0.58433  1.0000
  C   C506      1.0  0.92419  0.47408  0.59306  1.0000
  C   C507      1.0  0.95946  0.31462  0.68189  1.0000
  C   C508      1.0  0.89222  0.45909  0.59458  1.0000
  C   C509      1.0  0.84188  0.08806  0.72318  1.0000
  H   H506      1.0  0.87976  0.43425  0.59513  1.0000
  N   N41       1.0  0.81629  0.07748  0.71009  1.0000
  H   H507      1.0  0.95741  0.47253  0.54872  1.0000
  C   C510      1.0  0.69745  0.07784  0.51498  1.0000
  C   C511      1.0  0.53385  0.46365  0.58975  1.0000
  C   C512      1.0  0.58669  0.03748  0.63788  1.0000
  H   H508      1.0  0.54505  0.45063  0.58523  1.0000
  N   N42       1.0  0.83366  0.24627  0.62349  1.0000
  C   C513      1.0  0.86045  0.27077  0.62942  1.0000
  C   C514      1.0  0.80740  0.24881  0.62195  1.0000
  C   C515      1.0  0.86145  0.29878  0.63391  1.0000
  C   C516      1.0  0.80776  0.27670  0.62592  1.0000
  C   C517      1.0  0.83502  0.30184  0.63187  1.0000
  C   C518      1.0  0.83368  0.21762  0.61819  1.0000
  H   H509      1.0  0.88141  0.26896  0.63045  1.0000
  H   H510      1.0  0.78624  0.22960  0.61694  1.0000
  H   H511      1.0  0.88284  0.31822  0.63846  1.0000
  H   H512      1.0  0.78734  0.27911  0.62369  1.0000
  H   H513      1.0  0.83585  0.32385  0.63450  1.0000
  H   H514      1.0  0.84278  0.20947  0.62947  1.0000
  H   H515      1.0  0.81021  0.19902  0.61459  1.0000
  H   H516      1.0  0.84828  0.22164  0.60607  1.0000
  C   C519      1.0  0.62145  0.04745  0.51450  1.0000
  H   H517      1.0  0.96062  0.37873  0.65126  1.0000
  S   S171      1.0  0.97129  0.27154  0.72394  1.0000
  C   C520      1.0  0.95081  0.33147  0.65223  1.0000
  H   H518      1.0  0.68815  0.05645  0.50723  1.0000
  H   H519      1.0  0.54313  0.00577  0.62571  1.0000
  N   N43       1.0  0.71090  0.08032  0.53163  1.0000
  C   C521      1.0  0.97522  0.37423  0.51944  1.0000
  C   C522      1.0  0.62465  0.00025  0.51323  1.0000
  H   H520      1.0  0.60983  0.12805  0.65799  1.0000
  H   H521      1.0  0.61819  0.13791  0.63435  1.0000
  C   C523      1.0  0.77718  0.08485  0.69496  1.0000
  C   C524      1.0  0.90025  0.49206  0.54966  1.0000
  Fe  Fe88      1.0  0.98032  0.31849  0.73289  1.0000
  H   H522      1.0  0.85162  0.46460  0.59670  1.0000
  H   H523      1.0  0.87565  0.48156  0.55164  1.0000
  C   C525      1.0  0.49456  0.08227  0.58974  1.0000
  H   H524      1.0  0.73375  0.10952  0.55444  1.0000
  C   C526      1.0  0.70559  0.12982  0.51803  1.0000
  C   C527      1.0  0.96012  0.38990  0.51273  1.0000
  C   C528      1.0  0.80282  0.09549  0.70653  1.0000
  H   H525      1.0  0.95933  0.29671  0.69020  1.0000
  S   S172      1.0  0.96448  0.35352  0.54009  1.0000
  C   C529      1.0  0.72264  0.10734  0.54136  1.0000
  S   S173      1.0  0.94111  0.32251  0.62883  1.0000
  H   H526      1.0  0.81427  0.03375  0.70603  1.0000
  H   H527      1.0  0.64188  0.12676  0.64720  1.0000
  N   N44       1.0  0.59734  0.09017  0.63996  1.0000
  C   C530      1.0  0.56903  0.08228  0.63268  1.0000
  C   C531      1.0  0.83835  0.16309  0.74317  1.0000
  C   C532      1.0  0.94615  0.48675  0.54794  1.0000
  H   H528      1.0  0.52694  0.04590  0.62129  1.0000
  C   C533      1.0  0.71386  0.05433  0.53886  1.0000
  H   H529      1.0  0.49781  0.04193  0.58154  1.0000
  H   H530      1.0  0.69654  0.03217  0.53260  1.0000
  H   H531      1.0  0.73724  0.05749  0.53637  1.0000
  C   C534      1.0  0.77878  0.03718  0.69099  1.0000
  H   H532      1.0  0.94226  0.39083  0.52066  1.0000
  C   C535      1.0  0.96964  0.34410  0.68929  1.0000
  C   C536      1.0  0.60608  0.06815  0.64290  1.0000
  C   C537      1.0  0.55810  0.02937  0.62999  1.0000
  C   C538      1.0  0.96007  0.36074  0.65973  1.0000
  H   H533      1.0  0.66093  0.00335  0.66208  1.0000
  H   H534      1.0  0.85432  0.11357  0.72452  1.0000
  C   C539      1.0  0.51052  0.06583  0.58573  1.0000
  C   C540      1.0  0.54905  0.05183  0.62750  1.0000
  H   H535      1.0  0.67970  0.01230  0.69412  1.0000
  H   H536      1.0  0.85882  0.08059  0.71894  1.0000
  H   H537      1.0  0.56207  0.09974  0.63041  1.0000
  H   H538      1.0  0.59417  0.02030  0.63979  1.0000
  C   C541      1.0  0.87634  0.47634  0.59540  1.0000
  C   C542      1.0  0.50248  0.44809  0.59406  1.0000
  H   H539      1.0  0.52337  0.48792  0.55232  1.0000
  C   C543      1.0  0.91435  0.47335  0.54961  1.0000
  H   H540      1.0  0.82628  0.17013  0.73362  1.0000
  H   H541      1.0  0.70927  0.05219  0.55366  1.0000
  S   S174      1.0  0.88657  0.22026  0.73857  1.0000
  H   H542      1.0  0.50776  0.43282  0.55267  1.0000
  C   C544      1.0  0.49943  0.48168  0.55422  1.0000
  H   H543      1.0  0.70298  0.14895  0.51292  1.0000
  S   S175      1.0  0.98567  0.35400  0.71165  1.0000
  H   H544      1.0  0.79876  0.11918  0.74822  1.0000
  C   C545      1.0  0.96960  0.36703  0.67812  1.0000
  H   H545      1.0  0.98597  0.30958  0.84355  1.0000
  C   C546      1.0  0.62302  0.08170  0.85542  1.0000
  H   H546      1.0  0.87413  0.27184  0.97319  1.0000
  Fe  Fe89      1.0  0.70459  0.01852  0.77854  1.0000
  S   S176      1.0  0.67359  0.00438  0.80344  1.0000
  S   S177      1.0  0.74638  0.01184  0.77976  1.0000
  C   C547      1.0  0.90923  0.23877  0.80400  1.0000
  C   C548      1.0  0.88463  0.17413  0.76007  1.0000
  Fe  Fe90      1.0  0.66916  0.08740  0.90015  1.0000
  S   S178      1.0  0.65051  0.12089  0.90137  1.0000
  S   S179      1.0  0.69371  0.09031  0.87335  1.0000
  Fe  Fe91      1.0  0.65472  0.07197  0.94103  1.0000
  S   S180      1.0  0.63612  0.10526  0.94458  1.0000
  S   S181      1.0  0.65736  0.04129  0.96337  1.0000
  Fe  Fe92      1.0  0.61195  0.08598  0.91781  1.0000
  S   S182      1.0  0.56061  0.06554  0.91176  1.0000
  Fe  Fe93      1.0  0.67674  0.13740  0.92777  1.0000
  S   S183      1.0  0.70475  0.18950  0.93139  1.0000
  S   S184      1.0  0.62871  0.05098  0.91484  1.0000
  S   S185      1.0  0.69709  0.10557  0.92601  1.0000
  Fe  Fe94      1.0  0.92270  0.35733  0.89670  1.0000
  S   S186      1.0  0.87430  0.34351  0.90530  1.0000
  C   C549      1.0  0.90380  0.25838  0.79291  1.0000
  Fe  Fe95      1.0  0.94523  0.36780  0.93709  1.0000
  S   S187      1.0  0.89835  0.35470  0.94774  1.0000
  C   C550      1.0  0.50649  0.06765  0.90838  1.0000
  Fe  Fe96      1.0  0.88135  0.31608  0.92703  1.0000
  S   S188      1.0  0.85111  0.26526  0.93303  1.0000
  Fe  Fe97      1.0  0.89586  0.38366  0.92494  1.0000
  S   S189      1.0  0.87493  0.41565  0.92806  1.0000
  S   S190      1.0  0.92874  0.32745  0.91741  1.0000
  S   S191      1.0  0.94375  0.39910  0.91537  1.0000
  Fe  Fe98      1.0  0.77030  0.05719  0.76594  1.0000
  C   C551      1.0  0.64141  0.01004  0.99569  1.0000
  H   H547      1.0  0.93920  0.36159  0.98345  1.0000
  C   C552      1.0  0.89525  0.45601  0.92509  1.0000
  C   C553      1.0  0.92551  0.47073  0.91898  1.0000
  C   C554      1.0  0.87989  0.47342  0.92771  1.0000
  H   H548      1.0  0.93767  0.45770  0.91697  1.0000
  H   H549      1.0  0.85648  0.46224  0.93246  1.0000
  C   C555      1.0  0.63854  0.03174  0.98473  1.0000
  C   C556      1.0  0.60751  0.03680  0.83624  1.0000
  H   H550      1.0  0.96714  0.31107  0.95521  1.0000
  C   C557      1.0  0.85973  0.19716  0.79500  1.0000
  C   C558      1.0  0.53851  0.47199  0.91502  1.0000
  C   C559      1.0  0.53288  0.13120  0.91295  1.0000
  C   C560      1.0  0.55163  0.11690  0.91320  1.0000
  C   C561      1.0  0.53846  0.08501  0.91095  1.0000
  C   C562      1.0  0.82273  0.13433  0.75143  1.0000
  Fe  Fe99      1.0  0.97802  0.30276  0.77374  1.0000
  H   H551      1.0  0.57621  0.13054  0.91512  1.0000
  H   H552      1.0  0.94580  0.34094  0.80259  1.0000
  S   S192      1.0  0.72971  0.06569  0.76661  1.0000
  C   C563      1.0  0.74542  0.21031  0.93316  1.0000
  C   C564      1.0  0.76019  0.24262  0.93252  1.0000
  C   C565      1.0  0.79252  0.25990  0.93274  1.0000
  C   C566      1.0  0.81039  0.24497  0.93379  1.0000
  C   C567      1.0  0.79562  0.21273  0.93491  1.0000
  C   C568      1.0  0.76333  0.19546  0.93449  1.0000
  H   H553      1.0  0.74653  0.25434  0.93161  1.0000
  H   H554      1.0  0.80356  0.28470  0.93200  1.0000
  H   H555      1.0  0.80923  0.20097  0.93586  1.0000
  H   H556      1.0  0.75232  0.17066  0.93519  1.0000
  C   C569      1.0  0.50617  0.45533  0.91564  1.0000
  C   C570      1.0  0.95093  0.30355  0.96627  1.0000
  S   S193      1.0  0.98714  0.38239  0.95591  1.0000
  C   C571      1.0  0.94220  0.34541  0.84898  1.0000
  C   C572      1.0  0.95954  0.33084  0.85355  1.0000
  H   H557      1.0  0.85671  0.42333  0.88775  1.0000
  H   H558      1.0  0.49609  0.04297  0.90660  1.0000
  H   H559      1.0  0.81132  0.21448  0.78038  1.0000
  H   H560      1.0  0.94672  0.47418  0.86663  1.0000
  H   H561      1.0  0.72387  0.10135  0.83920  1.0000
  C   C573      1.0  0.88714  0.20789  0.80501  1.0000
  H   H562      1.0  0.51521  0.14648  0.94927  1.0000
  H   H563      1.0  0.56811  0.01636  0.89068  1.0000
  H   H564      1.0  0.84980  0.46967  0.88695  1.0000
  C   C574      1.0  0.68851  0.06515  0.85461  1.0000
  C   C575      1.0  0.66650  0.03403  0.85436  1.0000
  C   C576      1.0  0.66248  0.01562  0.83871  1.0000
  C   C577      1.0  0.68047  0.02800  0.82319  1.0000
  C   C578      1.0  0.70275  0.05898  0.82359  1.0000
  C   C579      1.0  0.70669  0.07738  0.83917  1.0000
  H   H565      1.0  0.65247  0.02422  0.86615  1.0000
  H   H566      1.0  0.54325  0.15592  0.91460  1.0000
  H   H567      1.0  0.71680  0.06886  0.81181  1.0000
  C   C580      1.0  0.94948  0.33773  0.81670  1.0000
  S   S194      1.0  0.81894  0.08998  0.77490  1.0000
  N   N45       1.0  0.76457  0.19484  0.88991  1.0000
  C   C581      1.0  0.76056  0.22031  0.88902  1.0000
  C   C582      1.0  0.79345  0.19771  0.88999  1.0000
  C   C583      1.0  0.78593  0.24972  0.88844  1.0000
  C   C584      1.0  0.81933  0.22679  0.88960  1.0000
  C   C585      1.0  0.81548  0.25291  0.88882  1.0000
  C   C586      1.0  0.73758  0.16434  0.89032  1.0000
  H   H568      1.0  0.73763  0.21799  0.88945  1.0000
  H   H569      1.0  0.79661  0.17752  0.89088  1.0000
  H   H570      1.0  0.78270  0.26993  0.88846  1.0000
  H   H571      1.0  0.84225  0.22919  0.89053  1.0000
  H   H572      1.0  0.83539  0.27561  0.88916  1.0000
  H   H573      1.0  0.72731  0.15734  0.87651  1.0000
  H   H574      1.0  0.74334  0.14655  0.89534  1.0000
  H   H575      1.0  0.72007  0.16443  0.89962  1.0000
  H   H576      1.0  0.63852  0.10573  0.85851  1.0000
  C   C587      1.0  0.82573  0.20552  0.77394  1.0000
  C   C588      1.0  0.50083  0.11376  0.91077  1.0000
  C   C589      1.0  0.62134  0.04544  0.99119  1.0000
  H   H577      1.0  0.64546  0.08126  0.83055  1.0000
  H   H578      1.0  0.88100  0.13829  0.77793  1.0000
  C   C590      1.0  0.87643  0.24681  0.78285  1.0000
  H   H579      1.0  0.61096  0.02583  0.82428  1.0000
  H   H580      1.0  0.52409  0.05608  0.95050  1.0000
  N   N46       1.0  0.90196  0.44603  0.87706  1.0000
  H   H581      1.0  0.92397  0.35997  0.82673  1.0000
  C   C591      1.0  0.97213  0.32025  0.83979  1.0000
  C   C592      1.0  0.92521  0.47295  0.87080  1.0000
  H   H582      1.0  0.49443  0.43078  0.91303  1.0000
  S   S195      1.0  0.92710  0.36090  0.86567  1.0000
  C   C593      1.0  0.55733  0.01532  0.87722  1.0000
  C   C594      1.0  0.91955  0.29044  0.96224  1.0000
  H   H583      1.0  0.84276  0.17305  0.79577  1.0000
  S   S196      1.0  0.98477  0.31077  0.80457  1.0000
  C   C595      1.0  0.94061  0.29835  0.99782  1.0000
  H   H584      1.0  0.61899  0.06224  0.98300  1.0000
  C   C596      1.0  0.98815  0.38488  0.98005  1.0000
  H   H585      1.0  0.59677  0.07471  0.87965  1.0000
  C   C597      1.0  0.96732  0.32371  0.82128  1.0000
  H   H586      1.0  0.96379  0.32831  0.86768  1.0000
  H   H587      1.0  0.93033  0.42406  0.87793  1.0000
  N   N47       1.0  0.85478  0.21658  0.78402  1.0000
  H   H588      1.0  0.89590  0.40595  0.89067  1.0000
  C   C598      1.0  0.90574  0.41843  0.87793  1.0000
  H   H589      1.0  0.65460  0.99923  0.99084  1.0000
  H   H590      1.0  0.89124  0.19230  0.81341  1.0000
  N   N48       1.0  0.58106  0.03330  0.86408  1.0000
  H   H591      1.0  0.55145  0.46005  0.91193  1.0000
  H   H592      1.0  0.53507  0.11010  0.95395  1.0000
  H   H593      1.0  0.54129  0.02502  0.87886  1.0000
  H   H594      1.0  0.83025  0.21334  0.75965  1.0000
  C   C599      1.0  0.50533  0.06141  0.95214  1.0000
  C   C600      1.0  0.89852  0.28166  0.97630  1.0000
  H   H595      1.0  0.49890  0.13820  0.97183  1.0000
  H   H596      1.0  0.93063  0.24761  0.81168  1.0000
  H   H597      1.0  0.91149  0.28718  0.94828  1.0000
  C   C601      1.0  0.87078  0.47062  0.88194  1.0000
  H   H598      1.0  0.89405  0.40284  0.86618  1.0000
  C   C602      1.0  0.83805  0.12546  0.76405  1.0000
  C   C603      1.0  0.87485  0.44451  0.88237  1.0000
  C   C604      1.0  0.86907  0.14524  0.76823  1.0000
  C   C605      1.0  0.59970  0.06395  0.86746  1.0000
  H   H599      1.0  0.90839  0.18951  0.76358  1.0000
  C   C606      1.0  0.62686  0.06800  0.83971  1.0000
  S   S197      1.0  0.96796  0.25435  0.76676  1.0000
  C   C607      1.0  0.96134  0.37196  0.99028  1.0000
  H   H600      1.0  0.87272  0.26210  0.77394  1.0000
  C   C608      1.0  0.93719  0.34862  0.83047  1.0000
  H   H601      1.0  0.92084  0.28239  0.79205  1.0000
  H   H602      1.0  0.81258  0.17998  0.77347  1.0000
  C   C609      1.0  0.51141  0.09198  0.95400  1.0000
  C   C610      1.0  0.49477  0.13117  0.95731  1.0000
  C   C611      1.0  0.58472  0.01961  0.84871  1.0000
  C   C612      1.0  0.90906  0.28563  0.99425  1.0000
  S   S198      1.0  0.94293  0.30190  0.75377  1.0000
  N   N49       1.0  0.96110  0.30745  0.98390  1.0000
  H   H603      1.0  0.57029  0.99524  0.84610  1.0000
  C   C613      1.0  0.60442  0.67381  0.01254  1.0000
  H   H604      1.0  0.56053  0.56835  0.05910  1.0000
  C   C614      1.0  0.56579  0.59447  0.02270  1.0000
  N   N50       1.0  0.68498  0.89553  0.21839  1.0000
  Fe  Fe100     1.0  0.69348  0.73312  0.23360  1.0000
  S   S199      1.0  0.66800  0.69919  0.21036  1.0000
  S   S200      1.0  0.72836  0.78263  0.23010  1.0000
  Fe  Fe101     1.0  0.60427  0.70031  0.10758  1.0000
  S   S201      1.0  0.55354  0.68526  0.10662  1.0000
  S   S202      1.0  0.63434  0.72945  0.13163  1.0000
  Fe  Fe102     1.0  0.60368  0.68185  0.06675  1.0000
  S   S203      1.0  0.55357  0.66731  0.06333  1.0000
  S   S204      1.0  0.63150  0.67194  0.04540  1.0000
  Fe  Fe103     1.0  0.56371  0.70983  0.07995  1.0000
  S   S205      1.0  0.54110  0.73962  0.07440  1.0000
  Fe  Fe104     1.0  0.54792  0.64420  0.09014  1.0000
  S   S206      1.0  0.51562  0.59259  0.09201  1.0000
  S   S207      1.0  0.61446  0.72640  0.08129  1.0000
  S   S208      1.0  0.59808  0.65731  0.09318  1.0000
  Fe  Fe105     1.0  0.60733  0.97362  0.10380  1.0000
  S   S209      1.0  0.57518  0.92297  0.10615  1.0000
  C   C615      1.0  0.96768  0.69875  0.11394  1.0000
  S   S210      1.0  0.55809  0.92334  0.06249  1.0000
  Fe  Fe106     1.0  0.54190  0.93194  0.08937  1.0000
  H   H605      1.0  0.50778  0.97361  0.09461  1.0000
  Fe  Fe107     1.0  0.59378  0.91846  0.07918  1.0000
  S   S211      1.0  0.61405  0.88607  0.07517  1.0000
  S   S212      1.0  0.62786  0.96896  0.07755  1.0000
  C   C616      1.0  0.97394  0.72880  0.08719  1.0000
  H   H606      1.0  0.93774  0.62938  0.02211  1.0000
  H   H607      1.0  0.71777  0.97177  0.21053  1.0000
  C   C617      1.0  0.55187  0.59722  0.00675  1.0000
  H   H608      1.0  0.56471  0.60447  0.06752  1.0000
  C   C618      1.0  0.56172  0.78031  0.07374  1.0000
  C   C619      1.0  0.59382  0.79623  0.07429  1.0000
  C   C620      1.0  0.60943  0.82860  0.07434  1.0000
  C   C621      1.0  0.59317  0.84540  0.07408  1.0000
  C   C622      1.0  0.56106  0.82952  0.07355  1.0000
  C   C623      1.0  0.54544  0.79710  0.07326  1.0000
  H   H609      1.0  0.60662  0.78363  0.07463  1.0000
  H   H610      1.0  0.63426  0.84070  0.07471  1.0000
  H   H611      1.0  0.54828  0.84218  0.07327  1.0000
  H   H612      1.0  0.52060  0.78496  0.07280  1.0000
  H   H613      1.0  0.62513  0.94451  0.17932  1.0000
  C   C624      1.0  0.52573  0.60097  0.00786  1.0000
  C   C625      1.0  0.56311  0.80055  0.11788  1.0000
  H   H614      1.0  0.69778  0.72229  0.02015  1.0000
  C   C626      1.0  0.62369  0.66501  0.02176  1.0000
  C   C627      1.0  0.98430  0.66639  0.02360  1.0000
  H   H615      1.0  0.65311  0.64421  0.01887  1.0000
  H   H616      1.0  0.59309  0.68447  0.01996  1.0000
  C   C628      1.0  0.65734  0.70789  0.18890  1.0000
  C   C629      1.0  0.64069  0.68385  0.17634  1.0000
  C   C630      1.0  0.63299  0.68984  0.15889  1.0000
  C   C631      1.0  0.64216  0.72009  0.15368  1.0000
  C   C632      1.0  0.65890  0.74413  0.16625  1.0000
  C   C633      1.0  0.66630  0.73811  0.18376  1.0000
  H   H617      1.0  0.63369  0.66037  0.18011  1.0000
  H   H618      1.0  0.62021  0.67110  0.14940  1.0000
  H   H619      1.0  0.66612  0.76760  0.16241  1.0000
  H   H620      1.0  0.67912  0.75687  0.19322  1.0000
  H   H621      1.0  0.66516  0.74150  0.00539  1.0000
  C   C634      1.0  0.94781  0.64276  0.11180  1.0000
  H   H622      1.0  0.51794  0.59805  0.05357  1.0000
  C   C635      1.0  0.68737  0.92390  0.21566  1.0000
  C   C636      1.0  0.63184  0.97157  0.15533  1.0000
  S   S213      1.0  0.66714  0.98360  0.20684  1.0000
  C   C637      1.0  0.63810  0.96695  0.17343  1.0000
  C   C638      1.0  0.56288  0.77215  0.11811  1.0000
  C   C639      1.0  0.56919  0.59292  0.05581  1.0000
  H   H623      1.0  0.61423  0.95278  0.14748  1.0000
  N   N51       1.0  0.59022  0.82740  0.11903  1.0000
  C   C640      1.0  0.59057  0.77137  0.11971  1.0000
  N   N52       1.0  0.55409  0.59561  0.03928  1.0000
  N   N53       1.0  0.74865  0.72230  0.20135  1.0000
  C   C641      1.0  0.73300  0.72524  0.18680  1.0000
  C   C642      1.0  0.77365  0.74747  0.20851  1.0000
  C   C643      1.0  0.74149  0.75414  0.17951  1.0000
  C   C644      1.0  0.78286  0.77672  0.20154  1.0000
  C   C645      1.0  0.76650  0.78005  0.18702  1.0000
  C   C646      1.0  0.73929  0.69175  0.20874  1.0000
  H   H624      1.0  0.71324  0.70524  0.18105  1.0000
  H   H625      1.0  0.78645  0.74518  0.21984  1.0000
  H   H626      1.0  0.72835  0.75635  0.16830  1.0000
  H   H627      1.0  0.80226  0.79667  0.20763  1.0000
  H   H628      1.0  0.77308  0.80266  0.18167  1.0000
  H   H629      1.0  0.74746  0.69327  0.22299  1.0000
  H   H630      1.0  0.71380  0.67799  0.20891  1.0000
  H   H631      1.0  0.74867  0.67948  0.20033  1.0000
  H   H632      1.0  0.52963  0.96059  0.04871  1.0000
  C   C647      1.0  0.66069  0.99113  0.18402  1.0000
  C   C648      1.0  0.74214  0.94561  0.21223  1.0000
  H   H633      1.0  0.94573  0.65316  0.07670  1.0000
  C   C649      1.0  0.52774  0.59801  0.04046  1.0000
  H   H634      1.0  0.64182  0.87631  0.23148  1.0000
  H   H635      1.0  0.66723  0.92720  0.21620  1.0000
  C   C650      1.0  0.63822  0.65118  0.01185  1.0000
  H   H636      1.0  0.96537  0.63556  0.10856  1.0000
  C   C651      1.0  0.50578  0.95550  0.04871  1.0000
  H   H637      1.0  0.97047  0.69787  0.12851  1.0000
  S   S214      1.0  0.97933  0.78847  0.23598  1.0000
  H   H638      1.0  0.75968  0.91344  0.21464  1.0000
  H   H639      1.0  0.63963  0.79812  0.12208  1.0000
  H   H640      1.0  0.61173  0.87573  0.11417  1.0000
  S   S215      1.0  0.57249  0.98289  0.08913  1.0000
  H   H641      1.0  0.72086  0.69678  0.00154  1.0000
  C   C652      1.0  0.95385  0.67383  0.08506  1.0000
  H   H642      1.0  0.59080  0.74957  0.11968  1.0000
  H   H643      1.0  0.64158  0.86068  0.20908  1.0000
  H   H644      1.0  0.58618  0.86280  0.13333  1.0000
  H   H645      1.0  0.94668  0.64400  0.12683  1.0000
  H   H646      1.0  0.54149  0.75090  0.11640  1.0000
  C   C653      1.0  0.96255  0.70194  0.07664  1.0000
  H   H647      1.0  0.59456  0.60447  0.05427  1.0000
  C   C654      1.0  0.71595  0.94929  0.21249  1.0000
  Fe  Fe108     1.0  0.59065  0.97423  0.06297  1.0000
  H   H648      1.0  0.98142  0.75082  0.08075  1.0000
  H   H649      1.0  0.63899  0.84808  0.12148  1.0000
  C   C655      1.0  0.69462  0.72053  0.00550  1.0000
  N   N54       1.0  0.95628  0.67249  0.10349  1.0000
  C   C656      1.0  0.61750  0.82682  0.12069  1.0000
  H   H650      1.0  0.57139  0.85599  0.11026  1.0000
  S   S216      1.0  0.49027  0.90830  0.09362  1.0000
  H   H651      1.0  0.92502  0.62497  0.10665  1.0000
  H   H652      1.0  0.65702  0.85030  0.22855  1.0000
  S   S217      1.0  0.96702  0.71964  0.24819  1.0000
  H   H653      1.0  0.62957  0.98516  0.02095  1.0000
  H   H654      1.0  0.70850  0.86892  0.21952  1.0000
  C   C657      1.0  0.95648  0.64677  0.01454  1.0000
  C   C658      1.0  0.65482  0.86935  0.22197  1.0000
  C   C659      1.0  0.71037  0.89141  0.21734  1.0000
  C   C660      1.0  0.61808  0.79879  0.12102  1.0000
  C   C661      1.0  0.58986  0.85689  0.11932  1.0000
  C   C662      1.0  0.51339  0.60112  0.02480  1.0000
  H   H655      1.0  0.54153  0.80096  0.11622  1.0000
  H   H656      1.0  0.58647  0.59221  0.02177  1.0000
  N   N55       1.0  0.49839  0.97881  0.04982  1.0000
  H   H657      1.0  0.76458  0.96547  0.21068  1.0000
  H   H658      1.0  0.96134  0.70286  0.06195  1.0000
  C   C663      1.0  0.73937  0.91643  0.21444  1.0000
  H   H659      1.0  0.98486  0.66284  0.17039  1.0000
  C   C664      1.0  0.97658  0.72727  0.10598  1.0000
  H   H660      1.0  0.98611  0.74806  0.11430  1.0000
  H   H661      1.0  0.98717  0.69600  0.19662  1.0000
  S   S218      1.0  0.98750  0.66229  0.04740  1.0000
  H   H662      1.0  0.97367  0.59418  0.00364  1.0000
  H   H663      1.0  0.49301  0.60392  0.02589  1.0000
  S   S219      1.0  0.80882  0.79455  0.24806  1.0000
  C   C665      1.0  0.86425  0.79423  0.24876  1.0000
  C   C666      1.0  0.83218  0.77629  0.24994  1.0000
  H   H664      1.0  0.87417  0.81870  0.24660  1.0000
  C   C667      1.0  0.88375  0.78084  0.25041  1.0000
  Fe  Fe109     1.0  0.75682  0.77366  0.25092  1.0000
  H   H665      1.0  0.90837  0.79494  0.24948  1.0000
  H   H666      1.0  0.56634  0.79504  0.47359  1.0000
  C   C668      1.0  0.59654  0.63658  0.32654  1.0000
  C   C669      1.0  0.50900  0.79423  0.44762  1.0000
  C   C670      1.0  0.83922  0.73131  0.25440  1.0000
  C   C671      1.0  0.79174  0.80171  0.30649  1.0000
  N   N56       1.0  0.76945  0.77678  0.31512  1.0000
  C   C672      1.0  0.79152  0.74560  0.30442  1.0000
  H   H667      1.0  0.75418  0.86596  0.25417  1.0000
  C   C673      1.0  0.81465  0.79921  0.29676  1.0000
  Fe  Fe110     1.0  0.70186  0.73742  0.27553  1.0000
  S   S220      1.0  0.69146  0.71124  0.30226  1.0000
  S   S221      1.0  0.73716  0.78730  0.27464  1.0000
  Fe  Fe111     1.0  0.59254  0.69535  0.39601  1.0000
  S   S222      1.0  0.55867  0.71160  0.40425  1.0000
  S   S223      1.0  0.60175  0.70470  0.36556  1.0000
  Fe  Fe112     1.0  0.59554  0.67495  0.43550  1.0000
  S   S224      1.0  0.56357  0.69179  0.44562  1.0000
  S   S225      1.0  0.60580  0.64413  0.45430  1.0000
  Fe  Fe113     1.0  0.53556  0.66855  0.42062  1.0000
  C   C674      1.0  0.52293  0.61100  0.45784  1.0000
  Fe  Fe114     1.0  0.58977  0.73309  0.42824  1.0000
  S   S226      1.0  0.60533  0.78164  0.43906  1.0000
  S   S227      1.0  0.56649  0.65034  0.41070  1.0000
  S   S228      1.0  0.62465  0.71842  0.41983  1.0000
  H   H668      1.0  0.95212  0.66115  0.35365  1.0000
  S   S229      1.0  0.56690  0.93905  0.39122  1.0000
  N   N57       1.0  0.50864  0.57932  0.45086  1.0000
  S   S230      1.0  0.54528  0.94395  0.43287  1.0000
  Fe  Fe115     1.0  0.56795  0.91949  0.41850  1.0000
  S   S231      1.0  0.54809  0.86737  0.41691  1.0000
  Fe  Fe116     1.0  0.54821  0.96628  0.40616  1.0000
  S   S232      1.0  0.97706  0.77233  0.27947  1.0000
  S   S233      1.0  0.61600  0.95600  0.42578  1.0000
  C   C675      1.0  0.87134  0.74924  0.25321  1.0000
  H   H669      1.0  0.56763  0.63557  0.34860  1.0000
  C   C676      1.0  0.69695  0.88400  0.26182  1.0000
  H   H670      1.0  0.50832  0.71786  0.42298  1.0000
  C   C677      1.0  0.59253  0.80693  0.43039  1.0000
  C   C678      1.0  0.56825  0.79691  0.41784  1.0000
  C   C679      1.0  0.55584  0.81632  0.41319  1.0000
  C   C680      1.0  0.56775  0.84600  0.42087  1.0000
  C   C681      1.0  0.59303  0.85662  0.43271  1.0000
  C   C682      1.0  0.60522  0.83705  0.43753  1.0000
  H   H671      1.0  0.55835  0.77385  0.41220  1.0000
  H   H672      1.0  0.53630  0.80795  0.40400  1.0000
  H   H673      1.0  0.60231  0.87934  0.43881  1.0000
  H   H674      1.0  0.62400  0.84496  0.44726  1.0000
  C   C683      1.0  0.61462  0.64997  0.47803  1.0000
  H   H675      1.0  0.61588  0.97735  0.48693  1.0000
  H   H676      1.0  0.67237  0.87322  0.26365  1.0000
  H   H677      1.0  0.62442  0.69725  0.47901  1.0000
  H   H678      1.0  0.60684  0.60365  0.48181  1.0000
  H   H679      1.0  0.95998  0.66723  0.32163  1.0000
  C   C684      1.0  0.81972  0.74469  0.25278  1.0000
  H   H680      1.0  0.72707  0.77768  0.31505  1.0000
  C   C685      1.0  0.67007  0.71374  0.32091  1.0000
  C   C686      1.0  0.66892  0.69805  0.33695  1.0000
  C   C687      1.0  0.64981  0.69687  0.35141  1.0000
  C   C688      1.0  0.63129  0.71106  0.34985  1.0000
  C   C689      1.0  0.63332  0.72763  0.33404  1.0000
  C   C690      1.0  0.65282  0.72928  0.31974  1.0000
  H   H681      1.0  0.68218  0.68595  0.33804  1.0000
  H   H682      1.0  0.64831  0.68379  0.36338  1.0000
  H   H683      1.0  0.61909  0.73866  0.33266  1.0000
  H   H684      1.0  0.65360  0.74166  0.30757  1.0000
  H   H685      1.0  0.79155  0.82355  0.30678  1.0000
  Fe  Fe117     1.0  0.61379  0.97656  0.39887  1.0000
  C   C691      1.0  0.81472  0.77106  0.29596  1.0000
  C   C692      1.0  0.76881  0.74884  0.31392  1.0000
  C   C693      1.0  0.97628  0.64521  0.37104  1.0000
  C   C694      1.0  0.96695  0.65061  0.35412  1.0000
  H   H686      1.0  0.75048  0.72878  0.32016  1.0000
  H   H687      1.0  0.73412  0.76144  0.33505  1.0000
  C   C695      1.0  0.74518  0.77974  0.32482  1.0000
  C   C696      1.0  0.60762  0.64859  0.30944  1.0000
  C   C697      1.0  0.57532  0.64343  0.33496  1.0000
  H   H688      1.0  0.59392  0.66470  0.27229  1.0000
  S   S234      1.0  0.69182  0.97848  0.25380  1.0000
  H   H689      1.0  0.54514  0.74289  0.46030  1.0000
  H   H690      1.0  0.83189  0.81876  0.28952  1.0000
  H   H691      1.0  0.70288  0.92991  0.26438  1.0000
  S   S235      1.0  0.72352  0.72347  0.25289  1.0000
  H   H692      1.0  0.50000  0.80928  0.44315  1.0000
  H   H693      1.0  0.56904  0.68809  0.30242  1.0000
  C   C698      1.0  0.63065  0.99303  0.34631  1.0000
  H   H694      1.0  0.62488  0.64402  0.30324  1.0000
  H   H695      1.0  0.53576  0.98516  0.46377  1.0000
  N   N58       1.0  0.61634  0.90638  0.37298  1.0000
  C   C699      1.0  0.58556  0.88915  0.36938  1.0000
  C   C700      1.0  0.63611  0.92234  0.35945  1.0000
  C   C701      1.0  0.57368  0.88889  0.35206  1.0000
  C   C702      1.0  0.62507  0.92232  0.34192  1.0000
  C   C703      1.0  0.59361  0.90579  0.33829  1.0000
  C   C704      1.0  0.62841  0.90689  0.39127  1.0000
  H   H696      1.0  0.56991  0.87608  0.38004  1.0000
  H   H697      1.0  0.66050  0.93609  0.36232  1.0000
  H   H698      1.0  0.54915  0.87600  0.34943  1.0000
  H   H699      1.0  0.64074  0.93583  0.33137  1.0000
  H   H700      1.0  0.58476  0.90631  0.32487  1.0000
  H   H701      1.0  0.63584  0.88903  0.39233  1.0000
  H   H702      1.0  0.64809  0.92990  0.39457  1.0000
  H   H703      1.0  0.61074  0.90249  0.40168  1.0000
  C   C705      1.0  0.76032  0.91218  0.25705  1.0000
  C   C706      1.0  0.60985  0.67963  0.28315  1.0000
  S   S236      1.0  0.51291  0.97895  0.39490  1.0000
  N   N59       1.0  0.50977  0.74606  0.44522  1.0000
  H   H704      1.0  0.54953  0.66810  0.33293  1.0000
  Fe  Fe118     1.0  0.59342  0.98233  0.43814  1.0000
  C   C707      1.0  0.57658  0.67329  0.30901  1.0000
  C   C708      1.0  0.74301  0.87985  0.25661  1.0000
  H   H705      1.0  0.83248  0.76891  0.28853  1.0000
  N   N60       1.0  0.59791  0.66704  0.30102  1.0000
  Fe  Fe119     1.0  0.70579  0.79159  0.25412  1.0000
  C   C709      1.0  0.62339  0.67828  0.48671  1.0000
  H   H706      1.0  0.82941  0.70686  0.25661  1.0000
  C   C710      1.0  0.74585  0.93047  0.25940  1.0000
  H   H707      1.0  0.60518  0.62302  0.33352  1.0000
  H   H708      1.0  0.79094  0.72343  0.30344  1.0000
  N   N61       1.0  0.97732  0.64382  0.33846  1.0000
  C   C711      1.0  0.53410  0.75672  0.45715  1.0000
  H   H709      1.0  0.54369  0.82863  0.46506  1.0000
  C   C712      1.0  0.56514  0.66178  0.32614  1.0000
  H   H710      1.0  0.75452  0.80224  0.33209  1.0000
  C   C713      1.0  0.96658  0.64867  0.32081  1.0000
  C   C714      1.0  0.54621  0.78629  0.46478  1.0000
  H   H711      1.0  0.52664  0.53117  0.42724  1.0000
  C   C715      1.0  0.49737  0.76447  0.44031  1.0000
  H   H712      1.0  0.96886  0.65165  0.38342  1.0000
  S   S237      1.0  0.76756  0.97087  0.25781  1.0000
  H   H713      1.0  0.61281  0.70328  0.28195  1.0000
  H   H714      1.0  0.61244  0.99402  0.31977  1.0000
  C   C716      1.0  0.71418  0.91620  0.26213  1.0000
  H   H715      1.0  0.63289  0.68152  0.28097  1.0000
  C   C717      1.0  0.52616  0.56910  0.44179  1.0000
  S   S238      1.0  0.65521  0.99161  0.38022  1.0000
  H   H716      1.0  0.98568  0.74147  0.35269  1.0000
  C   C718      1.0  0.71115  0.86573  0.25868  1.0000
  C   C719      1.0  0.52160  0.99195  0.45571  1.0000
  S   S239      1.0  0.68767  0.82580  0.25543  1.0000
  C   C720      1.0  0.61360  0.62567  0.48835  1.0000
  H   H717      1.0  0.55041  0.58449  0.43964  1.0000
  C   C721      1.0  0.49825  0.71562  0.43665  1.0000
  C   C722      1.0  0.53359  0.80514  0.45992  1.0000
  H   H718      1.0  0.98506  0.65612  0.31056  1.0000
  C   C723      1.0  0.51294  0.53896  0.43489  1.0000
  H   H719      1.0  0.60971  0.98826  0.35327  1.0000
  H   H720      1.0  0.50081  0.59894  0.40501  1.0000
  H   H721      1.0  0.54063  0.62655  0.44834  1.0000
  H   H722      1.0  0.79514  0.73058  0.25386  1.0000
  S   S240      1.0  0.66893  0.74231  0.25647  1.0000
  H   H723      1.0  0.94647  0.62714  0.31595  1.0000
  H   H724      1.0  0.50591  0.61953  0.45912  1.0000
  H   H725      1.0  0.53428  0.61268  0.47117  1.0000
  H   H726      1.0  0.50422  0.70035  0.44477  1.0000
  H   H727      1.0  0.78488  0.92309  0.25507  1.0000
  H   H728      1.0  0.98608  0.74153  0.31899  1.0000
  Fe  Fe120     1.0  0.94712  0.75160  0.25457  1.0000
  S   S241      1.0  0.89471  0.73101  0.25541  1.0000
  C   C724      1.0  0.48992  0.97807  0.45819  1.0000
  Fe  Fe121     1.0  0.64280  0.63688  0.56312  1.0000
  S   S242      1.0  0.62937  0.58664  0.56410  1.0000
  S   S243      1.0  0.64368  0.66577  0.53876  1.0000
  Fe  Fe122     1.0  0.65893  0.64628  0.60456  1.0000
  S   S244      1.0  0.64702  0.59681  0.60818  1.0000
  S   S245      1.0  0.67667  0.68429  0.62647  1.0000
  Fe  Fe123     1.0  0.67191  0.60216  0.58178  1.0000
  S   S246      1.0  0.70418  0.58257  0.57573  1.0000
  Fe  Fe124     1.0  0.60578  0.58569  0.59027  1.0000
  S   S247      1.0  0.55613  0.55376  0.59801  1.0000
  S   S248      1.0  0.68667  0.65233  0.57930  1.0000
  S   S249      1.0  0.61640  0.63526  0.58818  1.0000
  Fe  Fe125     1.0  0.93408  0.62908  0.56402  1.0000
  S   S250      1.0  0.88284  0.59840  0.56582  1.0000
  H   H729      1.0  0.73180  0.60380  0.53793  1.0000
  Fe  Fe126     1.0  0.93852  0.64547  0.60543  1.0000
  S   S251      1.0  0.88837  0.61448  0.60960  1.0000
  S   S252      1.0  0.97134  0.67369  0.62851  1.0000
  Fe  Fe127     1.0  0.89416  0.58090  0.59122  1.0000
  S   S253      1.0  0.87154  0.52945  0.59578  1.0000
  Fe  Fe128     1.0  0.88187  0.63488  0.58390  1.0000
  S   S254      1.0  0.84982  0.65609  0.58494  1.0000
  S   S255      1.0  0.94498  0.61015  0.58916  1.0000
  S   S256      1.0  0.93248  0.66746  0.58017  1.0000
  H   H730      1.0  0.62038  0.61069  0.51472  1.0000
  C   C725      1.0  0.98022  0.67685  0.51827  1.0000
  Fe  Fe129     1.0  0.75796  0.75800  0.74113  1.0000
  Fe  Fe130     1.0  0.69082  0.71411  0.73332  1.0000
  S   S257      1.0  0.66291  0.67573  0.71260  1.0000
  S   S258      1.0  0.72140  0.76288  0.72542  1.0000
  C   C726      1.0  0.92416  0.52349  0.59284  1.0000
  H   H731      1.0  0.59221  0.69993  0.65499  1.0000
  C   C727      1.0  0.88497  0.70779  0.64691  1.0000
  C   C728      1.0  0.92932  0.53078  0.63657  1.0000
  C   C729      1.0  0.88297  0.77193  0.74011  1.0000
  H   H732      1.0  0.63914  0.70467  0.51170  1.0000
  H   H733      1.0  0.93669  0.54823  0.59217  1.0000
  S   S259      1.0  0.72776  0.70885  0.74804  1.0000
  H   H734      1.0  0.93235  0.61003  0.64042  1.0000
  Fe  Fe131     1.0  0.96242  0.73522  0.73122  1.0000
  C   C730      1.0  0.96133  0.68103  0.65049  1.0000
  C   C731      1.0  0.63180  0.68243  0.50529  1.0000
  H   H735      1.0  0.56414  0.57253  0.64724  1.0000
  S   S260      1.0  0.80000  0.76359  0.72614  1.0000
  H   H736      1.0  0.68350  0.60772  0.51455  1.0000
  C   C732      1.0  0.90269  0.54285  0.54851  1.0000
  H   H737      1.0  0.49418  0.51035  0.60628  1.0000
  C   C733      1.0  0.93685  0.72311  0.62641  1.0000
  C   C734      1.0  0.77476  0.68092  0.54380  1.0000
  H   H738      1.0  0.95735  0.72849  0.61868  1.0000
  C   C735      1.0  0.74725  0.89932  0.74168  1.0000
  C   C736      1.0  0.58290  0.61638  0.63425  1.0000
  N   N62       1.0  0.91340  0.72740  0.65397  1.0000
  C   C737      1.0  0.67349  0.68110  0.65043  1.0000
  C   C738      1.0  0.68481  0.70815  0.66110  1.0000
  C   C739      1.0  0.68239  0.70691  0.68015  1.0000
  C   C740      1.0  0.66840  0.67852  0.68877  1.0000
  C   C741      1.0  0.65750  0.65146  0.67813  1.0000
  C   C742      1.0  0.66015  0.65270  0.65906  1.0000
  H   H739      1.0  0.69529  0.73025  0.65457  1.0000
  H   H740      1.0  0.69076  0.72792  0.68812  1.0000
  H   H741      1.0  0.64671  0.62937  0.68468  1.0000
  H   H742      1.0  0.65151  0.63169  0.65105  1.0000
  C   C743      1.0  0.74440  0.60272  0.57979  1.0000
  C   C744      1.0  0.76203  0.58801  0.57592  1.0000
  C   C745      1.0  0.79426  0.60380  0.57788  1.0000
  C   C746      1.0  0.80922  0.63463  0.58352  1.0000
  C   C747      1.0  0.79159  0.64932  0.58752  1.0000
  C   C748      1.0  0.75931  0.63341  0.58579  1.0000
  H   H743      1.0  0.75071  0.56429  0.57127  1.0000
  H   H744      1.0  0.80754  0.59223  0.57471  1.0000
  H   H745      1.0  0.80297  0.67320  0.59182  1.0000
  H   H746      1.0  0.74604  0.64504  0.58872  1.0000
  N   N63       1.0  0.71542  0.63635  0.53462  1.0000
  C   C749      1.0  0.83415  0.77280  0.73828  1.0000
  C   C750      1.0  0.92396  0.67390  0.67378  1.0000
  C   C751      1.0  0.90796  0.70315  0.61912  1.0000
  H   H747      1.0  0.86456  0.70153  0.65487  1.0000
  C   C752      1.0  0.89222  0.50858  0.59445  1.0000
  C   C753      1.0  0.72249  0.66668  0.53519  1.0000
  C   C754      1.0  0.63103  0.65827  0.51559  1.0000
  C   C755      1.0  0.61098  0.69381  0.65628  1.0000
  C   C756      1.0  0.97493  0.64648  0.51933  1.0000
  H   H748      1.0  0.78472  0.64308  0.54599  1.0000
  H   H749      1.0  0.75750  0.71334  0.54067  1.0000
  C   C757      1.0  0.94006  0.50633  0.59235  1.0000
  C   C758      1.0  0.57681  0.60998  0.66659  1.0000
  H   H750      1.0  0.58044  0.60661  0.62073  1.0000
  H   H751      1.0  0.88201  0.56268  0.63914  1.0000
  C   C759      1.0  0.75218  0.68939  0.53994  1.0000
  H   H752      1.0  0.98055  0.61091  0.50545  1.0000
  H   H753      1.0  0.62241  0.70180  0.66979  1.0000
  H   H754      1.0  0.62870  0.70645  0.64593  1.0000
  C   C760      1.0  0.49190  0.50449  0.55954  1.0000
  S   S261      1.0  0.95714  0.62283  0.53844  1.0000
  H   H755      1.0  0.59198  0.65168  0.68228  1.0000
  H   H756      1.0  0.97311  0.68663  0.52924  1.0000
  C   C761      1.0  0.95741  0.55790  0.63695  1.0000
  C   C762      1.0  0.90206  0.53251  0.63758  1.0000
  H   H757      1.0  0.93950  0.74978  0.67800  1.0000
  C   C763      1.0  0.96339  0.51851  0.54594  1.0000
  S   S262      1.0  0.74621  0.95443  0.74283  1.0000
  H   H758      1.0  0.85049  0.75274  0.71788  1.0000
  H   H759      1.0  0.90576  0.69358  0.60556  1.0000
  C   C764      1.0  0.93095  0.66683  0.65642  1.0000
  N   N64       1.0  0.91741  0.52325  0.54806  1.0000
  C   C765      1.0  0.85541  0.76474  0.73083  1.0000
  H   H760      1.0  0.96479  0.51806  0.59112  1.0000
  H   H761      1.0  0.90035  0.66290  0.67818  1.0000
  C   C766      1.0  0.57365  0.59721  0.64921  1.0000
  H   H762      1.0  0.56998  0.59533  0.67836  1.0000
  C   C767      1.0  0.98448  0.63433  0.50484  1.0000
  C   C768      1.0  0.98455  0.70214  0.66221  1.0000
  H   H763      1.0  0.91017  0.75989  0.67168  1.0000
  C   C769      1.0  0.76748  0.65002  0.54277  1.0000
  H   H764      1.0  0.91277  0.65067  0.64760  1.0000
  H   H765      1.0  0.90202  0.55137  0.53471  1.0000
  H   H766      1.0  0.75002  0.85688  0.74211  1.0000
  H   H767      1.0  0.90036  0.72309  0.68172  1.0000
  S   S263      1.0  0.93622  0.70501  0.70651  1.0000
  C   C770      1.0  0.90316  0.56116  0.63900  1.0000
  N   N65       1.0  0.95829  0.58591  0.63867  1.0000
  H   H768      1.0  0.66726  0.62069  0.53225  1.0000
  C   C771      1.0  0.53656  0.51301  0.59695  1.0000
  C   C772      1.0  0.88182  0.69533  0.62939  1.0000
  C   C773      1.0  0.91596  0.74082  0.67216  1.0000
  C   C774      1.0  0.94711  0.69531  0.68543  1.0000
  C   C775      1.0  0.97751  0.70937  0.67955  1.0000
  C   C776      1.0  0.68443  0.61284  0.52931  1.0000
  H   H769      1.0  0.60308  0.66291  0.62510  1.0000
  N   N66       1.0  0.74819  0.70547  0.68302  1.0000
  C   C777      1.0  0.73848  0.68307  0.66979  1.0000
  C   C778      1.0  0.76303  0.73587  0.67855  1.0000
  C   C779      1.0  0.74263  0.69090  0.65145  1.0000
  C   C780      1.0  0.76735  0.74452  0.66035  1.0000
  C   C781      1.0  0.75678  0.72182  0.64674  1.0000
  C   C782      1.0  0.74301  0.69716  0.70215  1.0000
  H   H770      1.0  0.72643  0.65897  0.67332  1.0000
  H   H771      1.0  0.77101  0.75357  0.68913  1.0000
  H   H772      1.0  0.73358  0.67311  0.64094  1.0000
  H   H773      1.0  0.77825  0.76864  0.65685  1.0000
  H   H774      1.0  0.75887  0.72807  0.63254  1.0000
  H   H775      1.0  0.73511  0.71197  0.70928  1.0000
  H   H776      1.0  0.72468  0.67307  0.70393  1.0000
  H   H777      1.0  0.76464  0.70048  0.70874  1.0000
  N   N67       1.0  0.59862  0.66052  0.65391  1.0000
  C   C783      1.0  0.58919  0.64187  0.66870  1.0000
  C   C784      1.0  0.59543  0.64816  0.63683  1.0000
  C   C785      1.0  0.72945  0.91394  0.74550  1.0000
  H   H778      1.0  0.89909  0.76533  0.73439  1.0000
  C   C786      1.0  0.62144  0.62965  0.50704  1.0000
  C   C787      1.0  0.93165  0.58780  0.63954  1.0000
  C   C788      1.0  0.73749  0.62789  0.53818  1.0000
  H   H779      1.0  0.70504  0.67343  0.53216  1.0000
  H   H780      1.0  0.85933  0.67958  0.62374  1.0000
  H   H781      1.0  0.96178  0.75027  0.64963  1.0000
  H   H782      1.0  0.62878  0.98316  0.51991  1.0000
  H   H783      1.0  0.79782  0.69818  0.54768  1.0000
  H   H784      1.0  0.97843  0.55634  0.63565  1.0000
  H   H785      1.0  0.91590  0.56304  0.55761  1.0000
  S   S264      1.0  0.97995  0.78655  0.73308  1.0000
  H   H786      1.0  0.77033  0.91274  0.73671  1.0000
  H   H787      1.0  0.98815  0.52914  0.54479  1.0000
  C   C789      1.0  0.94851  0.53653  0.54590  1.0000
  H   H788      1.0  0.96197  0.56131  0.54449  1.0000
  H   H789      1.0  0.67764  0.59138  0.53703  1.0000
  C   C790      1.0  0.55079  0.49599  0.59104  1.0000
  C   C791      1.0  0.93918  0.73524  0.64394  1.0000
  H   H790      1.0  0.57481  0.50770  0.58748  1.0000
  H   H791      1.0  0.88007  0.51175  0.63649  1.0000
  C   C792      1.0  0.73577  0.86760  0.74468  1.0000
  H   H792      1.0  0.87899  0.53063  0.55391  1.0000
  H   H793      1.0  0.50987  0.52797  0.56188  1.0000
  C   C793      1.0  0.50539  0.49740  0.60165  1.0000
  H   H794      1.0  0.92859  0.50861  0.63480  1.0000
  C   C794      1.0  0.98776  0.61427  0.63855  1.0000
  H   H795      1.0  0.98782  0.63131  0.64857  1.0000
  N   N68       1.0  0.70226  0.70248  0.97655  1.0000
  C   C795      1.0  0.71429  0.68561  0.96575  1.0000
  C   C796      1.0  0.86866  0.79636  0.76403  1.0000
  C   C797      1.0  0.89424  0.50501  0.92373  1.0000
  H   H796      1.0  0.82461  0.79501  0.76072  1.0000
  H   H797      1.0  0.69597  0.85581  0.79694  1.0000
  Fe  Fe132     1.0  0.71590  0.72623  0.77344  1.0000
  S   S265      1.0  0.72279  0.70615  0.80002  1.0000
  S   S266      1.0  0.74919  0.77579  0.76751  1.0000
  C   C798      1.0  0.66899  0.87890  0.80075  1.0000
  H   H798      1.0  0.93304  0.72513  0.84853  1.0000
  C   C799      1.0  0.96053  0.69402  0.81681  1.0000
  Fe  Fe133     1.0  0.64540  0.63554  0.89729  1.0000
  S   S267      1.0  0.66338  0.60182  0.90030  1.0000
  S   S268      1.0  0.63797  0.65326  0.87006  1.0000
  Fe  Fe134     1.0  0.63202  0.63428  0.93875  1.0000
  S   S269      1.0  0.64947  0.60074  0.94439  1.0000
  S   S270      1.0  0.61143  0.65378  0.95956  1.0000
  Fe  Fe135     1.0  0.68781  0.62925  0.92537  1.0000
  S   S271      1.0  0.73899  0.65121  0.93187  1.0000
  Fe  Fe136     1.0  0.62317  0.57626  0.91891  1.0000
  S   S272      1.0  0.59463  0.52427  0.91586  1.0000
  S   S273      1.0  0.67197  0.66468  0.92132  1.0000
  S   S274      1.0  0.60353  0.60809  0.91431  1.0000
  Fe  Fe137     1.0  0.92412  0.64990  0.89915  1.0000
  S   S275      1.0  0.89039  0.59938  0.89776  1.0000
  S   S276      1.0  0.92974  0.68403  0.87664  1.0000
  Fe  Fe138     1.0  0.93766  0.64666  0.94034  1.0000
  S   S277      1.0  0.90401  0.59616  0.94162  1.0000
  H   H799      1.0  0.79427  0.69308  0.75371  1.0000
  Fe  Fe139     1.0  0.92388  0.59207  0.91509  1.0000
  S   S278      1.0  0.94183  0.55802  0.90967  1.0000
  Fe  Fe140     1.0  0.87298  0.60762  0.92430  1.0000
  S   S279      1.0  0.82095  0.58378  0.92659  1.0000
  S   S280      1.0  0.95929  0.64217  0.91444  1.0000
  S   S281      1.0  0.90498  0.65844  0.92505  1.0000
  H   H800      1.0  0.82155  0.77206  0.81165  1.0000
  C   C800      1.0  0.92408  0.51940  0.91696  1.0000
  H   H801      1.0  0.73479  0.68599  0.97226  1.0000
  H   H802      1.0  0.95274  0.64996  0.85410  1.0000
  H   H803      1.0  0.88186  0.51793  0.92538  1.0000
  S   S282      1.0  0.69160  0.81087  0.75741  1.0000
  H   H804      1.0  0.85889  0.75568  0.80522  1.0000
  H   H805      1.0  0.93109  0.63415  0.98901  1.0000
  Fe  Fe141     1.0  0.95336  0.77620  0.75907  1.0000
  C   C801      1.0  0.76124  0.63184  0.93095  1.0000
  C   C802      1.0  0.74784  0.60009  0.92795  1.0000
  C   C803      1.0  0.76644  0.58568  0.92699  1.0000
  C   C804      1.0  0.79857  0.60288  0.92872  1.0000
  C   C805      1.0  0.81198  0.63469  0.93153  1.0000
  C   C806      1.0  0.79335  0.64905  0.93276  1.0000
  H   H806      1.0  0.72316  0.58657  0.92657  1.0000
  H   H807      1.0  0.75588  0.56105  0.92483  1.0000
  H   H808      1.0  0.83666  0.64818  0.93288  1.0000
  H   H809      1.0  0.80393  0.67363  0.93507  1.0000
  C   C807      1.0  0.61549  0.65636  0.98358  1.0000
  H   H810      1.0  0.64799  0.90832  0.80326  1.0000
  H   H811      1.0  0.60695  0.58684  0.86614  1.0000
  H   H812      1.0  0.64546  0.63619  0.98545  1.0000
  H   H813      1.0  0.58613  0.67723  0.98649  1.0000
  H   H814      1.0  0.51843  0.57626  0.87980  1.0000
  C   C808      1.0  0.59377  0.52846  0.87008  1.0000
  C   C809      1.0  0.83818  0.71046  0.76739  1.0000
  C   C810      1.0  0.53714  0.51909  0.92227  1.0000
  C   C811      1.0  0.95020  0.71341  0.82447  1.0000
  H   H815      1.0  0.54883  0.54365  0.92476  1.0000
  H   H816      1.0  0.59686  0.52587  0.85539  1.0000
  H   H817      1.0  0.69591  0.95581  0.79654  1.0000
  C   C812      1.0  0.94163  0.68702  0.85362  1.0000
  H   H818      1.0  0.74590  0.88004  0.78368  1.0000
  C   C813      1.0  0.75088  0.90284  0.78949  1.0000
  H   H819      1.0  0.64807  0.85790  0.80350  1.0000
  C   C814      1.0  0.58331  0.57207  0.86997  1.0000
  C   C815      1.0  0.84433  0.74144  0.79418  1.0000
  S   S283      1.0  0.93326  0.72512  0.75628  1.0000
  C   C816      1.0  0.95382  0.57143  0.97806  1.0000
  H   H820      1.0  0.57252  0.60953  0.87051  1.0000
  C   C817      1.0  0.69882  0.69170  0.81939  1.0000
  C   C818      1.0  0.66997  0.69030  0.82039  1.0000
  C   C819      1.0  0.65182  0.67856  0.83599  1.0000
  C   C820      1.0  0.66220  0.66815  0.85084  1.0000
  C   C821      1.0  0.69108  0.66957  0.84987  1.0000
  C   C822      1.0  0.70920  0.68124  0.83424  1.0000
  H   H821      1.0  0.66158  0.69821  0.80914  1.0000
  H   H822      1.0  0.62957  0.67762  0.83654  1.0000
  H   H823      1.0  0.69941  0.66165  0.86113  1.0000
  H   H824      1.0  0.73141  0.68212  0.83364  1.0000
  S   S284      1.0  0.92366  0.79657  0.76897  1.0000
  C   C823      1.0  0.95194  0.66763  0.84595  1.0000
  H   H825      1.0  0.78824  0.73463  0.81451  1.0000
  C   C824      1.0  0.55415  0.50396  0.91824  1.0000
  C   C825      1.0  0.52293  0.53499  0.87996  1.0000
  C   C826      1.0  0.56386  0.58503  0.87237  1.0000
  Fe  Fe142     1.0  0.97447  0.73131  0.77242  1.0000
  C   C827      1.0  0.94091  0.70995  0.84275  1.0000
  C   C828      1.0  0.60053  0.66966  0.99354  1.0000
  C   C829      1.0  0.69621  0.87789  0.79712  1.0000
  N   N69       1.0  0.72245  0.90419  0.79308  1.0000
  H   H826      1.0  0.96294  0.51323  0.90976  1.0000
  H   H827      1.0  0.67864  0.70866  0.95396  1.0000
  H   H828      1.0  0.76497  0.92026  0.77934  1.0000
  S   S285      1.0  0.97384  0.69815  0.79406  1.0000
  C   C830      1.0  0.95258  0.64946  0.99576  1.0000
  H   H829      1.0  0.51518  0.60387  0.99560  1.0000
  C   C831      1.0  0.66890  0.90709  0.80054  1.0000
  N   N70       1.0  0.81531  0.73768  0.79170  1.0000
  C   C832      1.0  0.95613  0.57355  0.95923  1.0000
  C   C833      1.0  0.85618  0.72787  0.78208  1.0000
  H   H830      1.0  0.49188  0.51444  0.92577  1.0000
  N   N71       1.0  0.79458  0.65025  0.88700  1.0000
  C   C834      1.0  0.79159  0.62129  0.88604  1.0000
  C   C835      1.0  0.82307  0.67551  0.88692  1.0000
  C   C836      1.0  0.81757  0.61709  0.88523  1.0000
  C   C837      1.0  0.84953  0.67211  0.88603  1.0000
  C   C838      1.0  0.84664  0.64270  0.88516  1.0000
  C   C839      1.0  0.76717  0.65442  0.88735  1.0000
  H   H831      1.0  0.76910  0.60121  0.88646  1.0000
  H   H832      1.0  0.82546  0.69844  0.88771  1.0000
  H   H833      1.0  0.81524  0.59412  0.88525  1.0000
  H   H834      1.0  0.87225  0.69203  0.88612  1.0000
  H   H835      1.0  0.86699  0.63983  0.88460  1.0000
  H   H836      1.0  0.74688  0.63364  0.89245  1.0000
  H   H837      1.0  0.77068  0.67358  0.89677  1.0000
  H   H838      1.0  0.76178  0.65937  0.87354  1.0000
  S   S286      1.0  0.67565  0.72705  0.75945  1.0000
  C   C840      1.0  0.67094  0.72748  0.97852  1.0000
  C   C841      1.0  0.79717  0.71984  0.77766  1.0000
  H   H839      1.0  0.72149  0.69585  0.95213  1.0000
  H   H840      1.0  0.77397  0.71642  0.77595  1.0000
  H   H841      1.0  0.68540  0.90700  0.75447  1.0000
  C   C842      1.0  0.53356  0.56637  0.87755  1.0000
  C   C843      1.0  0.88975  0.78794  0.75670  1.0000
  H   H842      1.0  0.65560  0.73454  0.97204  1.0000
  C   C844      1.0  0.69587  0.93381  0.79672  1.0000
  H   H843      1.0  0.94948  0.73113  0.81633  1.0000
  H   H844      1.0  0.61643  0.54361  0.87661  1.0000
  C   C845      1.0  0.68407  0.71279  0.96835  1.0000
  H   H845      1.0  0.74342  0.95271  0.78971  1.0000
  N   N72       1.0  0.57288  0.54141  0.87273  1.0000
  C   C846      1.0  0.80298  0.75184  0.80446  1.0000
  H   H846      1.0  0.87388  0.80887  0.77682  1.0000
  H   H847      1.0  0.87965  0.73192  0.78367  1.0000
  H   H848      1.0  0.78854  0.76005  0.79717  1.0000
  Fe  Fe143     1.0  0.70947  0.77627  0.75241  1.0000
  H   H849      1.0  0.69635  0.66127  0.96391  1.0000
  H   H850      1.0  0.76443  0.90709  0.80225  1.0000
  H   H851      1.0  0.93523  0.55142  0.98415  1.0000
  C   C847      1.0  0.96143  0.67122  0.82770  1.0000
  H   H852      1.0  0.56177  0.59723  0.99364  1.0000
  C   C848      1.0  0.93980  0.50224  0.91491  1.0000
  C   C849      1.0  0.72263  0.93194  0.79300  1.0000
  H   H853      1.0  0.96945  0.65614  0.82196  1.0000
  C   C850      1.0  0.63397  0.64664  0.99289  1.0000
  H   H854      1.0  0.93951  0.55517  0.95058  1.0000
  H   H855      1.0  0.84757  0.70075  0.75759  1.0000
  H   H856      1.0  0.66489  0.85099  0.75953  1.0000
  H   H857      1.0  0.89234  0.51913  0.87637  1.0000
  C   C851      1.0  0.50483  0.50246  0.92280  1.0000
  C   C852      1.0  0.84072  0.78842  0.75499  1.0000
  H   H858      1.0  0.94088  0.52125  0.86612  1.0000
  C   C853      1.0  0.80841  0.70627  0.76517  1.0000
  C   C854      1.0  0.54297  0.52278  0.87734  1.0000
  S   S287      1.0  0.97327  0.67646  0.96203  1.0000
  H   H859      1.0  0.58505  0.50572  0.87667  1.0000
  C   C855      1.0  0.68797  0.86445  0.75456  1.0000
  H   H860      1.0  0.49951  0.52023  0.88422  1.0000
  C   C856      1.0  0.97637  0.67219  0.98582  1.0000
  C   C857      1.0  0.70616  0.85004  0.75138  1.0000
  H   H861      1.0  0.64529  0.99165  0.83861  1.0000
  C   C858      1.0  0.67622  0.73128  0.99723  1.0000
  C   C859      1.0  0.70744  0.70597  0.99491  1.0000
  C   C860      1.0  0.69954  0.89622  0.75173  1.0000
  H   H862      1.0  0.53463  0.49846  0.87958  1.0000
  H   H863      1.0  0.98110  0.60150  0.93687  1.0000
  C   C861      1.0  0.97968  0.59988  0.95154  1.0000
  C   C862      1.0  0.97539  0.59528  0.98897  1.0000
  H   H864      1.0  0.54374  0.99077  0.87306  1.0000
  C   C863      1.0  0.92197  0.49955  0.87028  1.0000
  C   C864      1.0  0.89461  0.49834  0.87597  1.0000
  Fe  Fe144     1.0  0.73247  0.99061  0.75190  1.0000
  S   S288      1.0  0.68863  0.99428  0.75109  1.0000
