data_image0
_chemical_formula_structural       C3FeS2NHSC2HSH2SHSCH2CFeSHC2H3SHC2SHFeH3SH4CHC2SHCSC7H7SH3CHSC7H4SH2C7H4C4H2FeH2SHC2SCFeCSCHCHCSCH5CNHFeCNC6H4SH3CNH2CFeCH3C2HCH2CNHC3H5S2HCH2C3NC4FeCHSCSFeS2FeSFe2S2FeS2FeS2FeSFeS3H2FeSHCSCNH2CSH3CH3C2SH3C5H2C5H4C2NC6H4C6H4C6H4C4H2C6H4C2FeC2NC5H6CSCH2SCFe2C2H2CH2CS2H4SHC2HSH5CNSHCH2NH2SH3C3H4FeNCH4SNC5H6C2N2C6H5CH2FeSFeHC2HCH2SC2SHSH2S2CHC3FeH2FeSFeSCHSHCFeS2HNHCHCFeS2FeS2FeSFeS3FeSNFeS2FeSFeS3CHFeSHFeS2C2FeHC3HCNHC2H2NC6H4C6H5C2H2C6H4CNH2C4H2FeH2SCHC3H4CH3CH3NC4H6C3HSNCSHCH3CNC8H6C3H4CSCSH3CHC3SCH4CH2C2HC2HC2H2FeCSCHSCH2C2HCHCH2FeSCH3CSH3FeHCNHCH2SCHC3HCSH2C3H2C2H2C9HCH2C5HFeNCHC3SH2C2SFeHSFeSCS2FeHSFeHSH3S2FeS2FeS2FeSFeS2Fe2S2FeS2FeSFeS3C3H2C6H4C2H3C6H4CHNHFeCH3C6H5C2H2C2SH2C7H6CH3CHCHC3FeCHFeHNHSCSHFeCH2C3HSCHC2H2C2HNC6H2SH5NC6H8C2H3CH2C3SC9HSNHCHCHCHCH5C3SHC2H3CH2C2H2CSFeS2H2FeH2CFeCSCSFeS2FeS2FeHFeS2FeS2FeS2FeSFeS3C2H2C2SCHC6H6C6H3SCH2NC7H4C2HCHCHC3H2C4H2NH5NHC3HCNH2CSHC2HC2H2SHC2H4CHCH2SH4Fe2C3H2C2SH2C3HC4HFeC5HFeCH3CSCH2C2NHSCSCFeHCH3C3HCNSCH3C4SHFeH4S3HC3FeCS2HSHSHFeCFeS3FeSHFeSFeSFeS2FeS2FeSFeCS2FeS2FeS2FeSFeS3FeS2FeSCFeSFeS3C6H4CHSH2SCH3C2H3C3H2CH2C2H2CH3CHC10H4C6H4NHC3FeC8H4FeHCFeC2NC5HCHCH2C2SNC6H11CSC3H3C2HCH3CSCSHC5H2CHCH2CNHCHC3SH2NCH4SCH2CNH3C2H3C2H3NHCH6CH3C5HCHNHCHSC4HCH5NH3CHNH2CHCNC2HCHCH5CH2CHNSHSFeSFeS2FeSHS2HCSCHCHSCSH2C2SHCHFeCS2H2CSFeS2H3CHCHCHC3NCH3CFeCH4C4SC2HCHCH3CHCSHFeHFeHSC2HC3HFeSC8H4C6H4C2H2CNFeHFeC6H4CHS2C2H2CSNHCSH8CFeC2NC6H6C2NC6H2NH3CNC2H5NCSCHC2HCHCH6CFeSC2HCH3CH3C2FeH3FeC2SCH2CFeSCSFeS2FeS2FeSFeS3CFeCHCSH3SH2SHSNH3NCHCHC2H3CHC8H4C6H4C6H4CSC8H4SC3H2C2SCH2FeCHS2HC2H3CHNC6H8CH2C2HNSC2H2CNCHSC2HCHCHFeHC2H3CNSH2C2FeSH2CH2C3SHFeHCH3CNHFeSHCSCFeSFeCSHFeS2FeS2FeSFeS3HFeSH2NSC2SFeS2NFeSCH4CSHSCHCNHNCNSCHCH3C2H2NHCSCFeC4H3SHC6H4C6H5CHC3HCH2CFeSC2HCH2C6H5CH8SH2C2HSCSH3C2H2CFeCSFeCHC3SCFeHSCSHC4H2SCHCFeHCH3CSCNC6H8C2HCNCHC3HC3HCH2CHFeCHCFeSHCHFeC2NC3H3SH2CH2C2SFeS3HC3FeHS2Fe2S3HSHFeS2FeSFe2SFeS3FeS2FeS2FeSFeS4FeS2FeSFeS3C7H5C2H2C2FeSHC7H4C3H2CH2CHCFeHC6H4C3H2C2HCHC7H7C3H3CHCH2CNC6H8CHC2HC3H2NHSNHCH4CH2C2SHCFeH2SH3CH2CHCH2CHSC2HC2NCH2CFeNC2NHCHC2HNHCHCH5CHCHC2H7NC6H4SC5H2C2H2SHSH2CNC3HC2H2CS2HC2H3CHCSCSHFeSCHNFeSH2SCFeSFeSFeSFeS2FeS2FeSFeS3C2NH2C3H2C2H3C2H3C6H4C7H2C2HC6H6FeHCSC2H2C2HNHCHC5H3CHFeHC2HNCHCH2CH3C2H3C2SHCHCH5CHCNHC2HSCHCH3CHSCNCHCHCH3CSCHFeCSHC2FeSCSHCSFeSHSC2FeS2FeS2FeSFeS3FeS2FeS2FeSFeS3FeS2FeS2FeHFeS3C2HNCHCH2C2HCH4CHC3H2C6H5CH2C6H4CNH2C6H6C9H4CH2SNHC2HCH4C2H4CH2CHCHC4H3NHSC2H2CHNC6H10C2N2C6H8FeC3H2CH3CH2C3NCSNC3HC2HFeHC2HC2HC2H3CHSHSH3CH2CSCHSHCHC2NFeHC3H3CHCH2CHSC2HSCHC4HCHCHCH2CFeHSHSCHNH3SCH2FeCFeSNHCFeS2FeS2FeSFeS3FeS2FeS2FeSFeS3FeHSFeS2H3S2C3HCHCH2CFeCHCH3CHC4H2C6H4C6H4C6H4CHCSCH2NC6H6SCH2NC2H4CH2CHC3H3CSCH3SC3H3C5NC6H8SH2C3NC6H7SC2HCH2C3FeC2HNH2NH2CFeC2NCH3C3HCH2CH6C6HC2HSHSHSNCH4C2H2C3HCH2CSC3HC2H3SCHFeSHCNFeSHFeSCFeSFeS2CSFeS2FeS2FeSFeS3HC3H2NC7H7SC9H4C4HCH3C2H2C3SC7H4FeHCHC2HNHC3HFeH2CH7CH3NH2CH2C2H2SC2NC2H2CHCHCHC2H2C3H2CH5FeH4FeS3HCS2FeSCNHSFeSHCFeS2FeS2FeSFeS3FeS2FeS2FeSFeS3FeS2FeS2FeSFeS2H4CHC2H2C6H4C6H5CHC2H2SC2HC6NC7H5C2NC2HC3HNC7H4CHC6HSH4C2HCH2C2NC3FeC3HSNC6H7NC6H11CH2CSHSHC2HC4H3CH2C3H2CHC2NH2C2H4SCHNC6H7CHCFeH2CHCH4FeC2H7CHC2SH3FeS2FeH5NS2H2CSCNC3HFeH4CHFeSCSCSHC2FeS3FeSFeSFeS2FeS2FeSFeS3FeSHFeS2FeSFeSHSHS2HCSC2HSHC3H3C2HCH3CHNSHFeCHC9H4CHC6H4CHC6H5CH2C2Fe2SHC2H2C5H2NC3H4C3H6CSH3CFeCSC2H2CSCSH3CH3CH2CHSCHCNCHCH5CH2NC6H8NC6H3C4HC2HCHSCH2SCHNCHC3HSHCHCFeH3C3HCSFeCHSCFeCHCH3CNH2S2HCSFeHS2H3SHFeS2FeS2FeSFeS3HSCHC2FeS2H2SHFeS2FeSHS2CHC3H2CNHNCHC7H4C6H5FeC2HC2HSHC6H4SHC8H4FeH2C2HCHNC5H7NC6H8NC2HC2HC2H3C4FeC2HC3HCH2FeCH4NHSCH2CHSNH3FeH2C3SCFeHCSHC2HSH2CSH2SFeS2HNH2CSHSCS3CHSFeCSCFeSHFeSC4H5CH4CHC6H7CFeC3H3C6H3SNCHSHCHCHCFeC4SH3FeHC6H5SNC3NCHC2H3FeCHSFeH2FeH3C5HC4HSHNC6H6CHCH3CH3CH2C2NHC4HC2HCHC3HC3NSCFeSHSFeSCFeCFeS2FeS2FeSFeHS2FeS2FeSHFeS3FeS2FeS2FeSFeS3FeS2FeS2FeSFeS3C3H2C7H4FeC3H3SH2CH3SH2CHCH3CNSH3C7H4C6H4C7H3C6H4FeC3HC2HC2HCHCHFeHCHCHCHSC2HCNHC4HC2H6C2HNHCHNH3CHSH3CNHC2H2CHNC6H8NC3H2CH3CFeH4C3H2CHSCH3C2SC2SFeC2HC2H3C2SNHC2HCHCS2FeSHC2HFeSHNFeS2FeS2FeSFeS3HSFeS2FeCSFeHFeS2HC7H4C6H2CH3NH4C3SHC3H4C7H4CHSHCFeCH5CH2FeC2HCHC2HCH3CH2CHNC6H8CH2C3FeC2SHC2HC2SHCSCHCSC2H4C3SC4FeSH2CSHCH2CH2NC2NC2S2HCH3CSCS2HFeHNCHC3H6C2HC2FeSFeS2CHS2CHC2FeSCHSC2FeCSFeS2FeSFeHS2FeS2FeSHFeSFeS3FeSCFeSH2FeSFeSCNH2CHCSHC6H4C6H5C2H2NHC2HCHCSH2C2H2C7H6C3SC2H2C6H4SC3H3SC6H4C2H3NC6H6CH3CH2SC3NC4HCH2FeCH4NHCH2NH2FeHC2H2SHC2HCHC2HC2FeC2HC2HNH3NHNSC3H4C2H3CH2CHCH2FeSH2C2H5NHCH2SFeS2FeSFeS2HCFeHFeH2SFeS2C2H3SFeS2FeS2FeSFeS3FeS2FeS2FeSFeS2C2NCHC6H4CHNHC6H4NHNHSHCH2SHCH3CH3FeH2CH4C7H4C5H2C2SC3H3NC2HC3H2CH2CHCH2CHNCFeC4HC4N2HNC6H3CH4NH2CHC2H2CH2C2HCHCHSCH3CHC2H2NC6H4CHC3H3CNCHC2HSC4H7C2SHSC2H2CH2C2H2C3HCHCH4CHCH7SNCSH2CNSHSCS2CFeSFeSFeS2FeS2FeSFeS3FeSH2CHFeS2Fe2S2HS2C5NHC2HC6H4C4H2C6H4C6H5CH2C9H4C5SNFeCSH6CSHC2HCH4FeCNC2HC3H3C2H2CHC3HNC2HCNC6H2FeHSCSCHSC2HFeCH2SCSCHFeSH2CFe2CH3C2HCHCHCH3CHSFeHSH3C2FeHFe2SHC2H2CSCFeHCSCHFeSC3HFeHSHFeSFeS3CHFeSNCH2SC2H2SNCH2CFeHS2CSC5SC6H2CHCH4C8H5SHSHCH2C4H2C7H10CSHSH4SCNC6H9NSC3SH3CH2CSH3C4HCH4CSH2NCHCH2CH
_chemical_formula_sum              "C2304 Fe384 S768 N192 H2304"
_cell_length_a       73.9017
_cell_length_b       74.1508
_cell_length_c       74.2441
_cell_angle_alpha    77.9046
_cell_angle_beta     77.8205
_cell_angle_gamma    77.8766

_space_group_name_H-M_alt    "P 1"
_space_group_IT_number       1

loop_
  _space_group_symop_operation_xyz
  'x, y, z'

loop_
  _atom_site_type_symbol
  _atom_site_label
  _atom_site_symmetry_multiplicity
  _atom_site_fract_x
  _atom_site_fract_y
  _atom_site_fract_z
  _atom_site_occupancy
  C   C1        1.0  0.15515  0.45855  0.28741  1.0000
  C   C2        1.0  0.13381  0.32789  0.97904  1.0000
  C   C3        1.0  0.18068  0.00123  0.09776  1.0000
  Fe  Fe1       1.0  0.07441  0.44016  0.22379  1.0000
  S   S1        1.0  0.05965  0.41467  0.22767  1.0000
  S   S2        1.0  0.10558  0.43630  0.21247  1.0000
  N   N1        1.0  0.99607  0.27702  0.18070  1.0000
  H   H1        1.0  0.19227  0.00877  0.09170  1.0000
  S   S3        1.0  0.05338  0.98560  0.25665  1.0000
  C   C4        1.0  0.98097  0.13757  0.29253  1.0000
  C   C5        1.0  0.16543  0.44790  0.16046  1.0000
  H   H2        1.0  0.21151  0.03158  0.04339  1.0000
  S   S4        1.0  0.99757  0.38503  0.19765  1.0000
  H   H3        1.0  0.98027  0.11838  0.27444  1.0000
  H   H4        1.0  0.04216  0.19413  0.08854  1.0000
  S   S5        1.0  0.99461  0.33004  0.19759  1.0000
  H   H5        1.0  0.18421  0.16544  0.97733  1.0000
  S   S6        1.0  0.99792  0.05323  0.21695  1.0000
  C   C6        1.0  0.00175  0.17436  0.06921  1.0000
  H   H6        1.0  0.21597  0.00657  0.96525  1.0000
  H   H7        1.0  0.14350  0.41983  0.15565  1.0000
  C   C7        1.0  0.15753  0.16727  0.96906  1.0000
  Fe  Fe2       1.0  0.21000  0.36208  0.97651  1.0000
  S   S7        1.0  0.20021  0.37989  0.00001  1.0000
  H   H8        1.0  0.01002  0.30061  0.17212  1.0000
  C   C8        1.0  0.20712  0.41893  0.96724  1.0000
  C   C9        1.0  0.16745  0.00665  0.11294  1.0000
  H   H9        1.0  0.15920  0.98250  0.27725  1.0000
  H   H10       1.0  0.21245  0.26421  0.96352  1.0000
  H   H11       1.0  0.00660  0.41499  0.25040  1.0000
  S   S8        1.0  0.10715  0.23261  0.97494  1.0000
  H   H12       1.0  0.98982  0.16761  0.07617  1.0000
  C   C10       1.0  0.13714  0.31205  0.99262  1.0000
  C   C11       1.0  0.98678  0.42393  0.23140  1.0000
  S   S9        1.0  0.05289  0.22147  0.97990  1.0000
  H   H13       1.0  0.02048  0.21108  0.09017  1.0000
  Fe  Fe3       1.0  0.08275  0.22560  0.96540  1.0000
  H   H14       1.0  0.14161  0.45080  0.18289  1.0000
  H   H15       1.0  0.16509  0.44087  0.26640  1.0000
  H   H16       1.0  0.13005  0.28503  0.00512  1.0000
  S   S10       1.0  0.22055  0.33087  0.98101  1.0000
  H   H17       1.0  0.98061  0.15052  0.23210  1.0000
  H   H18       1.0  0.20059  0.42007  0.98159  1.0000
  H   H19       1.0  0.03066  0.18174  0.02718  1.0000
  H   H20       1.0  0.11745  0.38125  0.20032  1.0000
  C   C12       1.0  0.10375  0.28315  0.98645  1.0000
  H   H21       1.0  0.16566  0.46841  0.11496  1.0000
  C   C13       1.0  0.16512  0.27767  0.96725  1.0000
  C   C14       1.0  0.12035  0.32909  0.96797  1.0000
  S   S11       1.0  0.99152  0.29368  0.24237  1.0000
  H   H22       1.0  0.17075  0.97124  0.21089  1.0000
  C   C15       1.0  0.14677  0.45476  0.16810  1.0000
  S   S12       1.0  0.20543  0.46427  0.07578  1.0000
  C   C16       1.0  0.15270  0.99667  0.12052  1.0000
  C   C17       1.0  0.01707  0.23577  0.03578  1.0000
  C   C18       1.0  0.01008  0.22716  0.02428  1.0000
  C   C19       1.0  0.02121  0.22300  0.00721  1.0000
  C   C20       1.0  0.03946  0.22731  0.00145  1.0000
  C   C21       1.0  0.04646  0.23588  0.01298  1.0000
  C   C22       1.0  0.03529  0.24014  0.02999  1.0000
  H   H23       1.0  0.99609  0.22374  0.02850  1.0000
  H   H24       1.0  0.01561  0.21644  0.99838  1.0000
  H   H25       1.0  0.06044  0.23931  0.00875  1.0000
  H   H26       1.0  0.04083  0.24684  0.03874  1.0000
  H   H27       1.0  0.07196  0.42757  0.16478  1.0000
  H   H28       1.0  0.07020  0.43283  0.18785  1.0000
  H   H29       1.0  0.17454  0.43871  0.16948  1.0000
  S   S13       1.0  0.13573  0.97943  0.19214  1.0000
  H   H30       1.0  0.09541  0.28480  0.97518  1.0000
  H   H31       1.0  0.14631  0.39083  0.17958  1.0000
  H   H32       1.0  0.00151  0.26059  0.26870  1.0000
  C   C23       1.0  0.99476  0.41181  0.24584  1.0000
  H   H33       1.0  0.14707  0.25834  0.96659  1.0000
  S   S14       1.0  0.14953  0.19042  0.97322  1.0000
  C   C24       1.0  0.17238  0.45279  0.14129  1.0000
  C   C25       1.0  0.03888  0.00526  0.24551  1.0000
  C   C26       1.0  0.02321  0.01467  0.25639  1.0000
  C   C27       1.0  0.01082  0.02976  0.24800  1.0000
  C   C28       1.0  0.01393  0.03555  0.22858  1.0000
  C   C29       1.0  0.02971  0.02623  0.21775  1.0000
  C   C30       1.0  0.04212  0.01118  0.22612  1.0000
  H   H34       1.0  0.02055  0.01022  0.27140  1.0000
  H   H35       1.0  0.99872  0.03673  0.25653  1.0000
  H   H36       1.0  0.03228  0.03062  0.20272  1.0000
  H   H37       1.0  0.05411  0.00413  0.21756  1.0000
  S   S15       1.0  0.18605  0.30296  0.97084  1.0000
  H   H38       1.0  0.14213  0.33889  0.97668  1.0000
  H   H39       1.0  0.16840  0.98546  0.16445  1.0000
  C   C31       1.0  0.00938  0.18438  0.07888  1.0000
  C   C32       1.0  0.04272  0.40660  0.21863  1.0000
  C   C33       1.0  0.03337  0.41750  0.20440  1.0000
  C   C34       1.0  0.02003  0.41044  0.19791  1.0000
  C   C35       1.0  0.01558  0.39250  0.20564  1.0000
  C   C36       1.0  0.02499  0.38157  0.21979  1.0000
  C   C37       1.0  0.03845  0.38857  0.22618  1.0000
  H   H40       1.0  0.03623  0.43144  0.19851  1.0000
  H   H41       1.0  0.01286  0.41906  0.18696  1.0000
  H   H42       1.0  0.02182  0.36776  0.22591  1.0000
  H   H43       1.0  0.04556  0.37994  0.23717  1.0000
  C   C38       1.0  0.21133  0.39233  0.01162  1.0000
  C   C39       1.0  0.20033  0.40200  0.02578  1.0000
  C   C40       1.0  0.20822  0.41270  0.03483  1.0000
  C   C41       1.0  0.02471  0.18216  0.04179  1.0000
  H   H44       1.0  0.18551  0.40126  0.02974  1.0000
  H   H45       1.0  0.19948  0.42004  0.04560  1.0000
  Fe  Fe4       1.0  0.09992  0.46541  0.19640  1.0000
  H   H46       1.0  0.99588  0.17068  0.24510  1.0000
  H   H47       1.0  0.22063  0.02881  0.96781  1.0000
  S   S16       1.0  0.00410  0.24064  0.05783  1.0000
  H   H48       1.0  0.00842  0.28966  0.15359  1.0000
  C   C42       1.0  0.01065  0.28671  0.16836  1.0000
  C   C43       1.0  0.13573  0.45260  0.26718  1.0000
  S   S17       1.0  0.07763  0.45196  0.24854  1.0000
  C   C44       1.0  0.00937  0.17341  0.05049  1.0000
  Fe  Fe5       1.0  0.10819  0.45035  0.23566  1.0000
  C   C45       1.0  0.03188  0.20377  0.08048  1.0000
  S   S18       1.0  0.13324  0.44002  0.25041  1.0000
  C   C46       1.0  0.18289  0.14025  0.96781  1.0000
  H   H49       1.0  0.02476  0.27816  0.16938  1.0000
  C   C47       1.0  0.17904  0.98595  0.09040  1.0000
  H   H50       1.0  0.99448  0.38542  0.26467  1.0000
  C   C48       1.0  0.03205  0.19198  0.05192  1.0000
  S   S19       1.0  0.19590  0.44342  0.13254  1.0000
  C   C49       1.0  0.12699  0.29753  0.99490  1.0000
  H   H51       1.0  0.08044  0.44780  0.16790  1.0000
  H   H52       1.0  0.00327  0.18512  0.09341  1.0000
  H   H53       1.0  0.99240  0.43654  0.22468  1.0000
  H   H54       1.0  0.16859  0.45623  0.29188  1.0000
  H   H55       1.0  0.00334  0.16600  0.04274  1.0000
  C   C50       1.0  0.15315  0.44988  0.27298  1.0000
  N   N2        1.0  0.02411  0.19333  0.07009  1.0000
  H   H56       1.0  0.04376  0.19902  0.04492  1.0000
  Fe  Fe6       1.0  0.21344  0.45211  0.10410  1.0000
  C   C51       1.0  0.22321  0.02473  0.03434  1.0000
  N   N3        1.0  0.09758  0.42125  0.17517  1.0000
  C   C52       1.0  0.09891  0.40499  0.18795  1.0000
  C   C53       1.0  0.11329  0.42635  0.16339  1.0000
  C   C54       1.0  0.11643  0.39383  0.18978  1.0000
  C   C55       1.0  0.13103  0.41548  0.16477  1.0000
  C   C56       1.0  0.13259  0.39921  0.17817  1.0000
  C   C57       1.0  0.07913  0.43294  0.17377  1.0000
  H   H57       1.0  0.08641  0.40082  0.19715  1.0000
  H   H58       1.0  0.11224  0.43909  0.15305  1.0000
  H   H59       1.0  0.22240  0.04834  0.01150  1.0000
  H   H60       1.0  0.16868  0.01847  0.11883  1.0000
  S   S20       1.0  0.10813  0.97165  0.24264  1.0000
  H   H61       1.0  0.09409  0.28214  0.00013  1.0000
  H   H62       1.0  0.18923  0.98170  0.07855  1.0000
  H   H63       1.0  0.03883  0.21496  0.07086  1.0000
  C   C58       1.0  0.17563  0.15829  0.97204  1.0000
  N   N4        1.0  0.11396  0.29873  0.98386  1.0000
  H   H64       1.0  0.99781  0.28807  0.20449  1.0000
  H   H65       1.0  0.10687  0.46647  0.27134  1.0000
  C   C59       1.0  0.16405  0.97297  0.16270  1.0000
  Fe  Fe7       1.0  0.98317  0.35897  0.20427  1.0000
  C   C60       1.0  0.11052  0.31427  0.97056  1.0000
  H   H66       1.0  0.12403  0.97708  0.11320  1.0000
  H   H67       1.0  0.98357  0.30240  0.12637  1.0000
  H   H68       1.0  0.99201  0.26352  0.15950  1.0000
  C   C61       1.0  0.00696  0.98994  0.22004  1.0000
  C   C62       1.0  0.12037  0.46434  0.27568  1.0000
  H   H69       1.0  0.01325  0.99890  0.20726  1.0000
  C   C63       1.0  0.16051  0.46473  0.12978  1.0000
  H   H70       1.0  0.99518  0.13957  0.28630  1.0000
  H   H71       1.0  0.19697  0.13357  0.96985  1.0000
  C   C64       1.0  0.98136  0.16922  0.25060  1.0000
  N   N5        1.0  0.15142  0.98146  0.11341  1.0000
  H   H72       1.0  0.14252  0.00089  0.13240  1.0000
  C   C65       1.0  0.13480  0.46647  0.15658  1.0000
  C   C66       1.0  0.98806  0.26529  0.17403  1.0000
  C   C67       1.0  0.16430  0.97609  0.09849  1.0000
  H   H73       1.0  0.01596  0.97403  0.25363  1.0000
  H   H74       1.0  0.00350  0.99842  0.23142  1.0000
  H   H75       1.0  0.14812  0.31069  0.00075  1.0000
  H   H76       1.0  0.13040  0.97252  0.13620  1.0000
  H   H77       1.0  0.11385  0.26978  0.98580  1.0000
  S   S21       1.0  0.06858  0.46870  0.20615  1.0000
  S   S22       1.0  0.22383  0.99535  0.06402  1.0000
  H   H78       1.0  0.08785  0.99773  0.27932  1.0000
  C   C68       1.0  0.98684  0.26612  0.27310  1.0000
  H   H79       1.0  0.17158  0.26862  0.97846  1.0000
  H   H80       1.0  0.99368  0.98677  0.21775  1.0000
  C   C69       1.0  0.98800  0.39519  0.25380  1.0000
  C   C70       1.0  0.09452  0.98673  0.28920  1.0000
  C   C71       1.0  0.99112  0.27916  0.19905  1.0000
  N   N6        1.0  0.02009  0.97253  0.22458  1.0000
  C   C72       1.0  0.13567  0.97137  0.12122  1.0000
  C   C73       1.0  0.22730  0.41407  0.02975  1.0000
  C   C74       1.0  0.22685  0.01559  0.96235  1.0000
  C   C75       1.0  0.22938  0.03431  0.01624  1.0000
  Fe  Fe8       1.0  0.20075  0.32868  0.96237  1.0000
  C   C76       1.0  0.14647  0.15788  0.96236  1.0000
  H   H81       1.0  0.22868  0.42152  0.43874  1.0000
  S   S23       1.0  0.06175  0.30019  0.60582  1.0000
  C   C77       1.0  0.19934  0.36801  0.55272  1.0000
  S   S24       1.0  0.20899  0.42701  0.36324  1.0000
  Fe  Fe9       1.0  0.18283  0.31298  0.47315  1.0000
  S   S25       1.0  0.20441  0.32711  0.45166  1.0000
  S   S26       1.0  0.17361  0.28598  0.47187  1.0000
  Fe  Fe10      1.0  0.18420  0.33528  0.50336  1.0000
  S   S27       1.0  0.17066  0.33659  0.53383  1.0000
  Fe  Fe11      1.0  0.18883  0.35381  0.46173  1.0000
  Fe  Fe12      1.0  0.21987  0.32318  0.47561  1.0000
  S   S28       1.0  0.16592  0.33982  0.48151  1.0000
  S   S29       1.0  0.19955  0.30748  0.49635  1.0000
  Fe  Fe13      1.0  0.09319  0.24092  0.45829  1.0000
  S   S30       1.0  0.10900  0.21779  0.47659  1.0000
  S   S31       1.0  0.10011  0.27033  0.45102  1.0000
  Fe  Fe14      1.0  0.06584  0.21605  0.45395  1.0000
  S   S32       1.0  0.08000  0.19117  0.47253  1.0000
  S   S33       1.0  0.03781  0.21565  0.44484  1.0000
  Fe  Fe15      1.0  0.08060  0.21163  0.49100  1.0000
  S   S34       1.0  0.07391  0.20546  0.52278  1.0000
  Fe  Fe16      1.0  0.10733  0.19961  0.45657  1.0000
  S   S35       1.0  0.13480  0.18262  0.44405  1.0000
  S   S36       1.0  0.06468  0.23584  0.47384  1.0000
  S   S37       1.0  0.09323  0.22337  0.43688  1.0000
  H   H82       1.0  0.16117  0.08328  0.43333  1.0000
  H   H83       1.0  0.20694  0.37091  0.41223  1.0000
  Fe  Fe17      1.0  0.20227  0.08865  0.47354  1.0000
  S   S38       1.0  0.17240  0.10270  0.48319  1.0000
  H   H84       1.0  0.15191  0.09256  0.45455  1.0000
  C   C78       1.0  0.16431  0.08396  0.44714  1.0000
  S   S39       1.0  0.20594  0.00534  0.37231  1.0000
  C   C79       1.0  0.18034  0.05134  0.44927  1.0000
  N   N7        1.0  0.14537  0.42340  0.32513  1.0000
  H   H85       1.0  0.22107  0.38280  0.45779  1.0000
  H   H86       1.0  0.12191  0.44369  0.33419  1.0000
  C   C80       1.0  0.14371  0.43965  0.35041  1.0000
  S   S40       1.0  0.00986  0.20397  0.37199  1.0000
  H   H87       1.0  0.17643  0.09132  0.44494  1.0000
  H   H88       1.0  0.00958  0.16891  0.40003  1.0000
  H   H89       1.0  0.18623  0.05424  0.43452  1.0000
  C   C81       1.0  0.12308  0.38030  0.60206  1.0000
  H   H90       1.0  0.14201  0.40513  0.54740  1.0000
  H   H91       1.0  0.18046  0.43835  0.39487  1.0000
  H   H92       1.0  0.19196  0.12056  0.52587  1.0000
  C   C82       1.0  0.11785  0.35992  0.58298  1.0000
  C   C83       1.0  0.20704  0.39560  0.39056  1.0000
  S   S41       1.0  0.06898  0.27020  0.56922  1.0000
  H   H93       1.0  0.14308  0.32365  0.60888  1.0000
  H   H94       1.0  0.15312  0.07264  0.48378  1.0000
  H   H95       1.0  0.02288  0.20420  0.48444  1.0000
  C   C84       1.0  0.16188  0.06158  0.47674  1.0000
  C   C85       1.0  0.15018  0.39187  0.55377  1.0000
  C   C86       1.0  0.01386  0.15385  0.34638  1.0000
  C   C87       1.0  0.00320  0.13954  0.35158  1.0000
  C   C88       1.0  0.13645  0.41912  0.31102  1.0000
  H   H96       1.0  0.14181  0.39954  0.58825  1.0000
  H   H97       1.0  0.12026  0.31351  0.57123  1.0000
  C   C89       1.0  0.02300  0.21428  0.49312  1.0000
  C   C90       1.0  0.18017  0.41358  0.41638  1.0000
  C   C91       1.0  0.13500  0.38849  0.58666  1.0000
  C   C92       1.0  0.17136  0.41733  0.34161  1.0000
  C   C93       1.0  0.11435  0.36606  0.60010  1.0000
  H   H98       1.0  0.12936  0.40684  0.31694  1.0000
  H   H99       1.0  0.10522  0.35948  0.61201  1.0000
  H   H100      1.0  0.16252  0.39504  0.55816  1.0000
  H   H101      1.0  0.12586  0.43121  0.30610  1.0000
  C   C94       1.0  0.21144  0.14798  0.46505  1.0000
  C   C95       1.0  0.19360  0.35838  0.54106  1.0000
  N   N8        1.0  0.16869  0.06512  0.45795  1.0000
  C   C96       1.0  0.03043  0.21260  0.42426  1.0000
  C   C97       1.0  0.01110  0.21358  0.42446  1.0000
  C   C98       1.0  0.00449  0.21123  0.40865  1.0000
  C   C99       1.0  0.01713  0.20785  0.39229  1.0000
  C   C100      1.0  0.03646  0.20679  0.39211  1.0000
  C   C101      1.0  0.04306  0.20916  0.40790  1.0000
  H   H102      1.0  0.00112  0.21623  0.43694  1.0000
  H   H103      1.0  0.98961  0.21205  0.40916  1.0000
  H   H104      1.0  0.04644  0.20421  0.37960  1.0000
  H   H105      1.0  0.05794  0.20837  0.40739  1.0000
  C   C102      1.0  0.07295  0.22336  0.53567  1.0000
  C   C103      1.0  0.07032  0.21926  0.55533  1.0000
  C   C104      1.0  0.06909  0.23336  0.56591  1.0000
  C   C105      1.0  0.07018  0.25176  0.55689  1.0000
  C   C106      1.0  0.07248  0.25587  0.53725  1.0000
  C   C107      1.0  0.07408  0.24174  0.52668  1.0000
  H   H106      1.0  0.06940  0.20507  0.56241  1.0000
  H   H107      1.0  0.06729  0.23000  0.58101  1.0000
  H   H108      1.0  0.07319  0.27008  0.53012  1.0000
  H   H109      1.0  0.07605  0.24511  0.51156  1.0000
  C   C108      1.0  0.14511  0.16052  0.45531  1.0000
  C   C109      1.0  0.13627  0.15157  0.47238  1.0000
  C   C110      1.0  0.14481  0.13386  0.48075  1.0000
  C   C111      1.0  0.16230  0.12502  0.47222  1.0000
  C   C112      1.0  0.17125  0.13403  0.45524  1.0000
  C   C113      1.0  0.16266  0.15170  0.44682  1.0000
  H   H110      1.0  0.12276  0.15822  0.47906  1.0000
  H   H111      1.0  0.13778  0.12699  0.49390  1.0000
  H   H112      1.0  0.18465  0.12731  0.44845  1.0000
  H   H113      1.0  0.16954  0.15848  0.43354  1.0000
  C   C114      1.0  0.17989  0.34712  0.54842  1.0000
  C   C115      1.0  0.17234  0.34522  0.56764  1.0000
  C   C116      1.0  0.17800  0.35496  0.57930  1.0000
  C   C117      1.0  0.19143  0.36656  0.57181  1.0000
  H   H114      1.0  0.16185  0.33640  0.57353  1.0000
  H   H115      1.0  0.17188  0.35364  0.59400  1.0000
  C   C118      1.0  0.11912  0.27540  0.45904  1.0000
  C   C119      1.0  0.12365  0.29349  0.45393  1.0000
  C   C120      1.0  0.13985  0.29735  0.45854  1.0000
  C   C121      1.0  0.15168  0.28303  0.46814  1.0000
  C   C122      1.0  0.14678  0.26517  0.47382  1.0000
  C   C123      1.0  0.13054  0.26140  0.46940  1.0000
  H   H116      1.0  0.11485  0.30445  0.44597  1.0000
  H   H117      1.0  0.14352  0.31118  0.45407  1.0000
  H   H118      1.0  0.15583  0.25404  0.48132  1.0000
  H   H119      1.0  0.12724  0.24751  0.47354  1.0000
  C   C124      1.0  0.19982  0.41475  0.38551  1.0000
  C   C125      1.0  0.18614  0.42363  0.39846  1.0000
  Fe  Fe18      1.0  0.06704  0.27056  0.60031  1.0000
  C   C126      1.0  0.18774  0.39456  0.42161  1.0000
  C   C127      1.0  0.20103  0.38553  0.40847  1.0000
  N   N9        1.0  0.02490  0.24024  0.51451  1.0000
  C   C128      1.0  0.01903  0.24627  0.49762  1.0000
  C   C129      1.0  0.02945  0.22150  0.52110  1.0000
  C   C130      1.0  0.01790  0.23339  0.48672  1.0000
  C   C131      1.0  0.02880  0.20826  0.51042  1.0000
  C   C132      1.0  0.02665  0.25408  0.52527  1.0000
  H   H120      1.0  0.01568  0.26113  0.49225  1.0000
  H   H121      1.0  0.03430  0.21664  0.53438  1.0000
  H   H122      1.0  0.01386  0.23815  0.47302  1.0000
  H   H123      1.0  0.01283  0.26306  0.52887  1.0000
  H   H124      1.0  0.03187  0.24736  0.53853  1.0000
  H   H125      1.0  0.03695  0.26298  0.51697  1.0000
  C   C133      1.0  0.22083  0.12463  0.52030  1.0000
  S   S42       1.0  0.19604  0.45687  0.31783  1.0000
  C   C134      1.0  0.21474  0.03858  0.40618  1.0000
  H   H126      1.0  0.10404  0.26838  0.54156  1.0000
  H   H127      1.0  0.10983  0.00461  0.29710  1.0000
  S   S43       1.0  0.19807  0.38027  0.58536  1.0000
  C   C135      1.0  0.16160  0.43017  0.35308  1.0000
  Fe  Fe19      1.0  0.08597  0.29076  0.62141  1.0000
  Fe  Fe20      1.0  0.18557  0.38279  0.61565  1.0000
  C   C136      1.0  0.02156  0.15945  0.39311  1.0000
  C   C137      1.0  0.99847  0.13200  0.37045  1.0000
  H   H128      1.0  0.14769  0.29512  0.50485  1.0000
  H   H129      1.0  0.20977  0.37692  0.54685  1.0000
  C   C138      1.0  0.01993  0.16022  0.36017  1.0000
  H   H130      1.0  0.13755  0.99030  0.31320  1.0000
  H   H131      1.0  0.12080  0.38477  0.61551  1.0000
  C   C139      1.0  0.10696  0.99049  0.29925  1.0000
  S   S44       1.0  0.98549  0.20815  0.32958  1.0000
  S   S45       1.0  0.09206  0.26153  0.61489  1.0000
  H   H132      1.0  0.11967  0.98788  0.33401  1.0000
  H   H133      1.0  0.15588  0.38284  0.54294  1.0000
  H   H134      1.0  0.17737  0.24554  0.44321  1.0000
  H   H135      1.0  0.21688  0.42292  0.41930  1.0000
  S   S46       1.0  0.11076  0.30646  0.61316  1.0000
  H   H136      1.0  0.00069  0.13309  0.39857  1.0000
  C   C140      1.0  0.20012  0.13442  0.49753  1.0000
  C   C141      1.0  0.13570  0.43598  0.33637  1.0000
  H   H137      1.0  0.11150  0.34845  0.58160  1.0000
  S   S47       1.0  0.20592  0.35087  0.48441  1.0000
  H   H138      1.0  0.16801  0.43292  0.36387  1.0000
  H   H139      1.0  0.21755  0.38854  0.38063  1.0000
  H   H140      1.0  0.15243  0.20965  0.45981  1.0000
  H   H141      1.0  0.15165  0.34406  0.62720  1.0000
  H   H142      1.0  0.20126  0.04167  0.38227  1.0000
  C   C142      1.0  0.21365  0.01283  0.39041  1.0000
  N   N10       1.0  0.11553  0.97651  0.31150  1.0000
  S   S48       1.0  0.18121  0.38337  0.44514  1.0000
  H   H143      1.0  0.21137  0.05333  0.40699  1.0000
  C   C143      1.0  0.16296  0.41404  0.32765  1.0000
  H   H144      1.0  0.16987  0.42072  0.42641  1.0000
  H   H145      1.0  0.03336  0.19347  0.51531  1.0000
  N   N11       1.0  0.21433  0.14100  0.48440  1.0000
  H   H146      1.0  0.17637  0.21360  0.45379  1.0000
  H   H147      1.0  0.00571  0.29168  0.61713  1.0000
  S   S49       1.0  0.21802  0.08982  0.44406  1.0000
  H   H148      1.0  0.22103  0.15793  0.45762  1.0000
  H   H149      1.0  0.14510  0.31202  0.56243  1.0000
  H   H150      1.0  0.13637  0.29267  0.57837  1.0000
  C   C144      1.0  0.18511  0.03336  0.45934  1.0000
  C   C145      1.0  0.16649  0.04379  0.48728  1.0000
  C   C146      1.0  0.17818  0.02961  0.47847  1.0000
  H   H151      1.0  0.19458  0.02256  0.45241  1.0000
  H   H152      1.0  0.16137  0.04117  0.50223  1.0000
  H   H153      1.0  0.18222  0.01584  0.48649  1.0000
  H   H154      1.0  0.19951  0.35999  0.52631  1.0000
  Fe  Fe21      1.0  0.19920  0.45652  0.34753  1.0000
  N   N12       1.0  0.13823  0.38252  0.56985  1.0000
  C   C147      1.0  0.12979  0.36846  0.56784  1.0000
  H   H155      1.0  0.01700  0.16026  0.33177  1.0000
  H   H156      1.0  0.13262  0.36350  0.55459  1.0000
  H   H157      1.0  0.02791  0.17160  0.35602  1.0000
  H   H158      1.0  0.12339  0.27501  0.50991  1.0000
  S   S50       1.0  0.21102  0.05749  0.48108  1.0000
  N   N13       1.0  0.15710  0.23188  0.43720  1.0000
  C   C148      1.0  0.16566  0.24687  0.43605  1.0000
  C   C149      1.0  0.14193  0.23386  0.42868  1.0000
  C   C150      1.0  0.15890  0.26446  0.42630  1.0000
  C   C151      1.0  0.13475  0.25126  0.41890  1.0000
  C   C152      1.0  0.14326  0.26665  0.41780  1.0000
  H   H159      1.0  0.16717  0.20269  0.43895  1.0000
  H   H160      1.0  0.18654  0.13489  0.49385  1.0000
  H   H161      1.0  0.13507  0.22201  0.42974  1.0000
  H   H162      1.0  0.16522  0.27648  0.42611  1.0000
  H   H163      1.0  0.12218  0.25296  0.41291  1.0000
  H   H164      1.0  0.13728  0.28039  0.41100  1.0000
  C   C153      1.0  0.00470  0.13876  0.38389  1.0000
  C   C154      1.0  0.16371  0.21360  0.44798  1.0000
  N   N14       1.0  0.01552  0.15249  0.37864  1.0000
  N   N15       1.0  0.13079  0.29597  0.55081  1.0000
  C   C155      1.0  0.14163  0.29957  0.53350  1.0000
  C   C156      1.0  0.11733  0.28500  0.55372  1.0000
  C   C157      1.0  0.13912  0.29213  0.51855  1.0000
  C   C158      1.0  0.11461  0.27718  0.53911  1.0000
  C   C159      1.0  0.12551  0.28085  0.52140  1.0000
  C   C160      1.0  0.13332  0.30398  0.56639  1.0000
  H   H165      1.0  0.15232  0.30824  0.53109  1.0000
  H   H166      1.0  0.10856  0.28226  0.56739  1.0000
  H   H167      1.0  0.02679  0.14773  0.40378  1.0000
  H   H168      1.0  0.98977  0.12121  0.37461  1.0000
  H   H169      1.0  0.13622  0.45007  0.35889  1.0000
  C   C161      1.0  0.20314  0.12619  0.51567  1.0000
  H   H170      1.0  0.03310  0.16764  0.38709  1.0000
  H   H171      1.0  0.18542  0.41014  0.34351  1.0000
  Fe  Fe22      1.0  0.21115  0.97799  0.36035  1.0000
  S   S51       1.0  0.98205  0.16319  0.31407  1.0000
  Fe  Fe23      1.0  0.98266  0.20413  0.36110  1.0000
  H   H172      1.0  0.19677  0.15533  0.46453  1.0000
  C   C162      1.0  0.22032  0.41425  0.43270  1.0000
  C   C163      1.0  0.13387  0.32683  0.62164  1.0000
  H   H173      1.0  0.17062  0.40403  0.31879  1.0000
  C   C164      1.0  0.20913  0.03192  0.39205  1.0000
  H   H174      1.0  0.21442  0.13601  0.45736  1.0000
  H   H175      1.0  0.99826  0.13461  0.34102  1.0000
  S   S52       1.0  0.21965  0.98085  0.32896  1.0000
  C   C165      1.0  0.11703  0.31962  0.62753  1.0000
  C   C166      1.0  0.12803  0.98096  0.32229  1.0000
  S   S53       1.0  0.22526  0.09482  0.48543  1.0000
  H   H176      1.0  0.20666  0.41311  0.44229  1.0000
  S   S54       1.0  0.04672  0.26095  0.62612  1.0000
  H   H177      1.0  0.14695  0.41612  0.29840  1.0000
  H   H178      1.0  0.22351  0.11784  0.53417  1.0000
  S   S55       1.0  0.15551  0.39588  0.62398  1.0000
  S   S56       1.0  0.17902  0.97243  0.30811  1.0000
  C   C167      1.0  0.99307  0.29574  0.62684  1.0000
  H   H179      1.0  0.22753  0.98574  0.40215  1.0000
  C   C168      1.0  0.22482  0.02617  0.41906  1.0000
  C   C169      1.0  0.22398  0.00046  0.40310  1.0000
  C   C170      1.0  0.22945  0.00710  0.41733  1.0000
  Fe  Fe24      1.0  0.22876  0.05888  0.45227  1.0000
  H   H180      1.0  0.98342  0.24446  0.29746  1.0000
  H   H181      1.0  0.20399  0.43840  0.62844  1.0000
  Fe  Fe25      1.0  0.19409  0.38021  0.65520  1.0000
  S   S57       1.0  0.16438  0.39227  0.66643  1.0000
  Fe  Fe26      1.0  0.15633  0.37384  0.64975  1.0000
  S   S58       1.0  0.13231  0.35770  0.66158  1.0000
  C   C171      1.0  0.14807  0.18319  0.91568  1.0000
  H   H182      1.0  0.16534  0.12395  0.82604  1.0000
  S   S59       1.0  0.18601  0.35980  0.64077  1.0000
  H   H183      1.0  0.11620  0.06888  0.85427  1.0000
  C   C172      1.0  0.10732  0.20059  0.73961  1.0000
  Fe  Fe27      1.0  0.07134  0.25461  0.64135  1.0000
  S   S60       1.0  0.06735  0.28305  0.64895  1.0000
  S   S61       1.0  0.07491  0.22807  0.66323  1.0000
  H   H184      1.0  0.18159  0.41628  0.95923  1.0000
  N   N16       1.0  0.18054  0.35567  0.71642  1.0000
  H   H185      1.0  0.21704  0.09468  0.72105  1.0000
  C   C173      1.0  0.01701  0.27130  0.69558  1.0000
  H   H186      1.0  0.10066  0.31496  0.96138  1.0000
  C   C174      1.0  0.19642  0.41691  0.95465  1.0000
  Fe  Fe28      1.0  0.05707  0.20591  0.77379  1.0000
  S   S62       1.0  0.03491  0.20394  0.79972  1.0000
  S   S63       1.0  0.05441  0.23104  0.75032  1.0000
  Fe  Fe29      1.0  0.08236  0.17095  0.78971  1.0000
  S   S64       1.0  0.06214  0.16596  0.81681  1.0000
  S   S65       1.0  0.11247  0.15639  0.78245  1.0000
  Fe  Fe30      1.0  0.03993  0.17330  0.79832  1.0000
  S   S66       1.0  0.01572  0.15691  0.80545  1.0000
  Fe  Fe31      1.0  0.05861  0.19698  0.81629  1.0000
  S   S67       1.0  0.05489  0.21171  0.84147  1.0000
  S   S68       1.0  0.06065  0.17567  0.77120  1.0000
  S   S69       1.0  0.08024  0.20153  0.79037  1.0000
  Fe  Fe32      1.0  0.20852  0.04931  0.77872  1.0000
  S   S70       1.0  0.21606  0.02709  0.80305  1.0000
  N   N17       1.0  0.00229  0.12444  0.75442  1.0000
  Fe  Fe33      1.0  0.16697  0.05440  0.79491  1.0000
  S   S71       1.0  0.17138  0.03207  0.81997  1.0000
  S   S72       1.0  0.13675  0.06801  0.79320  1.0000
  Fe  Fe34      1.0  0.19559  0.04568  0.82139  1.0000
  S   S73       1.0  0.19478  0.05160  0.85081  1.0000
  Fe  Fe35      1.0  0.19132  0.01545  0.79966  1.0000
  S   S74       1.0  0.19599  0.98414  0.79902  1.0000
  S   S75       1.0  0.18989  0.06896  0.79726  1.0000
  S   S76       1.0  0.18505  0.03669  0.77438  1.0000
  C   C175      1.0  0.19358  0.34540  0.70478  1.0000
  H   H187      1.0  0.20837  0.34283  0.70582  1.0000
  Fe  Fe36      1.0  0.10557  0.21939  0.92670  1.0000
  S   S77       1.0  0.10761  0.20550  0.90131  1.0000
  H   H188      1.0  0.16734  0.14933  0.91006  1.0000
  Fe  Fe37      1.0  0.21193  0.09745  0.95228  1.0000
  S   S78       1.0  0.13168  0.22614  0.93307  1.0000
  S   S79       1.0  0.08711  0.24462  0.93730  1.0000
  C   C176      1.0  0.15610  0.35263  0.70096  1.0000
  C   C177      1.0  0.22364  0.09604  0.69128  1.0000
  Fe  Fe38      1.0  0.21115  0.36322  0.93446  1.0000
  H   H189      1.0  0.14077  0.31036  0.92818  1.0000
  C   C178      1.0  0.21042  0.05920  0.86180  1.0000
  C   C179      1.0  0.10368  0.21921  0.74216  1.0000
  C   C180      1.0  0.01971  0.25135  0.67226  1.0000
  H   H190      1.0  0.17930  0.37700  0.73213  1.0000
  C   C181      1.0  0.98716  0.16964  0.76184  1.0000
  N   N18       1.0  0.22392  0.41539  0.93063  1.0000
  H   H191      1.0  0.22033  0.45939  0.76475  1.0000
  C   C182      1.0  0.02481  0.12436  0.77355  1.0000
  C   C183      1.0  0.20453  0.40383  0.71377  1.0000
  H   H192      1.0  0.19161  0.40107  0.69111  1.0000
  H   H193      1.0  0.19663  0.41356  0.92662  1.0000
  N   N19       1.0  0.18868  0.97517  0.74560  1.0000
  C   C184      1.0  0.07111  0.21121  0.85631  1.0000
  C   C185      1.0  0.08704  0.19725  0.85740  1.0000
  C   C186      1.0  0.09831  0.19611  0.87091  1.0000
  C   C187      1.0  0.09385  0.20887  0.88348  1.0000
  C   C188      1.0  0.07823  0.22316  0.88204  1.0000
  C   C189      1.0  0.06695  0.22428  0.86854  1.0000
  H   H194      1.0  0.09042  0.18708  0.84813  1.0000
  H   H195      1.0  0.11040  0.18505  0.87182  1.0000
  H   H196      1.0  0.07472  0.23322  0.89143  1.0000
  H   H197      1.0  0.05471  0.23519  0.86776  1.0000
  C   C190      1.0  0.11883  0.13183  0.78480  1.0000
  C   C191      1.0  0.10534  0.12015  0.78972  1.0000
  C   C192      1.0  0.11103  0.10059  0.79177  1.0000
  C   C193      1.0  0.13020  0.09261  0.78925  1.0000
  C   C194      1.0  0.14367  0.10431  0.78430  1.0000
  C   C195      1.0  0.13798  0.12385  0.78193  1.0000
  H   H198      1.0  0.09055  0.12618  0.79188  1.0000
  H   H199      1.0  0.10055  0.09159  0.79552  1.0000
  H   H200      1.0  0.15845  0.09831  0.78225  1.0000
  H   H201      1.0  0.14849  0.13283  0.77808  1.0000
  H   H202      1.0  0.20166  0.36219  0.72869  1.0000
  C   C196      1.0  0.00033  0.16949  0.77312  1.0000
  C   C197      1.0  0.99787  0.16048  0.79178  1.0000
  H   H203      1.0  0.19291  0.41405  0.71900  1.0000
  H   H204      1.0  0.01273  0.17574  0.76721  1.0000
  C   C198      1.0  0.06855  0.22904  0.68741  1.0000
  C   C199      1.0  0.06523  0.24601  0.69392  1.0000
  C   C200      1.0  0.06106  0.24631  0.71322  1.0000
  C   C201      1.0  0.06010  0.22967  0.72625  1.0000
  C   C202      1.0  0.06330  0.21266  0.71980  1.0000
  C   C203      1.0  0.06748  0.21237  0.70043  1.0000
  H   H205      1.0  0.06613  0.25892  0.68414  1.0000
  H   H206      1.0  0.05862  0.25952  0.71810  1.0000
  H   H207      1.0  0.06248  0.19977  0.72972  1.0000
  H   H208      1.0  0.06995  0.19917  0.69551  1.0000
  C   C204      1.0  0.12687  0.34283  0.64840  1.0000
  N   N20       1.0  0.16717  0.17496  0.91895  1.0000
  H   H209      1.0  0.03739  0.12875  0.77526  1.0000
  H   H210      1.0  0.21722  0.15327  0.92871  1.0000
  C   C205      1.0  0.10527  0.32382  0.64406  1.0000
  C   C206      1.0  0.11021  0.33533  0.65447  1.0000
  C   C207      1.0  0.22011  0.39789  0.72300  1.0000
  C   C208      1.0  0.20410  0.06312  0.88007  1.0000
  H   H211      1.0  0.09225  0.31839  0.64871  1.0000
  H   H212      1.0  0.10097  0.33863  0.66718  1.0000
  Fe  Fe39      1.0  0.04355  0.28975  0.63269  1.0000
  H   H213      1.0  0.01454  0.25991  0.74278  1.0000
  H   H214      1.0  0.14206  0.17428  0.90900  1.0000
  S   S80       1.0  0.22249  0.06860  0.94510  1.0000
  C   C209      1.0  0.17031  0.29535  0.96000  1.0000
  H   H215      1.0  0.13347  0.97658  0.79113  1.0000
  C   C210      1.0  0.15860  0.45677  0.65409  1.0000
  C   C211      1.0  0.16421  0.44741  0.67096  1.0000
  C   C212      1.0  0.16589  0.45768  0.68428  1.0000
  H   H216      1.0  0.10692  0.18936  0.75166  1.0000
  H   H217      1.0  0.16739  0.43228  0.67367  1.0000
  H   H218      1.0  0.17038  0.45033  0.69723  1.0000
  H   H219      1.0  0.01554  0.28752  0.71702  1.0000
  C   C213      1.0  0.01552  0.24073  0.72435  1.0000
  H   H220      1.0  0.20669  0.04892  0.70206  1.0000
  H   H221      1.0  0.20440  0.05130  0.73538  1.0000
  H   H222      1.0  0.10014  0.22260  0.75615  1.0000
  C   C214      1.0  0.17676  0.18481  0.92622  1.0000
  H   H223      1.0  0.18988  0.06175  0.88691  1.0000
  H   H224      1.0  0.00617  0.12219  0.72575  1.0000
  H   H225      1.0  0.10079  0.24805  0.72853  1.0000
  N   N21       1.0  0.11138  0.21074  0.70627  1.0000
  C   C215      1.0  0.10808  0.22903  0.70865  1.0000
  C   C216      1.0  0.11122  0.19658  0.72144  1.0000
  C   C217      1.0  0.10411  0.23354  0.72662  1.0000
  C   C218      1.0  0.11560  0.20613  0.68738  1.0000
  H   H226      1.0  0.10796  0.24028  0.69667  1.0000
  H   H227      1.0  0.11389  0.18207  0.71960  1.0000
  H   H228      1.0  0.13083  0.20069  0.68362  1.0000
  H   H229      1.0  0.10735  0.19551  0.68653  1.0000
  H   H230      1.0  0.11165  0.21856  0.67671  1.0000
  H   H231      1.0  0.02701  0.13666  0.74450  1.0000
  C   C219      1.0  0.22851  0.28204  0.94238  1.0000
  C   C220      1.0  0.16934  0.34232  0.68892  1.0000
  C   C221      1.0  0.12258  0.07137  0.83924  1.0000
  H   H232      1.0  0.07479  0.18013  0.91853  1.0000
  S   S81       1.0  0.15734  0.44449  0.63652  1.0000
  N   N22       1.0  0.01747  0.25395  0.69169  1.0000
  C   C222      1.0  0.17945  0.97196  0.79491  1.0000
  S   S82       1.0  0.18077  0.10865  0.95477  1.0000
  H   H233      1.0  0.04514  0.21995  0.94009  1.0000
  C   C223      1.0  0.13874  0.33845  0.63198  1.0000
  H   H234      1.0  0.21996  0.43096  0.68233  1.0000
  H   H235      1.0  0.01793  0.28330  0.68438  1.0000
  H   H236      1.0  0.19614  0.00223  0.73713  1.0000
  C   C224      1.0  0.21780  0.05106  0.72605  1.0000
  N   N23       1.0  0.05122  0.20237  0.91915  1.0000
  C   C225      1.0  0.03611  0.21173  0.91104  1.0000
  C   C226      1.0  0.06221  0.18690  0.91279  1.0000
  C   C227      1.0  0.03152  0.20546  0.89632  1.0000
  C   C228      1.0  0.05801  0.18024  0.89812  1.0000
  C   C229      1.0  0.04257  0.18962  0.88984  1.0000
  C   C230      1.0  0.16198  0.35925  0.71472  1.0000
  C   C231      1.0  0.21600  0.06869  0.88967  1.0000
  C   C232      1.0  0.01699  0.23873  0.70574  1.0000
  H   H237      1.0  0.18036  0.99905  0.75931  1.0000
  H   H238      1.0  0.06718  0.16845  0.89259  1.0000
  H   H239      1.0  0.03971  0.18519  0.87782  1.0000
  H   H240      1.0  0.15901  0.98464  0.74907  1.0000
  H   H241      1.0  0.20232  0.18488  0.93589  1.0000
  H   H242      1.0  0.01808  0.11223  0.80260  1.0000
  C   C233      1.0  0.21911  0.04981  0.70713  1.0000
  C   C234      1.0  0.18413  0.46755  0.74101  1.0000
  C   C235      1.0  0.14769  0.30107  0.93897  1.0000
  H   H243      1.0  0.15889  0.06629  0.84129  1.0000
  H   H244      1.0  0.16498  0.33740  0.67798  1.0000
  H   H245      1.0  0.16569  0.32045  0.93969  1.0000
  H   H246      1.0  0.20477  0.40632  0.87150  1.0000
  C   C236      1.0  0.01876  0.12894  0.75627  1.0000
  S   S83       1.0  0.19660  0.40179  0.62912  1.0000
  C   C237      1.0  0.19498  0.17726  0.92963  1.0000
  S   S84       1.0  0.18845  0.35944  0.95991  1.0000
  H   H247      1.0  0.99526  0.14515  0.73135  1.0000
  H   H248      1.0  0.11134  0.07545  0.83054  1.0000
  H   H249      1.0  0.03474  0.24624  0.66696  1.0000
  C   C238      1.0  0.16422  0.09450  0.83411  1.0000
  H   H250      1.0  0.13864  0.18515  0.92915  1.0000
  C   C239      1.0  0.15655  0.11330  0.82898  1.0000
  C   C240      1.0  0.99434  0.30175  0.64310  1.0000
  C   C241      1.0  0.99618  0.12979  0.73619  1.0000
  S   S85       1.0  0.12201  0.27845  0.94022  1.0000
  C   C242      1.0  0.21871  0.38038  0.88573  1.0000
  H   H251      1.0  0.06043  0.19818  0.94530  1.0000
  H   H252      1.0  0.01566  0.22858  0.73545  1.0000
  H   H253      1.0  0.20934  0.01670  0.93395  1.0000
  H   H254      1.0  0.14798  0.19701  0.90630  1.0000
  C   C243      1.0  0.16185  0.30683  0.94546  1.0000
  H   H255      1.0  0.20990  0.09378  0.69020  1.0000
  H   H256      1.0  0.17896  0.09037  0.83540  1.0000
  C   C244      1.0  0.05666  0.20967  0.93373  1.0000
  C   C245      1.0  0.19895  0.45762  0.74995  1.0000
  H   H257      1.0  0.20281  0.44256  0.75078  1.0000
  C   C246      1.0  0.01493  0.25837  0.72847  1.0000
  C   C247      1.0  0.20507  0.41524  0.93626  1.0000
  H   H258      1.0  0.01497  0.26466  0.66304  1.0000
  C   C248      1.0  0.22607  0.26546  0.95478  1.0000
  C   C249      1.0  0.17514  0.15746  0.91517  1.0000
  H   H259      1.0  0.15579  0.99438  0.79747  1.0000
  H   H260      1.0  0.13104  0.05802  0.83531  1.0000
  Fe  Fe40      1.0  0.16650  0.41301  0.63963  1.0000
  C   C250      1.0  0.15281  0.08089  0.83741  1.0000
  S   S86       1.0  0.01608  0.30420  0.64771  1.0000
  C   C251      1.0  0.19261  0.99214  0.75013  1.0000
  H   H261      1.0  0.01997  0.21323  0.88941  1.0000
  S   S87       1.0  0.22196  0.33247  0.93586  1.0000
  C   C252      1.0  0.12654  0.10431  0.83103  1.0000
  H   H262      1.0  0.98948  0.17614  0.74727  1.0000
  H   H263      1.0  0.21674  0.29352  0.94133  1.0000
  C   C253      1.0  0.14200  0.28368  0.94669  1.0000
  C   C254      1.0  0.13756  0.11829  0.82751  1.0000
  H   H264      1.0  0.17011  0.19835  0.92996  1.0000
  C   C255      1.0  0.01395  0.11505  0.78895  1.0000
  H   H265      1.0  0.21093  0.07149  0.90376  1.0000
  C   C256      1.0  0.20882  0.46725  0.75784  1.0000
  H   H266      1.0  0.20447  0.98873  0.75803  1.0000
  H   H267      1.0  0.01119  0.24108  0.67114  1.0000
  Fe  Fe41      1.0  0.11302  0.24970  0.94611  1.0000
  S   S88       1.0  0.21979  0.40677  0.74349  1.0000
  C   C257      1.0  0.20376  0.39650  0.69794  1.0000
  H   H268      1.0  0.01814  0.22487  0.70256  1.0000
  H   H269      1.0  0.02780  0.22439  0.91559  1.0000
  H   H270      1.0  0.06901  0.21665  0.92762  1.0000
  C   C258      1.0  0.01566  0.27379  0.71402  1.0000
  S   S89       1.0  0.20500  0.38336  0.90795  1.0000
  H   H271      1.0  0.19929  0.13542  0.91584  1.0000
  H   H272      1.0  0.11188  0.10828  0.82955  1.0000
  H   H273      1.0  0.14143  0.35575  0.69934  1.0000
  Fe  Fe42      1.0  0.12474  0.20869  0.96128  1.0000
  H   H274      1.0  0.11806  0.34109  0.95699  1.0000
  C   C259      1.0  0.20330  0.15950  0.92565  1.0000
  N   N24       1.0  0.13431  0.08586  0.83555  1.0000
  H   H275      1.0  0.13148  0.13284  0.82319  1.0000
  C   C260      1.0  0.19331  0.14951  0.91838  1.0000
  H   H276      1.0  0.15162  0.36741  0.72392  1.0000
  H   H277      1.0  0.98844  0.10360  0.79893  1.0000
  S   S90       1.0  0.21776  0.37249  0.67217  1.0000
  C   C261      1.0  0.18822  0.33875  0.69074  1.0000
  H   H278      1.0  0.18246  0.35324  0.74498  1.0000
  C   C262      1.0  0.21553  0.39409  0.86994  1.0000
  C   C263      1.0  0.18624  0.36229  0.73131  1.0000
  C   C264      1.0  0.21857  0.38308  0.69123  1.0000
  H   H279      1.0  0.19875  0.33129  0.68105  1.0000
  C   C265      1.0  0.99158  0.11520  0.76943  1.0000
  S   S91       1.0  0.10014  0.20014  0.95425  1.0000
  H   H280      1.0  0.14501  0.13251  0.95324  1.0000
  H   H281      1.0  0.98189  0.12674  0.73695  1.0000
  C   C266      1.0  0.99727  0.11031  0.78690  1.0000
  C   C267      1.0  0.22886  0.06107  0.85316  1.0000
  C   C268      1.0  0.22602  0.39199  0.85205  1.0000
  H   H282      1.0  0.22333  0.40252  0.83997  1.0000
  H   H283      1.0  0.13238  0.16453  0.96037  1.0000
  C   C269      1.0  0.20647  0.44414  0.63981  1.0000
  C   C270      1.0  0.98166  0.15243  0.79924  1.0000
  H   H284      1.0  0.17644  0.46034  0.73463  1.0000
  H   H285      1.0  0.22284  0.41713  0.90172  1.0000
  C   C271      1.0  0.17191  0.13096  0.96092  1.0000
  C   C272      1.0  0.22344  0.01986  0.92944  1.0000
  C   C273      1.0  0.15117  0.27180  0.96056  1.0000
  C   C274      1.0  0.14803  0.97011  0.79112  1.0000
  C   C275      1.0  0.17062  0.97373  0.74516  1.0000
  C   C276      1.0  0.21525  0.44003  0.67009  1.0000
  C   C277      1.0  0.16065  0.98024  0.79470  1.0000
  C   C278      1.0  0.21266  0.43232  0.65541  1.0000
  C   C279      1.0  0.22780  0.09653  0.70869  1.0000
  H   H286      1.0  0.21528  0.41720  0.65622  1.0000
  C   C280      1.0  0.15361  0.13973  0.95842  1.0000
  H   H287      1.0  0.22163  0.02441  0.90003  1.0000
  H   H288      1.0  0.21321  0.46541  0.68057  1.0000
  C   C281      1.0  0.21150  0.45951  0.66896  1.0000
  C   C282      1.0  0.20292  0.46352  0.63912  1.0000
  C   C283      1.0  0.22635  0.41889  0.96147  1.0000
  C   C284      1.0  0.20385  0.95690  0.19113  1.0000
  C   C285      1.0  0.21533  0.88251  0.08073  1.0000
  H   H289      1.0  0.00413  0.71752  0.19563  1.0000
  Fe  Fe43      1.0  0.07424  0.48024  0.22990  1.0000
  N   N25       1.0  0.19779  0.50656  0.12094  1.0000
  C   C286      1.0  0.16786  0.76139  0.96819  1.0000
  H   H290      1.0  0.20966  0.89415  0.08811  1.0000
  C   C287      1.0  0.00534  0.75846  0.20859  1.0000
  C   C288      1.0  0.11260  0.83711  0.18372  1.0000
  C   C289      1.0  0.14830  0.96679  0.17461  1.0000
  S   S92       1.0  0.05559  0.50651  0.23900  1.0000
  H   H291      1.0  0.09356  0.82434  0.24568  1.0000
  H   H292      1.0  0.14030  0.96575  0.26450  1.0000
  C   C290      1.0  0.17280  0.73932  0.10309  1.0000
  C   C291      1.0  0.21691  0.95079  0.17605  1.0000
  S   S93       1.0  0.17967  0.93506  0.12767  1.0000
  Fe  Fe44      1.0  0.09326  0.93183  0.22455  1.0000
  H   H293      1.0  0.01477  0.76551  0.21284  1.0000
  S   S94       1.0  0.08540  0.91207  0.20851  1.0000
  Fe  Fe45      1.0  0.11425  0.94076  0.25271  1.0000
  S   S95       1.0  0.08584  0.96253  0.21241  1.0000
  C   C292      1.0  0.99657  0.76289  0.15630  1.0000
  S   S96       1.0  0.08441  0.93672  0.25437  1.0000
  S   S97       1.0  0.12360  0.93320  0.22396  1.0000
  Fe  Fe46      1.0  0.07714  0.59758  0.27065  1.0000
  H   H294      1.0  0.98512  0.64056  0.26137  1.0000
  S   S98       1.0  0.08972  0.56966  0.26060  1.0000
  Fe  Fe47      1.0  0.08197  0.63900  0.26172  1.0000
  H   H295      1.0  0.18710  0.49642  0.10147  1.0000
  S   S99       1.0  0.09356  0.66268  0.24085  1.0000
  H   H296      1.0  0.99742  0.66678  0.26747  1.0000
  H   H297      1.0  0.19507  0.91742  0.16920  1.0000
  H   H298      1.0  0.16972  0.50339  0.12106  1.0000
  S   S100      1.0  0.10077  0.61220  0.27141  1.0000
  S   S101      1.0  0.05941  0.62441  0.25838  1.0000
  Fe  Fe48      1.0  0.19814  0.81065  0.06080  1.0000
  S   S102      1.0  0.19409  0.78484  0.08255  1.0000
  S   S103      1.0  0.19584  0.83776  0.07231  1.0000
  Fe  Fe49      1.0  0.19472  0.79047  0.02913  1.0000
  S   S104      1.0  0.18996  0.76388  0.04883  1.0000
  S   S105      1.0  0.19695  0.79327  0.99763  1.0000
  Fe  Fe50      1.0  0.17122  0.78259  0.06803  1.0000
  S   S106      1.0  0.14270  0.77586  0.08272  1.0000
  Fe  Fe51      1.0  0.21320  0.76841  0.06154  1.0000
  S   S107      1.0  0.13119  0.92795  0.27602  1.0000
  S   S108      1.0  0.17399  0.80898  0.04723  1.0000
  Fe  Fe52      1.0  0.04764  0.62751  0.28846  1.0000
  Fe  Fe53      1.0  0.05558  0.81329  0.20958  1.0000
  S   S109      1.0  0.07736  0.78708  0.20995  1.0000
  S   S110      1.0  0.05694  0.83324  0.22890  1.0000
  Fe  Fe54      1.0  0.03642  0.80082  0.18195  1.0000
  S   S111      1.0  0.05792  0.77462  0.17937  1.0000
  S   S112      1.0  0.00969  0.80900  0.16919  1.0000
  Fe  Fe55      1.0  0.05447  0.77113  0.21073  1.0000
  S   S113      1.0  0.04612  0.74527  0.23088  1.0000
  Fe  Fe56      1.0  0.07907  0.79299  0.17868  1.0000
  S   S114      1.0  0.10863  0.79580  0.16333  1.0000
  S   S115      1.0  0.03228  0.79684  0.21327  1.0000
  S   S116      1.0  0.05788  0.81966  0.17839  1.0000
  C   C293      1.0  0.18543  0.78091  0.98670  1.0000
  C   C294      1.0  0.17566  0.76672  0.99693  1.0000
  C   C295      1.0  0.16705  0.75695  0.98769  1.0000
  H   H299      1.0  0.17465  0.76335  0.01196  1.0000
  H   H300      1.0  0.15947  0.74604  0.99573  1.0000
  C   C296      1.0  0.13392  0.78005  0.10574  1.0000
  C   C297      1.0  0.14434  0.78730  0.11530  1.0000
  C   C298      1.0  0.13660  0.79141  0.13326  1.0000
  C   C299      1.0  0.11829  0.78861  0.14165  1.0000
  C   C300      1.0  0.10793  0.78111  0.13221  1.0000
  C   C301      1.0  0.11582  0.77669  0.11436  1.0000
  H   H301      1.0  0.15821  0.79011  0.10877  1.0000
  H   H302      1.0  0.14468  0.79721  0.14050  1.0000
  H   H303      1.0  0.09383  0.77884  0.13862  1.0000
  H   H304      1.0  0.10771  0.77097  0.10706  1.0000
  C   C302      1.0  0.00655  0.77499  0.16098  1.0000
  C   C303      1.0  0.99782  0.79325  0.16315  1.0000
  H   H305      1.0  0.05334  0.92560  0.23647  1.0000
  H   H306      1.0  0.02102  0.77023  0.16283  1.0000
  H   H307      1.0  0.13054  0.94584  0.18146  1.0000
  C   C304      1.0  0.07995  0.68542  0.23752  1.0000
  C   C305      1.0  0.08805  0.70011  0.22559  1.0000
  C   C306      1.0  0.07782  0.71851  0.22319  1.0000
  C   C307      1.0  0.05941  0.72235  0.23279  1.0000
  C   C308      1.0  0.05126  0.70762  0.24462  1.0000
  C   C309      1.0  0.06146  0.68923  0.24697  1.0000
  H   H308      1.0  0.10236  0.69727  0.21825  1.0000
  H   H309      1.0  0.08425  0.72973  0.21405  1.0000
  H   H310      1.0  0.03698  0.71048  0.25202  1.0000
  H   H311      1.0  0.05506  0.67799  0.25610  1.0000
  C   C310      1.0  0.21627  0.49126  0.14466  1.0000
  H   H312      1.0  0.15922  0.73473  0.10992  1.0000
  N   N26       1.0  0.10720  0.82972  0.21730  1.0000
  H   H313      1.0  0.09076  0.68696  0.27221  1.0000
  Fe  Fe57      1.0  0.20783  0.94106  0.11154  1.0000
  C   C311      1.0  0.18251  0.50684  0.11106  1.0000
  H   H314      1.0  0.20791  0.52954  0.10180  1.0000
  H   H315      1.0  0.20819  0.72611  0.06355  1.0000
  H   H316      1.0  0.20756  0.69237  0.06571  1.0000
  C   C312      1.0  0.06394  0.85562  0.22301  1.0000
  C   C313      1.0  0.06665  0.86403  0.23736  1.0000
  C   C314      1.0  0.07303  0.88136  0.23330  1.0000
  C   C315      1.0  0.07655  0.89062  0.21478  1.0000
  C   C316      1.0  0.07347  0.88239  0.20047  1.0000
  C   C317      1.0  0.06736  0.86494  0.20452  1.0000
  H   H317      1.0  0.06396  0.85699  0.25174  1.0000
  H   H318      1.0  0.07531  0.88747  0.24447  1.0000
  H   H319      1.0  0.07608  0.88943  0.18610  1.0000
  H   H320      1.0  0.06528  0.85871  0.19333  1.0000
  H   H321      1.0  0.14018  0.95616  0.12071  1.0000
  C   C318      1.0  0.20407  0.86919  0.08101  1.0000
  C   C319      1.0  0.21101  0.85394  0.07144  1.0000
  H   H322      1.0  0.18077  0.95143  0.22688  1.0000
  H   H323      1.0  0.18982  0.87078  0.08865  1.0000
  C   C320      1.0  0.21002  0.51891  0.11401  1.0000
  C   C321      1.0  0.99935  0.73147  0.19902  1.0000
  S   S117      1.0  0.10497  0.47923  0.21856  1.0000
  H   H324      1.0  0.21751  0.75684  0.01104  1.0000
  H   H325      1.0  0.14822  0.92845  0.15627  1.0000
  C   C322      1.0  0.15277  0.94079  0.15814  1.0000
  C   C323      1.0  0.06492  0.52339  0.24635  1.0000
  C   C324      1.0  0.05296  0.53973  0.25125  1.0000
  C   C325      1.0  0.06019  0.55400  0.25592  1.0000
  C   C326      1.0  0.07949  0.55208  0.25557  1.0000
  C   C327      1.0  0.09139  0.53571  0.25072  1.0000
  C   C328      1.0  0.08416  0.52139  0.24630  1.0000
  H   H326      1.0  0.03803  0.54140  0.25137  1.0000
  H   H327      1.0  0.05085  0.56652  0.25964  1.0000
  H   H328      1.0  0.10637  0.53413  0.25019  1.0000
  H   H329      1.0  0.09354  0.50892  0.24259  1.0000
  H   H330      1.0  0.11287  0.83314  0.17039  1.0000
  H   H331      1.0  0.11040  0.85068  0.23162  1.0000
  C   C329      1.0  0.11130  0.84665  0.21819  1.0000
  H   H332      1.0  0.00347  0.74879  0.15468  1.0000
  H   H333      1.0  0.00786  0.61000  0.29373  1.0000
  H   H334      1.0  0.20634  0.96809  0.19717  1.0000
  C   C330      1.0  0.14583  0.93996  0.28369  1.0000
  H   H335      1.0  0.03726  0.94422  0.26145  1.0000
  C   C331      1.0  0.21982  0.69795  0.11552  1.0000
  H   H336      1.0  0.19137  0.48272  0.14124  1.0000
  C   C332      1.0  0.03479  0.94906  0.24720  1.0000
  C   C333      1.0  0.98238  0.66774  0.26841  1.0000
  C   C334      1.0  0.21691  0.72796  0.01066  1.0000
  Fe  Fe58      1.0  0.07896  0.96754  0.24212  1.0000
  C   C335      1.0  0.08317  0.69722  0.28145  1.0000
  H   H337      1.0  0.11835  0.87307  0.20265  1.0000
  Fe  Fe59      1.0  0.11554  0.96396  0.21397  1.0000
  H   H338      1.0  0.09391  0.80680  0.23260  1.0000
  N   N27       1.0  0.18810  0.94898  0.19810  1.0000
  H   H339      1.0  0.10528  0.81121  0.19954  1.0000
  S   S118      1.0  0.21932  0.79425  0.04080  1.0000
  C   C336      1.0  0.20482  0.73035  0.11007  1.0000
  S   S119      1.0  0.22241  0.96446  0.11191  1.0000
  H   H340      1.0  0.02585  0.73344  0.20578  1.0000
  Fe  Fe60      1.0  0.22501  0.48447  0.07435  1.0000
  C   C337      1.0  0.02276  0.96597  0.24265  1.0000
  H   H341      1.0  0.21881  0.48003  0.15631  1.0000
  H   H342      1.0  0.11656  0.50883  0.17773  1.0000
  C   C338      1.0  0.04112  0.94549  0.21481  1.0000
  C   C339      1.0  0.22034  0.71577  0.06650  1.0000
  C   C340      1.0  0.20357  0.69270  0.11305  1.0000
  H   H343      1.0  0.11948  0.86448  0.17176  1.0000
  S   S120      1.0  0.21382  0.94380  0.08031  1.0000
  C   C341      1.0  0.11640  0.85456  0.18451  1.0000
  H   H344      1.0  0.18626  0.96790  0.13931  1.0000
  C   C342      1.0  0.22582  0.51759  0.12209  1.0000
  C   C343      1.0  0.17421  0.96301  0.14855  1.0000
  H   H345      1.0  0.13255  0.48047  0.12837  1.0000
  H   H346      1.0  0.20390  0.73118  0.00512  1.0000
  C   C344      1.0  0.18507  0.93470  0.19064  1.0000
  C   C345      1.0  0.18647  0.78518  0.96717  1.0000
  H   H347      1.0  0.20323  0.67805  0.11343  1.0000
  N   N28       1.0  0.07241  0.52909  0.19441  1.0000
  C   C346      1.0  0.08658  0.51745  0.18522  1.0000
  C   C347      1.0  0.07645  0.54226  0.20271  1.0000
  C   C348      1.0  0.10540  0.51845  0.18465  1.0000
  C   C349      1.0  0.09510  0.54358  0.20251  1.0000
  C   C350      1.0  0.10965  0.53148  0.19353  1.0000
  C   C351      1.0  0.05282  0.52777  0.19477  1.0000
  H   H348      1.0  0.08342  0.50707  0.17854  1.0000
  H   H349      1.0  0.06525  0.55143  0.21011  1.0000
  S   S121      1.0  0.22788  0.48722  0.28069  1.0000
  H   H350      1.0  0.09819  0.55360  0.20972  1.0000
  H   H351      1.0  0.12417  0.53209  0.19362  1.0000
  H   H352      1.0  0.04321  0.53413  0.20637  1.0000
  H   H353      1.0  0.04847  0.53488  0.18126  1.0000
  H   H354      1.0  0.05108  0.51284  0.19751  1.0000
  N   N29       1.0  0.11787  0.82556  0.08920  1.0000
  C   C352      1.0  0.11759  0.82898  0.10669  1.0000
  C   C353      1.0  0.13200  0.83006  0.07480  1.0000
  C   C354      1.0  0.13208  0.83653  0.11021  1.0000
  C   C355      1.0  0.14649  0.83798  0.07776  1.0000
  C   C356      1.0  0.14665  0.84098  0.09563  1.0000
  C   C357      1.0  0.10279  0.81746  0.08557  1.0000
  H   H355      1.0  0.10648  0.82529  0.11819  1.0000
  H   H356      1.0  0.13226  0.82728  0.06095  1.0000
  H   H357      1.0  0.13218  0.83856  0.12423  1.0000
  H   H358      1.0  0.15774  0.84151  0.06635  1.0000
  H   H359      1.0  0.15821  0.84658  0.09809  1.0000
  H   H360      1.0  0.10890  0.80558  0.07789  1.0000
  H   H361      1.0  0.09396  0.81175  0.09876  1.0000
  H   H362      1.0  0.09367  0.82824  0.07709  1.0000
  C   C358      1.0  0.10816  0.82473  0.20035  1.0000
  C   C359      1.0  0.14277  0.95061  0.17240  1.0000
  H   H363      1.0  0.17569  0.70238  0.10688  1.0000
  H   H364      1.0  0.17251  0.92852  0.19602  1.0000
  H   H365      1.0  0.17867  0.52079  0.10243  1.0000
  C   C360      1.0  0.22614  0.70941  0.01462  1.0000
  H   H366      1.0  0.11544  0.80856  0.23958  1.0000
  H   H367      1.0  0.20579  0.74506  0.10814  1.0000
  C   C361      1.0  0.14750  0.95856  0.27592  1.0000
  C   C362      1.0  0.20069  0.49291  0.13612  1.0000
  C   C363      1.0  0.15824  0.96803  0.28319  1.0000
  S   S122      1.0  0.21716  0.51607  0.06703  1.0000
  C   C364      1.0  0.12230  0.47278  0.29029  1.0000
  C   C365      1.0  0.17464  0.95572  0.21386  1.0000
  C   C366      1.0  0.22001  0.69664  0.06775  1.0000
  C   C367      1.0  0.04393  0.93874  0.23318  1.0000
  C   C368      1.0  0.21377  0.93647  0.16818  1.0000
  C   C369      1.0  0.22454  0.74240  0.01397  1.0000
  C   C370      1.0  0.16843  0.94702  0.14613  1.0000
  C   C371      1.0  0.01155  0.74040  0.20460  1.0000
  C   C372      1.0  0.10245  0.81666  0.23465  1.0000
  H   H368      1.0  0.10253  0.52384  0.28982  1.0000
  S   S123      1.0  0.06959  0.64335  0.29090  1.0000
  N   N30       1.0  0.18883  0.72506  0.10797  1.0000
  H   H369      1.0  0.17341  0.74221  0.08769  1.0000
  C   C373      1.0  0.18812  0.70653  0.10921  1.0000
  H   H370      1.0  0.21555  0.55607  0.06190  1.0000
  C   C374      1.0  0.19782  0.92828  0.17554  1.0000
  H   H371      1.0  0.98248  0.78162  0.20972  1.0000
  C   C375      1.0  0.11590  0.85934  0.20183  1.0000
  H   H372      1.0  0.17266  0.75267  0.10773  1.0000
  C   C376      1.0  0.22047  0.71689  0.11406  1.0000
  H   H373      1.0  0.22010  0.69823  0.01208  1.0000
  H   H374      1.0  0.12665  0.51350  0.29043  1.0000
  H   H375      1.0  0.12093  0.53627  0.27641  1.0000
  H   H376      1.0  0.16130  0.95017  0.21637  1.0000
  H   H377      1.0  0.04843  0.93760  0.20382  1.0000
  C   C377      1.0  0.11661  0.52698  0.28978  1.0000
  C   C378      1.0  0.98101  0.74079  0.19759  1.0000
  C   C379      1.0  0.98699  0.76742  0.20692  1.0000
  S   S124      1.0  0.11095  0.47441  0.16559  1.0000
  H   H378      1.0  0.16344  0.96392  0.09295  1.0000
  C   C380      1.0  0.09086  0.96858  0.29181  1.0000
  C   C381      1.0  0.02905  0.96251  0.21073  1.0000
  H   H379      1.0  0.02694  0.96769  0.19641  1.0000
  H   H380      1.0  0.22363  0.93183  0.15630  1.0000
  H   H381      1.0  0.07418  0.70851  0.27324  1.0000
  C   C382      1.0  0.22927  0.54933  0.06506  1.0000
  H   H382      1.0  0.08143  0.96545  0.28391  1.0000
  H   H383      1.0  0.22939  0.95712  0.17040  1.0000
  C   C383      1.0  0.22897  0.50363  0.13750  1.0000
  C   C384      1.0  0.14176  0.47150  0.13741  1.0000
  H   H384      1.0  0.09360  0.70380  0.28543  1.0000
  H   H385      1.0  0.04665  0.69517  0.28680  1.0000
  C   C385      1.0  0.22952  0.85215  0.06162  1.0000
  S   S125      1.0  0.21579  0.48050  0.33938  1.0000
  Fe  Fe61      1.0  0.18731  0.49931  0.34382  1.0000
  S   S126      1.0  0.17397  0.52613  0.35549  1.0000
  S   S127      1.0  0.18370  0.50223  0.31406  1.0000
  H   H386      1.0  0.14029  0.51852  0.31444  1.0000
  H   H387      1.0  0.16268  0.56008  0.30719  1.0000
  Fe  Fe62      1.0  0.21127  0.93565  0.36389  1.0000
  H   H388      1.0  0.20536  0.70495  0.49765  1.0000
  H   H389      1.0  0.07793  0.65867  0.33899  1.0000
  C   C386      1.0  0.21841  0.87068  0.39363  1.0000
  Fe  Fe63      1.0  0.01757  0.73237  0.58296  1.0000
  C   C387      1.0  0.12932  0.53050  0.31672  1.0000
  S   S128      1.0  0.04493  0.73889  0.56441  1.0000
  C   C388      1.0  0.13408  0.61791  0.60401  1.0000
  S   S129      1.0  0.10167  0.60753  0.32532  1.0000
  Fe  Fe64      1.0  0.17011  0.64101  0.41100  1.0000
  S   S130      1.0  0.17132  0.47525  0.35388  1.0000
  S   S131      1.0  0.15431  0.64250  0.44046  1.0000
  Fe  Fe65      1.0  0.16862  0.64782  0.36937  1.0000
  S   S132      1.0  0.19970  0.63752  0.36188  1.0000
  S   S133      1.0  0.15226  0.65757  0.34531  1.0000
  Fe  Fe66      1.0  0.19453  0.61412  0.38592  1.0000
  H   H390      1.0  0.20785  0.76905  0.51782  1.0000
  Fe  Fe67      1.0  0.20300  0.65389  0.38302  1.0000
  S   S134      1.0  0.16339  0.62359  0.39249  1.0000
  S   S135      1.0  0.17235  0.66637  0.38850  1.0000
  Fe  Fe68      1.0  0.18997  0.70118  0.54327  1.0000
  S   S136      1.0  0.20719  0.67281  0.54141  1.0000
  S   S137      1.0  0.20762  0.72432  0.53207  1.0000
  Fe  Fe69      1.0  0.15317  0.68478  0.55593  1.0000
  S   S138      1.0  0.16867  0.65539  0.55383  1.0000
  S   S139      1.0  0.12296  0.68341  0.57062  1.0000
  Fe  Fe70      1.0  0.18912  0.66264  0.56838  1.0000
  S   S140      1.0  0.20037  0.64653  0.59439  1.0000
  Fe  Fe71      1.0  0.18501  0.66854  0.52688  1.0000
  S   S141      1.0  0.19761  0.65854  0.49924  1.0000
  S   S142      1.0  0.17335  0.69147  0.57150  1.0000
  S   S143      1.0  0.16817  0.69741  0.52769  1.0000
  C   C389      1.0  0.19420  0.62457  0.60533  1.0000
  C   C390      1.0  0.99476  0.71718  0.52957  1.0000
  H   H391      1.0  0.09163  0.55624  0.29941  1.0000
  H   H392      1.0  0.02844  0.67687  0.31366  1.0000
  C   C391      1.0  0.18263  0.59639  0.60482  1.0000
  C   C392      1.0  0.18695  0.61405  0.59587  1.0000
  S   S144      1.0  0.20790  0.90897  0.38512  1.0000
  C   C393      1.0  0.16750  0.95907  0.29825  1.0000
  H   H393      1.0  0.98243  0.66077  0.31493  1.0000
  C   C394      1.0  0.18463  0.65575  0.48286  1.0000
  C   C395      1.0  0.19392  0.65471  0.46444  1.0000
  C   C396      1.0  0.18448  0.65154  0.45113  1.0000
  C   C397      1.0  0.16577  0.64889  0.45623  1.0000
  C   C398      1.0  0.15638  0.65020  0.47458  1.0000
  C   C399      1.0  0.16572  0.65380  0.48783  1.0000
  H   H394      1.0  0.20856  0.65619  0.46048  1.0000
  H   H395      1.0  0.19185  0.65071  0.43704  1.0000
  H   H396      1.0  0.14188  0.64824  0.47864  1.0000
  H   H397      1.0  0.15843  0.65458  0.50198  1.0000
  H   H398      1.0  0.09044  0.57305  0.32520  1.0000
  H   H399      1.0  0.18498  0.61935  0.58157  1.0000
  C   C400      1.0  0.11473  0.62222  0.33112  1.0000
  C   C401      1.0  0.12230  0.61659  0.34767  1.0000
  C   C402      1.0  0.13356  0.62744  0.35235  1.0000
  C   C403      1.0  0.13734  0.64405  0.34050  1.0000
  C   C404      1.0  0.12962  0.64978  0.32402  1.0000
  C   C405      1.0  0.11840  0.63888  0.31930  1.0000
  H   H400      1.0  0.11954  0.60370  0.35688  1.0000
  H   H401      1.0  0.13932  0.62290  0.36510  1.0000
  H   H402      1.0  0.13265  0.66252  0.31471  1.0000
  S   S145      1.0  0.18854  0.96132  0.36107  1.0000
  C   C406      1.0  0.18511  0.58932  0.62339  1.0000
  H   H403      1.0  0.11290  0.64315  0.30636  1.0000
  H   H404      1.0  0.15410  0.91653  0.30472  1.0000
  N   N31       1.0  0.20681  0.71125  0.45086  1.0000
  C   C407      1.0  0.99550  0.61916  0.29942  1.0000
  C   C408      1.0  0.06659  0.72344  0.56624  1.0000
  C   C409      1.0  0.08327  0.72830  0.55488  1.0000
  C   C410      1.0  0.10070  0.71626  0.55596  1.0000
  C   C411      1.0  0.10156  0.69922  0.56842  1.0000
  C   C412      1.0  0.08485  0.69435  0.57967  1.0000
  C   C413      1.0  0.06746  0.70637  0.57861  1.0000
  H   H405      1.0  0.08274  0.74150  0.54528  1.0000
  H   H406      1.0  0.11344  0.72019  0.54723  1.0000
  H   H407      1.0  0.08536  0.68119  0.58933  1.0000
  H   H408      1.0  0.05475  0.70242  0.58738  1.0000
  C   C414      1.0  0.19686  0.61743  0.62385  1.0000
  C   C415      1.0  0.07080  0.66708  0.32785  1.0000
  H   H409      1.0  0.17862  0.58744  0.41922  1.0000
  C   C416      1.0  0.21814  0.72454  0.44502  1.0000
  H   H410      1.0  0.22149  0.77922  0.48437  1.0000
  C   C417      1.0  0.98115  0.64774  0.31135  1.0000
  H   H411      1.0  0.04409  0.72521  0.53181  1.0000
  C   C418      1.0  0.20492  0.58907  0.43687  1.0000
  C   C419      1.0  0.13749  0.60978  0.62205  1.0000
  C   C420      1.0  0.21181  0.60219  0.46131  1.0000
  H   H412      1.0  0.03899  0.69327  0.53231  1.0000
  H   H413      1.0  0.12901  0.61017  0.59581  1.0000
  C   C421      1.0  0.18403  0.54162  0.36405  1.0000
  C   C422      1.0  0.19899  0.56800  0.37658  1.0000
  C   C423      1.0  0.17988  0.57114  0.37554  1.0000
  C   C424      1.0  0.17244  0.55794  0.36941  1.0000
  H   H414      1.0  0.17077  0.58360  0.37963  1.0000
  H   H415      1.0  0.15762  0.56048  0.36869  1.0000
  N   N32       1.0  0.07205  0.68763  0.29805  1.0000
  H   H416      1.0  0.19386  0.73290  0.38347  1.0000
  H   H417      1.0  0.16721  0.57642  0.44156  1.0000
  H   H418      1.0  0.16489  0.60561  0.46396  1.0000
  H   H419      1.0  0.00126  0.78606  0.61910  1.0000
  H   H420      1.0  0.22638  0.74548  0.34903  1.0000
  N   N33       1.0  0.11592  0.53635  0.30551  1.0000
  H   H421      1.0  0.13466  0.64267  0.58269  1.0000
  C   C425      1.0  0.21984  0.88680  0.37987  1.0000
  C   C426      1.0  0.16746  0.57043  0.31258  1.0000
  C   C427      1.0  0.14418  0.64581  0.60716  1.0000
  H   H422      1.0  0.21187  0.69482  0.42951  1.0000
  C   C428      1.0  0.18375  0.56555  0.32043  1.0000
  N   N34       1.0  0.17940  0.59666  0.32716  1.0000
  H   H423      1.0  0.22178  0.60603  0.46806  1.0000
  H   H424      1.0  0.14693  0.65989  0.60135  1.0000
  C   C429      1.0  0.18949  0.57887  0.32782  1.0000
  S   S146      1.0  0.01406  0.72229  0.61391  1.0000
  H   H425      1.0  0.00713  0.68800  0.53091  1.0000
  C   C430      1.0  0.21898  0.77740  0.51418  1.0000
  C   C431      1.0  0.21920  0.72566  0.56484  1.0000
  H   H426      1.0  0.98630  0.74672  0.52938  1.0000
  C   C432      1.0  0.22160  0.72897  0.39013  1.0000
  C   C433      1.0  0.05181  0.66703  0.32840  1.0000
  H   H427      1.0  0.13510  0.59556  0.62767  1.0000
  H   H428      1.0  0.19772  0.47252  0.62710  1.0000
  S   S147      1.0  0.99204  0.75521  0.58506  1.0000
  H   H429      1.0  0.19156  0.55132  0.32140  1.0000
  C   C434      1.0  0.21055  0.55160  0.37140  1.0000
  C   C435      1.0  0.16362  0.60165  0.31915  1.0000
  H   H430      1.0  0.19631  0.69987  0.37988  1.0000
  H   H431      1.0  0.13962  0.53509  0.34028  1.0000
  H   H432      1.0  0.16023  0.60117  0.43307  1.0000
  H   H433      1.0  0.19341  0.69360  0.47418  1.0000
  C   C436      1.0  0.10214  0.55147  0.30841  1.0000
  H   H434      1.0  0.21223  0.52603  0.36090  1.0000
  C   C437      1.0  0.20651  0.72294  0.38577  1.0000
  H   H435      1.0  0.01110  0.76738  0.52027  1.0000
  H   H436      1.0  0.22919  0.84119  0.40182  1.0000
  S   S148      1.0  0.20892  0.58410  0.38440  1.0000
  H   H437      1.0  0.22808  0.72781  0.59008  1.0000
  H   H438      1.0  0.14444  0.59261  0.30603  1.0000
  H   H439      1.0  0.20989  0.58250  0.42454  1.0000
  H   H440      1.0  0.17302  0.93332  0.31750  1.0000
  Fe  Fe72      1.0  0.16949  0.47732  0.32370  1.0000
  Fe  Fe73      1.0  0.98749  0.74369  0.61596  1.0000
  C   C438      1.0  0.02743  0.70497  0.53120  1.0000
  C   C439      1.0  0.22427  0.69135  0.38625  1.0000
  C   C440      1.0  0.03022  0.72312  0.53093  1.0000
  H   H441      1.0  0.19971  0.60646  0.33777  1.0000
  H   H442      1.0  0.11471  0.56288  0.34551  1.0000
  C   C441      1.0  0.22292  0.72901  0.54529  1.0000
  C   C442      1.0  0.21807  0.59344  0.44565  1.0000
  S   S149      1.0  0.20084  0.62935  0.40641  1.0000
  H   H443      1.0  0.18755  0.61331  0.48013  1.0000
  H   H444      1.0  0.09561  0.67716  0.31195  1.0000
  C   C443      1.0  0.20781  0.70421  0.38385  1.0000
  C   C444      1.0  0.20899  0.71060  0.48287  1.0000
  C   C445      1.0  0.99731  0.63603  0.30390  1.0000
  H   H445      1.0  0.19453  0.71589  0.42645  1.0000
  C   C446      1.0  0.17237  0.58941  0.43384  1.0000
  C   C447      1.0  0.10142  0.56109  0.32292  1.0000
  C   C448      1.0  0.13736  0.63609  0.59661  1.0000
  C   C449      1.0  0.99802  0.73511  0.52952  1.0000
  H   H446      1.0  0.22573  0.72927  0.48735  1.0000
  Fe  Fe74      1.0  0.08640  0.61558  0.30046  1.0000
  C   C450      1.0  0.01847  0.75677  0.53046  1.0000
  C   C451      1.0  0.08076  0.67752  0.31246  1.0000
  C   C452      1.0  0.22512  0.73124  0.45802  1.0000
  C   C453      1.0  0.11192  0.95869  0.31421  1.0000
  C   C454      1.0  0.09962  0.95444  0.30435  1.0000
  H   H447      1.0  0.22535  0.54903  0.37222  1.0000
  Fe  Fe75      1.0  0.19840  0.96253  0.32999  1.0000
  C   C455      1.0  0.11505  0.55532  0.33436  1.0000
  H   H448      1.0  0.01304  0.76008  0.54475  1.0000
  H   H449      1.0  0.17597  0.61019  0.35039  1.0000
  H   H450      1.0  0.20178  0.57473  0.33454  1.0000
  C   C456      1.0  0.19260  0.60623  0.46813  1.0000
  S   S150      1.0  0.06356  0.59968  0.30054  1.0000
  C   C457      1.0  0.20013  0.70411  0.43690  1.0000
  H   H451      1.0  0.15571  0.61575  0.31853  1.0000
  H   H452      1.0  0.11899  0.94749  0.32360  1.0000
  C   C458      1.0  0.17985  0.60185  0.45892  1.0000
  C   C459      1.0  0.20316  0.53852  0.36501  1.0000
  N   N35       1.0  0.18607  0.59368  0.44331  1.0000
  H   H453      1.0  0.17724  0.58822  0.59733  1.0000
  S   S151      1.0  0.21978  0.75291  0.39110  1.0000
  C   C460      1.0  0.12906  0.53985  0.33134  1.0000
  S   S152      1.0  0.00182  0.71185  0.57746  1.0000
  C   C461      1.0  0.15729  0.58862  0.31189  1.0000
  Fe  Fe76      1.0  0.99621  0.70347  0.60881  1.0000
  H   H454      1.0  0.22007  0.68482  0.57518  1.0000
  C   C462      1.0  0.14746  0.63725  0.62513  1.0000
  H   H455      1.0  0.20687  0.71983  0.57218  1.0000
  H   H456      1.0  0.03363  0.75792  0.52704  1.0000
  H   H457      1.0  0.04404  0.65855  0.33996  1.0000
  C   C463      1.0  0.18466  0.61009  0.33623  1.0000
  C   C464      1.0  0.15528  0.93091  0.29859  1.0000
  C   C465      1.0  0.16607  0.94038  0.30585  1.0000
  H   H458      1.0  0.98075  0.71505  0.52929  1.0000
  C   C466      1.0  0.20228  0.70421  0.46950  1.0000
  N   N36       1.0  0.01562  0.73791  0.53000  1.0000
  S   S153      1.0  0.22769  0.66859  0.38094  1.0000
  C   C467      1.0  0.04301  0.67742  0.31367  1.0000
  H   H459      1.0  0.20889  0.87175  0.40676  1.0000
  H   H460      1.0  0.18864  0.69596  0.44337  1.0000
  H   H461      1.0  0.18229  0.62452  0.32805  1.0000
  C   C468      1.0  0.00957  0.70202  0.53047  1.0000
  C   C469      1.0  0.05342  0.68767  0.29848  1.0000
  C   C470      1.0  0.22662  0.78305  0.49547  1.0000
  C   C471      1.0  0.22046  0.72422  0.47707  1.0000
  S   S154      1.0  0.00175  0.67272  0.62129  1.0000
  H   H462      1.0  0.22051  0.77741  0.54286  1.0000
  Fe  Fe77      1.0  0.21076  0.48181  0.31010  1.0000
  H   H463      1.0  0.11022  0.48144  0.29713  1.0000
  H   H464      1.0  0.09740  0.94013  0.30598  1.0000
  H   H465      1.0  0.01087  0.81319  0.62711  1.0000
  H   H466      1.0  0.22181  0.73009  0.43024  1.0000
  S   S155      1.0  0.14113  0.47946  0.31560  1.0000
  S   S156      1.0  0.01909  0.64390  0.29913  1.0000
  S   S157      1.0  0.21946  0.93578  0.33298  1.0000
  H   H467      1.0  0.13735  0.96818  0.32811  1.0000
  C   C472      1.0  0.22612  0.78205  0.52825  1.0000
  C   C473      1.0  0.22984  0.85333  0.39085  1.0000
  C   C474      1.0  0.13965  0.46982  0.29627  1.0000
  Fe  Fe78      1.0  0.00748  0.58331  0.72461  1.0000
  C   C475      1.0  0.18953  0.49610  0.74807  1.0000
  S   S158      1.0  0.03440  0.56516  0.71290  1.0000
  S   S159      1.0  0.00287  0.61248  0.73084  1.0000
  H   H468      1.0  0.15655  0.89711  0.81279  1.0000
  S   S160      1.0  0.00784  0.68392  0.86353  1.0000
  H   H469      1.0  0.02877  0.61702  0.76639  1.0000
  S   S161      1.0  0.01562  0.71769  0.82864  1.0000
  H   H470      1.0  0.06085  0.80523  0.75083  1.0000
  Fe  Fe79      1.0  0.99791  0.69498  0.83589  1.0000
  C   C476      1.0  0.98910  0.79983  0.78049  1.0000
  Fe  Fe80      1.0  0.02357  0.70821  0.85720  1.0000
  S   S162      1.0  0.05444  0.70299  0.86070  1.0000
  S   S163      1.0  0.99960  0.72762  0.87111  1.0000
  S   S164      1.0  0.99720  0.86816  0.69112  1.0000
  Fe  Fe81      1.0  0.00546  0.82553  0.73049  1.0000
  S   S165      1.0  0.02666  0.83105  0.70428  1.0000
  H   H471      1.0  0.99239  0.67416  0.77556  1.0000
  Fe  Fe82      1.0  0.01996  0.86080  0.70892  1.0000
  S   S166      1.0  0.04264  0.87883  0.70455  1.0000
  Fe  Fe83      1.0  0.00217  0.83739  0.68917  1.0000
  S   S167      1.0  0.00456  0.82830  0.66101  1.0000
  Fe  Fe84      1.0  0.18556  0.54690  0.70433  1.0000
  S   S168      1.0  0.19196  0.53173  0.67983  1.0000
  S   S169      1.0  0.20577  0.54007  0.72537  1.0000
  Fe  Fe85      1.0  0.14383  0.56003  0.69964  1.0000
  S   S170      1.0  0.14732  0.54504  0.67549  1.0000
  S   S171      1.0  0.11701  0.57908  0.71051  1.0000
  Fe  Fe86      1.0  0.16484  0.52119  0.69169  1.0000
  S   S172      1.0  0.16584  0.48965  0.69728  1.0000
  Fe  Fe87      1.0  0.17411  0.55688  0.66547  1.0000
  C   C477      1.0  0.17927  0.48687  0.74021  1.0000
  S   S173      1.0  0.15903  0.53522  0.71689  1.0000
  S   S174      1.0  0.16988  0.57317  0.68889  1.0000
  Fe  Fe88      1.0  0.14574  0.91259  0.77098  1.0000
  S   S175      1.0  0.17523  0.89706  0.76582  1.0000
  S   S176      1.0  0.13786  0.93990  0.78232  1.0000
  Fe  Fe89      1.0  0.12921  0.88420  0.75685  1.0000
  S   S177      1.0  0.15794  0.86676  0.75021  1.0000
  S   S178      1.0  0.10261  0.87237  0.75746  1.0000
  Fe  Fe90      1.0  0.16260  0.87110  0.77779  1.0000
  S   S179      1.0  0.17879  0.84716  0.79557  1.0000
  Fe  Fe91      1.0  0.16847  0.89397  0.73876  1.0000
  S   S180      1.0  0.18940  0.89892  0.71175  1.0000
  S   S181      1.0  0.13350  0.88684  0.78542  1.0000
  S   S182      1.0  0.13934  0.91132  0.74294  1.0000
  Fe  Fe92      1.0  0.12783  0.74763  0.90077  1.0000
  S   S183      1.0  0.14804  0.75667  0.87480  1.0000
  S   S184      1.0  0.09725  0.74476  0.90151  1.0000
  Fe  Fe93      1.0  0.15367  0.75407  0.92663  1.0000
  S   S185      1.0  0.17509  0.76416  0.90233  1.0000
  C   C478      1.0  0.21496  0.49608  0.76470  1.0000
  Fe  Fe94      1.0  0.15019  0.77989  0.88898  1.0000
  S   S186      1.0  0.14273  0.81052  0.87632  1.0000
  Fe  Fe95      1.0  0.17113  0.74004  0.89040  1.0000
  S   S187      1.0  0.19496  0.71812  0.87938  1.0000
  S   S188      1.0  0.12909  0.77167  0.91439  1.0000
  S   S189      1.0  0.15068  0.72912  0.91533  1.0000
  C   C479      1.0  0.16743  0.83580  0.81689  1.0000
  C   C480      1.0  0.15005  0.84415  0.82584  1.0000
  C   C481      1.0  0.14249  0.83603  0.84397  1.0000
  C   C482      1.0  0.15199  0.81929  0.85305  1.0000
  C   C483      1.0  0.16893  0.81047  0.84377  1.0000
  C   C484      1.0  0.17674  0.81885  0.82581  1.0000
  H   H472      1.0  0.14282  0.85724  0.81911  1.0000
  H   H473      1.0  0.12938  0.84293  0.85112  1.0000
  H   H474      1.0  0.17635  0.79756  0.85069  1.0000
  H   H475      1.0  0.19023  0.81237  0.81894  1.0000
  C   C485      1.0  0.15414  0.95177  0.78740  1.0000
  H   H476      1.0  0.15015  0.48376  0.63773  1.0000
  S   S190      1.0  0.99659  0.68315  0.80997  1.0000
  H   H477      1.0  0.13326  0.61426  0.66145  1.0000
  H   H478      1.0  0.05652  0.80749  0.72762  1.0000
  S   S191      1.0  0.00011  0.85506  0.73598  1.0000
  C   C486      1.0  0.99551  0.68608  0.68876  1.0000
  H   H479      1.0  0.01123  0.91803  0.71634  1.0000
  H   H480      1.0  0.17832  0.77921  0.94296  1.0000
  H   H481      1.0  0.20258  0.62546  0.63120  1.0000
  C   C487      1.0  0.00310  0.80409  0.63794  1.0000
  C   C488      1.0  0.15635  0.48671  0.66400  1.0000
  H   H482      1.0  0.15332  0.50186  0.66121  1.0000
  H   H483      1.0  0.14344  0.89317  0.84677  1.0000
  H   H484      1.0  0.09356  0.85189  0.69066  1.0000
  C   C489      1.0  0.99431  0.71349  0.66351  1.0000
  C   C490      1.0  0.98731  0.77696  0.64705  1.0000
  C   C491      1.0  0.21331  0.89860  0.71222  1.0000
  H   H485      1.0  0.00135  0.90109  0.70897  1.0000
  H   H486      1.0  0.98646  0.52724  0.75300  1.0000
  C   C492      1.0  0.16676  0.95786  0.74028  1.0000
  H   H487      1.0  0.21532  0.49682  0.64595  1.0000
  H   H488      1.0  0.21094  0.89115  0.74213  1.0000
  C   C493      1.0  0.05912  0.81539  0.73773  1.0000
  C   C494      1.0  0.18357  0.86324  0.83653  1.0000
  H   H489      1.0  0.19339  0.83763  0.85444  1.0000
  H   H490      1.0  0.15235  0.95646  0.74059  1.0000
  C   C495      1.0  0.17299  0.94355  0.78744  1.0000
  H   H491      1.0  0.17871  0.93120  0.73171  1.0000
  H   H492      1.0  0.00727  0.89692  0.73202  1.0000
  H   H493      1.0  0.19171  0.71056  0.91876  1.0000
  C   C496      1.0  0.03326  0.70854  0.92558  1.0000
  H   H494      1.0  0.22051  0.90571  0.68222  1.0000
  C   C497      1.0  0.15453  0.88110  0.84850  1.0000
  C   C498      1.0  0.04299  0.68491  0.90664  1.0000
  C   C499      1.0  0.99768  0.78868  0.63333  1.0000
  C   C500      1.0  0.21874  0.71752  0.88076  1.0000
  C   C501      1.0  0.05833  0.87821  0.72000  1.0000
  C   C502      1.0  0.05628  0.86791  0.73816  1.0000
  C   C503      1.0  0.06958  0.86695  0.74961  1.0000
  C   C504      1.0  0.08517  0.87618  0.74309  1.0000
  C   C505      1.0  0.08695  0.88690  0.72509  1.0000
  C   C506      1.0  0.07357  0.88794  0.71366  1.0000
  H   H495      1.0  0.04453  0.86056  0.74337  1.0000
  H   H496      1.0  0.06798  0.85872  0.76354  1.0000
  H   H497      1.0  0.09881  0.89410  0.71985  1.0000
  H   H498      1.0  0.07525  0.89605  0.69967  1.0000
  C   C507      1.0  0.06630  0.71609  0.87052  1.0000
  C   C508      1.0  0.08589  0.71093  0.86968  1.0000
  C   C509      1.0  0.09571  0.71982  0.87866  1.0000
  C   C510      1.0  0.08597  0.73386  0.88882  1.0000
  C   C511      1.0  0.06644  0.73928  0.88937  1.0000
  C   C512      1.0  0.05666  0.73053  0.88022  1.0000
  H   H499      1.0  0.09348  0.69974  0.86226  1.0000
  H   H500      1.0  0.11071  0.71547  0.87810  1.0000
  H   H501      1.0  0.05876  0.75017  0.89712  1.0000
  H   H502      1.0  0.04161  0.73465  0.88103  1.0000
  N   N37       1.0  0.07558  0.82447  0.73003  1.0000
  H   H503      1.0  0.18581  0.51119  0.74703  1.0000
  C   C513      1.0  0.01807  0.65784  0.68500  1.0000
  C   C514      1.0  0.98078  0.79194  0.79851  1.0000
  C   C515      1.0  0.07743  0.83416  0.71208  1.0000
  Fe  Fe96      1.0  0.98640  0.60125  0.75853  1.0000
  C   C516      1.0  0.03922  0.60912  0.77528  1.0000
  C   C517      1.0  0.99856  0.80784  0.65634  1.0000
  C   C518      1.0  0.05728  0.57006  0.71076  1.0000
  C   C519      1.0  0.06026  0.58686  0.71442  1.0000
  C   C520      1.0  0.07871  0.58970  0.71364  1.0000
  C   C521      1.0  0.09428  0.57576  0.70930  1.0000
  C   C522      1.0  0.09129  0.55916  0.70523  1.0000
  C   C523      1.0  0.07287  0.55636  0.70592  1.0000
  H   H504      1.0  0.04838  0.59754  0.71810  1.0000
  H   H505      1.0  0.08092  0.60260  0.71677  1.0000
  H   H506      1.0  0.10315  0.54834  0.70185  1.0000
  H   H507      1.0  0.07070  0.54336  0.70297  1.0000
  Fe  Fe97      1.0  0.98313  0.70413  0.87595  1.0000
  H   H508      1.0  0.99686  0.76652  0.74741  1.0000
  C   C524      1.0  0.99477  0.66153  0.80408  1.0000
  Fe  Fe98      1.0  0.99058  0.73542  0.84288  1.0000
  C   C525      1.0  0.09254  0.84367  0.70465  1.0000
  C   C526      1.0  0.00579  0.73986  0.76411  1.0000
  N   N38       1.0  0.04893  0.59195  0.76820  1.0000
  C   C527      1.0  0.06815  0.58828  0.76390  1.0000
  C   C528      1.0  0.03852  0.57960  0.76597  1.0000
  C   C529      1.0  0.07741  0.57188  0.75715  1.0000
  C   C530      1.0  0.04730  0.56315  0.75910  1.0000
  C   C531      1.0  0.06688  0.55929  0.75471  1.0000
  H   H509      1.0  0.18194  0.71600  0.94180  1.0000
  C   C532      1.0  0.19991  0.94521  0.73589  1.0000
  H   H510      1.0  0.02329  0.58256  0.76933  1.0000
  C   C533      1.0  0.99901  0.53645  0.71654  1.0000
  H   H511      1.0  0.03896  0.55376  0.75668  1.0000
  H   H512      1.0  0.22805  0.60295  0.79264  1.0000
  C   C534      1.0  0.17763  0.77557  0.95795  1.0000
  C   C535      1.0  0.99597  0.64591  0.65242  1.0000
  S   S192      1.0  0.01715  0.79929  0.74913  1.0000
  N   N39       1.0  0.10682  0.78548  0.85700  1.0000
  C   C536      1.0  0.11698  0.79885  0.84699  1.0000
  C   C537      1.0  0.10966  0.76837  0.85169  1.0000
  C   C538      1.0  0.13034  0.79532  0.83113  1.0000
  C   C539      1.0  0.12294  0.76431  0.83596  1.0000
  C   C540      1.0  0.13338  0.77789  0.82567  1.0000
  C   C541      1.0  0.09377  0.78911  0.87420  1.0000
  H   H513      1.0  0.11502  0.81224  0.85147  1.0000
  H   H514      1.0  0.10188  0.75764  0.85980  1.0000
  H   H515      1.0  0.13853  0.80592  0.82337  1.0000
  H   H516      1.0  0.12532  0.75059  0.83203  1.0000
  H   H517      1.0  0.14397  0.77485  0.81363  1.0000
  H   H518      1.0  0.08681  0.80402  0.87291  1.0000
  H   H519      1.0  0.08256  0.78038  0.87758  1.0000
  H   H520      1.0  0.10159  0.78570  0.88608  1.0000
  H   H521      1.0  0.02356  0.64333  0.69012  1.0000
  H   H522      1.0  0.07286  0.67511  0.90009  1.0000
  H   H523      1.0  0.04900  0.61856  0.77545  1.0000
  C   C542      1.0  0.16214  0.47735  0.68077  1.0000
  S   S193      1.0  0.99296  0.57157  0.75297  1.0000
  C   C543      1.0  0.98849  0.79592  0.67014  1.0000
  C   C544      1.0  0.18152  0.94357  0.73555  1.0000
  C   C545      1.0  0.22266  0.55303  0.72738  1.0000
  H   H524      1.0  0.98174  0.81229  0.77286  1.0000
  H   H525      1.0  0.00123  0.71191  0.91321  1.0000
  H   H526      1.0  0.21145  0.93410  0.73227  1.0000
  C   C546      1.0  0.02520  0.66642  0.66705  1.0000
  C   C547      1.0  0.22875  0.70745  0.92837  1.0000
  H   H527      1.0  0.08652  0.81720  0.75552  1.0000
  C   C548      1.0  0.06180  0.68417  0.90777  1.0000
  H   H528      1.0  0.07646  0.59814  0.76539  1.0000
  H   H529      1.0  0.98484  0.79859  0.68435  1.0000
  H   H530      1.0  0.11334  0.83401  0.74305  1.0000
  C   C549      1.0  0.17061  0.89210  0.81694  1.0000
  S   S194      1.0  0.98128  0.83005  0.71504  1.0000
  C   C550      1.0  0.10366  0.83354  0.73406  1.0000
  S   S195      1.0  0.98156  0.58773  0.71159  1.0000
  H   H531      1.0  0.21519  0.86294  0.69154  1.0000
  C   C551      1.0  0.99538  0.64474  0.81694  1.0000
  C   C552      1.0  0.18554  0.95356  0.79131  1.0000
  C   C553      1.0  0.08837  0.82418  0.74105  1.0000
  C   C554      1.0  0.99002  0.77546  0.80831  1.0000
  C   C555      1.0  0.99211  0.62781  0.79295  1.0000
  H   H532      1.0  0.99286  0.62527  0.67770  1.0000
  H   H533      1.0  0.98745  0.55022  0.67318  1.0000
  C   C556      1.0  0.98435  0.51730  0.74460  1.0000
  H   H534      1.0  0.19430  0.59452  0.64718  1.0000
  C   C557      1.0  0.98977  0.66420  0.64361  1.0000
  H   H535      1.0  0.07385  0.54691  0.74876  1.0000
  H   H536      1.0  0.22023  0.57282  0.70192  1.0000
  C   C558      1.0  0.22504  0.73333  0.88291  1.0000
  N   N40       1.0  0.20401  0.48625  0.75688  1.0000
  H   H537      1.0  0.19703  0.69402  0.93931  1.0000
  C   C559      1.0  0.00127  0.72731  0.78052  1.0000
  H   H538      1.0  0.00806  0.69182  0.90212  1.0000
  C   C560      1.0  0.14659  0.61104  0.65159  1.0000
  C   C561      1.0  0.98771  0.63922  0.67084  1.0000
  C   C562      1.0  0.99289  0.66129  0.78564  1.0000
  S   S196      1.0  0.15705  0.74837  0.95728  1.0000
  H   H539      1.0  0.21756  0.96237  0.74129  1.0000
  H   H540      1.0  0.06687  0.83510  0.70360  1.0000
  N   N41       1.0  0.16948  0.87837  0.83433  1.0000
  C   C563      1.0  0.00016  0.54507  0.69777  1.0000
  H   H541      1.0  0.98999  0.64472  0.76590  1.0000
  H   H542      1.0  0.00749  0.63703  0.64513  1.0000
  H   H543      1.0  0.22874  0.49698  0.75539  1.0000
  H   H544      1.0  0.15792  0.61626  0.65567  1.0000
  S   S197      1.0  0.17888  0.56735  0.63415  1.0000
  C   C564      1.0  0.00787  0.76726  0.80024  1.0000
  H   H545      1.0  0.04644  0.82609  0.74088  1.0000
  H   H546      1.0  0.16771  0.49469  0.73337  1.0000
  C   C565      1.0  0.00313  0.66770  0.69595  1.0000
  N   N42       1.0  0.02903  0.69709  0.91537  1.0000
  H   H547      1.0  0.02994  0.76855  0.77614  1.0000
  H   H548      1.0  0.03153  0.60554  0.78979  1.0000
  H   H549      1.0  0.02219  0.71819  0.93249  1.0000
  C   C566      1.0  0.00679  0.79130  0.77231  1.0000
  C   C567      1.0  0.98696  0.54325  0.68762  1.0000
  H   H550      1.0  0.17791  0.92950  0.78449  1.0000
  H   H551      1.0  0.21529  0.74635  0.88373  1.0000
  H   H552      1.0  0.09262  0.56931  0.75309  1.0000
  C   C568      1.0  0.00934  0.69739  0.91449  1.0000
  C   C569      1.0  0.22026  0.89420  0.72902  1.0000
  H   H553      1.0  0.20008  0.94709  0.79139  1.0000
  H   H554      1.0  0.19708  0.49528  0.66647  1.0000
  H   H555      1.0  0.01907  0.73689  0.75481  1.0000
  N   N43       1.0  0.21108  0.71758  0.93230  1.0000
  H   H556      1.0  0.17613  0.90433  0.81874  1.0000
  C   C570      1.0  0.16725  0.85249  0.86744  1.0000
  H   H557      1.0  0.19527  0.86088  0.82519  1.0000
  H   H558      1.0  0.01087  0.71436  0.78402  1.0000
  H   H559      1.0  0.00262  0.68873  0.92722  1.0000
  H   H560      1.0  0.01525  0.75478  0.80774  1.0000
  H   H561      1.0  0.01103  0.55342  0.69130  1.0000
  H   H562      1.0  0.19473  0.74404  0.93705  1.0000
  C   C571      1.0  0.01727  0.68483  0.66032  1.0000
  H   H563      1.0  0.11705  0.85133  0.71047  1.0000
  H   H564      1.0  0.19105  0.49837  0.64392  1.0000
  H   H565      1.0  0.16598  0.84196  0.88004  1.0000
  C   C572      1.0  0.99325  0.75641  0.75989  1.0000
  C   C573      1.0  0.15314  0.86816  0.86522  1.0000
  C   C574      1.0  0.22576  0.90226  0.69529  1.0000
  C   C575      1.0  0.10571  0.84336  0.71575  1.0000
  C   C576      1.0  0.00140  0.90782  0.72098  1.0000
  H   H566      1.0  0.03626  0.65866  0.65808  1.0000
  C   C577      1.0  0.01623  0.77519  0.78236  1.0000
  H   H567      1.0  0.98447  0.72076  0.67432  1.0000
  N   N44       1.0  0.98516  0.52622  0.72492  1.0000
  H   H568      1.0  0.17994  0.88582  0.80518  1.0000
  C   C578      1.0  0.19219  0.59992  0.63292  1.0000
  H   H569      1.0  0.02241  0.69112  0.64608  1.0000
  S   S198      1.0  0.99135  0.60615  0.78647  1.0000
  C   C579      1.0  0.20872  0.73584  0.93450  1.0000
  C   C580      1.0  0.06628  0.69597  0.91791  1.0000
  C   C581      1.0  0.98276  0.78071  0.66547  1.0000
  C   C582      1.0  0.18262  0.85004  0.85307  1.0000
  H   H570      1.0  0.99686  0.64463  0.83115  1.0000
  C   C583      1.0  0.05195  0.70822  0.92693  1.0000
  H   H571      1.0  0.03972  0.67613  0.89817  1.0000
  H   H572      1.0  0.05539  0.71775  0.93446  1.0000
  H   H573      1.0  0.08087  0.69609  0.91827  1.0000
  H   H574      1.0  0.15079  0.59556  0.65308  1.0000
  H   H575      1.0  0.14102  0.87001  0.87624  1.0000
  N   N45       1.0  0.98230  0.91691  0.72793  1.0000
  H   H576      1.0  0.20762  0.51053  0.76622  1.0000
  H   H577      1.0  0.22695  0.68852  0.87766  1.0000
  H   H578      1.0  0.98341  0.69332  0.69710  1.0000
  C   C584      1.0  0.19464  0.70912  0.93310  1.0000
  H   H579      1.0  0.99685  0.66083  0.70955  1.0000
  N   N46       1.0  0.14411  0.61945  0.63235  1.0000
  H   H580      1.0  0.98585  0.86685  0.65316  1.0000
  H   H581      1.0  0.15290  0.64488  0.63316  1.0000
  C   C585      1.0  0.20326  0.96121  0.74096  1.0000
  H   H582      1.0  0.99526  0.50453  0.74588  1.0000
  C   C586      1.0  0.98430  0.73160  0.79260  1.0000
  N   N47       1.0  0.00273  0.69445  0.67121  1.0000
  C   C587      1.0  0.99414  0.62800  0.81136  1.0000
  C   C588      1.0  0.99152  0.64459  0.78010  1.0000
  H   H583      1.0  0.00914  0.53821  0.72441  1.0000
  C   C589      1.0  0.15456  0.47644  0.65073  1.0000
  H   H584      1.0  0.98093  0.72178  0.80533  1.0000
  C   C590      1.0  0.20213  0.49135  0.65239  1.0000
  H   H585      1.0  0.00536  0.72220  0.65719  1.0000
  H   H586      1.0  0.99466  0.61511  0.82142  1.0000
  H   H587      1.0  0.22867  0.53549  0.75328  1.0000
  H   H588      1.0  0.21756  0.48843  0.77875  1.0000
  H   H589      1.0  0.98450  0.94226  0.70835  1.0000
  C   C591      1.0  0.22427  0.74429  0.93327  1.0000
  H   H590      1.0  0.22227  0.75883  0.93489  1.0000
  H   H591      1.0  0.19397  0.79615  0.95915  1.0000
  C   C592      1.0  0.22738  0.56828  0.71382  1.0000
  H   H592      1.0  0.98636  0.71307  0.65251  1.0000
  N   N48       1.0  0.20532  0.47096  0.65364  1.0000
  S   S199      1.0  0.46231  0.31856  0.19637  1.0000
  H   H593      1.0  0.26528  0.00065  0.00197  1.0000
  S   S200      1.0  0.25351  0.03729  0.98172  1.0000
  Fe  Fe99      1.0  0.46287  0.34924  0.18488  1.0000
  S   S201      1.0  0.43425  0.36639  0.17947  1.0000
  Fe  Fe100     1.0  0.45045  0.06656  0.22669  1.0000
  S   S202      1.0  0.42654  0.04904  0.23298  1.0000
  S   S203      1.0  0.44637  0.09699  0.21257  1.0000
  Fe  Fe101     1.0  0.45541  0.22044  0.06229  1.0000
  S   S204      1.0  0.44359  0.22101  0.03557  1.0000
  H   H594      1.0  0.30429  0.27102  0.99592  1.0000
  S   S205      1.0  0.45169  0.26904  0.10398  1.0000
  S   S206      1.0  0.44002  0.22342  0.09136  1.0000
  H   H595      1.0  0.30132  0.17367  0.96275  1.0000
  C   C593      1.0  0.46093  0.15775  0.13714  1.0000
  S   S207      1.0  0.33385  0.45730  0.20490  1.0000
  C   C594      1.0  0.25220  0.45502  0.24043  1.0000
  H   H596      1.0  0.36263  0.27574  0.98495  1.0000
  C   C595      1.0  0.26260  0.09219  0.00370  1.0000
  H   H597      1.0  0.43957  0.32463  0.23543  1.0000
  S   S208      1.0  0.39128  0.44857  0.19218  1.0000
  C   C596      1.0  0.46987  0.14424  0.07966  1.0000
  S   S209      1.0  0.34089  0.98784  0.19736  1.0000
  H   H598      1.0  0.31774  0.45174  0.11059  1.0000
  H   H599      1.0  0.31068  0.22399  0.01222  1.0000
  C   C597      1.0  0.27462  0.98020  0.27148  1.0000
  C   C598      1.0  0.26598  0.07411  0.99951  1.0000
  S   S210      1.0  0.39396  0.99323  0.19745  1.0000
  H   H600      1.0  0.45205  0.14588  0.10652  1.0000
  C   C599      1.0  0.28960  0.40724  0.08545  1.0000
  H   H601      1.0  0.38257  0.07172  0.22429  1.0000
  Fe  Fe102     1.0  0.36223  0.20547  0.97972  1.0000
  C   C600      1.0  0.30580  0.45632  0.12083  1.0000
  S   S211      1.0  0.37414  0.20221  0.00693  1.0000
  S   S212      1.0  0.23039  0.09338  0.97381  1.0000
  H   H602      1.0  0.25899  0.37723  0.09104  1.0000
  H   H603      1.0  0.30267  0.10666  0.98053  1.0000
  C   C601      1.0  0.45401  0.15145  0.09164  1.0000
  S   S213      1.0  0.29561  0.23789  0.97542  1.0000
  Fe  Fe103     1.0  0.36926  0.97672  0.20586  1.0000
  S   S214      1.0  0.33427  0.19589  0.98350  1.0000
  S   S215      1.0  0.47382  0.24128  0.06235  1.0000
  H   H604      1.0  0.24931  0.09711  0.01216  1.0000
  H   H605      1.0  0.41799  0.33372  0.19996  1.0000
  H   H606      1.0  0.30682  0.23384  0.03338  1.0000
  C   C602      1.0  0.25343  0.00743  0.01092  1.0000
  H   H607      1.0  0.27687  0.44151  0.28555  1.0000
  C   C603      1.0  0.47505  0.26163  0.28322  1.0000
  H   H608      1.0  0.26120  0.26299  0.98368  1.0000
  C   C604      1.0  0.26562  0.29028  0.96851  1.0000
  H   H609      1.0  0.25932  0.13084  0.99555  1.0000
  C   C605      1.0  0.27122  0.27105  0.97452  1.0000
  C   C606      1.0  0.27218  0.46277  0.13122  1.0000
  C   C607      1.0  0.46750  0.29487  0.14008  1.0000
  N   N49       1.0  0.32249  0.24830  0.00938  1.0000
  C   C608      1.0  0.23205  0.00644  0.04085  1.0000
  H   H610      1.0  0.25838  0.39201  0.05779  1.0000
  H   H611      1.0  0.29791  0.41185  0.09348  1.0000
  H   H612      1.0  0.27744  0.41654  0.04290  1.0000
  C   C609      1.0  0.44095  0.16625  0.08450  1.0000
  Fe  Fe104     1.0  0.32508  0.22337  0.96566  1.0000
  C   C610      1.0  0.31854  0.26530  0.99820  1.0000
  H   H613      1.0  0.25310  0.40525  0.01152  1.0000
  H   H614      1.0  0.26873  0.12183  0.01700  1.0000
  H   H615      1.0  0.25414  0.98378  0.03374  1.0000
  H   H616      1.0  0.27134  0.16263  0.96474  1.0000
  C   C611      1.0  0.28749  0.45693  0.11784  1.0000
  C   C612      1.0  0.28952  0.26216  0.96836  1.0000
  C   C613      1.0  0.47232  0.28076  0.27508  1.0000
  C   C614      1.0  0.33287  0.27545  0.98925  1.0000
  S   S216      1.0  0.25036  0.46643  0.06082  1.0000
  C   C615      1.0  0.29229  0.09757  0.98596  1.0000
  C   C616      1.0  0.28274  0.06790  0.98811  1.0000
  H   H617      1.0  0.44876  0.18025  0.02867  1.0000
  C   C617      1.0  0.23833  0.40437  0.01562  1.0000
  H   H618      1.0  0.40944  0.05956  0.16996  1.0000
  C   C618      1.0  0.27169  0.12253  0.00160  1.0000
  H   H619      1.0  0.40779  0.07561  0.19668  1.0000
  H   H620      1.0  0.42900  0.17244  0.09388  1.0000
  H   H621      1.0  0.25865  0.46307  0.21039  1.0000
  C   C619      1.0  0.35512  0.25103  0.00374  1.0000
  H   H622      1.0  0.28532  0.05401  0.98449  1.0000
  C   C620      1.0  0.30879  0.46146  0.13708  1.0000
  S   S217      1.0  0.44944  0.17879  0.12522  1.0000
  H   H623      1.0  0.46838  0.20964  0.16190  1.0000
  Fe  Fe105     1.0  0.46033  0.24186  0.09240  1.0000
  H   H624      1.0  0.29014  0.44400  0.05743  1.0000
  Fe  Fe106     1.0  0.45785  0.10294  0.23613  1.0000
  H   H625      1.0  0.30699  0.42834  0.04378  1.0000
  S   S218      1.0  0.45946  0.07339  0.25155  1.0000
  C   C621      1.0  0.45273  0.15092  0.27182  1.0000
  C   C622      1.0  0.25982  0.44815  0.25679  1.0000
  H   H626      1.0  0.46653  0.29121  0.28392  1.0000
  C   C623      1.0  0.28672  0.43680  0.27321  1.0000
  C   C624      1.0  0.26741  0.39589  0.06562  1.0000
  C   C625      1.0  0.46049  0.11730  0.28065  1.0000
  H   H627      1.0  0.25552  0.06506  0.00476  1.0000
  Fe  Fe107     1.0  0.25509  0.45424  0.09018  1.0000
  S   S219      1.0  0.30321  0.98865  0.24270  1.0000
  C   C626      1.0  0.30765  0.23722  0.01797  1.0000
  C   C627      1.0  0.45836  0.15338  0.28800  1.0000
  C   C628      1.0  0.42358  0.21666  0.02799  1.0000
  C   C629      1.0  0.40796  0.21091  0.04048  1.0000
  C   C630      1.0  0.39310  0.20659  0.03374  1.0000
  C   C631      1.0  0.39333  0.20826  0.01442  1.0000
  C   C632      1.0  0.40871  0.21447  0.00190  1.0000
  C   C633      1.0  0.42373  0.21850  0.00866  1.0000
  H   H628      1.0  0.40727  0.20978  0.05536  1.0000
  H   H629      1.0  0.38128  0.20193  0.04362  1.0000
  H   H630      1.0  0.40921  0.21588  0.98701  1.0000
  H   H631      1.0  0.43562  0.22299  0.99877  1.0000
  C   C634      1.0  0.41923  0.03177  0.22374  1.0000
  C   C635      1.0  0.40353  0.02377  0.23376  1.0000
  C   C636      1.0  0.39599  0.01146  0.22631  1.0000
  C   C637      1.0  0.40399  0.00703  0.20859  1.0000
  C   C638      1.0  0.42005  0.01453  0.19883  1.0000
  C   C639      1.0  0.42764  0.02677  0.20632  1.0000
  H   H632      1.0  0.39693  0.02743  0.24728  1.0000
  H   H633      1.0  0.38373  0.00579  0.23412  1.0000
  H   H634      1.0  0.42647  0.01119  0.18515  1.0000
  H   H635      1.0  0.43971  0.03272  0.19840  1.0000
  C   C640      1.0  0.45914  0.13137  0.16306  1.0000
  C   C641      1.0  0.45070  0.14822  0.15311  1.0000
  H   H636      1.0  0.45112  0.12423  0.17538  1.0000
  H   H637      1.0  0.43615  0.15394  0.15787  1.0000
  C   C642      1.0  0.45399  0.13290  0.26796  1.0000
  N   N50       1.0  0.45917  0.16607  0.05360  1.0000
  Fe  Fe108     1.0  0.24287  0.06563  0.96464  1.0000
  H   H638      1.0  0.25135  0.29697  0.97299  1.0000
  Fe  Fe109     1.0  0.46219  0.19972  0.10145  1.0000
  C   C643      1.0  0.42285  0.38952  0.18256  1.0000
  C   C644      1.0  0.40423  0.39560  0.17935  1.0000
  C   C645      1.0  0.39428  0.41351  0.18232  1.0000
  C   C646      1.0  0.40290  0.42567  0.18840  1.0000
  C   C647      1.0  0.42151  0.41957  0.19164  1.0000
  C   C648      1.0  0.43142  0.40162  0.18880  1.0000
  H   H639      1.0  0.39744  0.38640  0.17449  1.0000
  H   H640      1.0  0.38003  0.41798  0.17969  1.0000
  H   H641      1.0  0.42835  0.42887  0.19630  1.0000
  H   H642      1.0  0.44569  0.39718  0.19136  1.0000
  C   C649      1.0  0.27824  0.40980  0.05724  1.0000
  H   H643      1.0  0.36943  0.24506  0.00581  1.0000
  S   S220      1.0  0.47613  0.31061  0.24630  1.0000
  S   S221      1.0  0.23817  0.42776  0.04026  1.0000
  C   C650      1.0  0.45758  0.29026  0.12787  1.0000
  C   C651      1.0  0.46435  0.27420  0.11956  1.0000
  H   H644      1.0  0.46210  0.30723  0.14645  1.0000
  H   H645      1.0  0.44455  0.29915  0.12492  1.0000
  C   C652      1.0  0.29366  0.97534  0.26377  1.0000
  S   S222      1.0  0.44782  0.13040  0.24696  1.0000
  N   N51       1.0  0.27888  0.44410  0.25601  1.0000
  H   H646      1.0  0.43871  0.19016  0.18743  1.0000
  C   C653      1.0  0.44378  0.17346  0.06533  1.0000
  S   S223      1.0  0.23828  0.43152  0.09291  1.0000
  H   H647      1.0  0.28972  0.42127  0.27549  1.0000
  H   H648      1.0  0.34358  0.22770  0.02117  1.0000
  H   H649      1.0  0.29994  0.44216  0.27233  1.0000
  H   H650      1.0  0.46134  0.10335  0.27792  1.0000
  H   H651      1.0  0.43388  0.18529  0.05997  1.0000
  H   H652      1.0  0.35746  0.02193  0.21254  1.0000
  H   H653      1.0  0.47371  0.19537  0.14382  1.0000
  H   H654      1.0  0.39657  0.33301  0.21695  1.0000
  C   C654      1.0  0.35130  0.26820  0.99202  1.0000
  Fe  Fe110     1.0  0.36172  0.46611  0.19149  1.0000
  C   C655      1.0  0.28363  0.45294  0.22254  1.0000
  C   C656      1.0  0.27976  0.01333  0.29341  1.0000
  N   N52       1.0  0.41755  0.34454  0.22428  1.0000
  C   C657      1.0  0.40855  0.36277  0.22211  1.0000
  C   C658      1.0  0.43224  0.33901  0.23388  1.0000
  C   C659      1.0  0.41424  0.37604  0.22960  1.0000
  C   C660      1.0  0.43830  0.35191  0.24157  1.0000
  C   C661      1.0  0.42928  0.37056  0.23931  1.0000
  C   C662      1.0  0.29599  0.07969  0.98122  1.0000
  H   H655      1.0  0.39745  0.36732  0.21381  1.0000
  H   H656      1.0  0.41746  0.31648  0.22108  1.0000
  H   H657      1.0  0.40746  0.39062  0.22723  1.0000
  H   H658      1.0  0.45019  0.34745  0.24888  1.0000
  H   H659      1.0  0.43412  0.38081  0.24479  1.0000
  H   H660      1.0  0.31074  0.43096  0.06619  1.0000
  C   C663      1.0  0.45112  0.17935  0.18648  1.0000
  C   C664      1.0  0.41211  0.33124  0.21518  1.0000
  N   N53       1.0  0.37115  0.04471  0.19826  1.0000
  C   C665      1.0  0.38495  0.04692  0.18285  1.0000
  C   C666      1.0  0.36991  0.05383  0.21281  1.0000
  C   C667      1.0  0.39811  0.05836  0.18187  1.0000
  C   C668      1.0  0.38293  0.06526  0.21235  1.0000
  C   C669      1.0  0.39713  0.06746  0.19679  1.0000
  C   C670      1.0  0.35761  0.03241  0.19941  1.0000
  H   H661      1.0  0.38626  0.03932  0.17152  1.0000
  H   H662      1.0  0.35921  0.05179  0.22516  1.0000
  N   N54       1.0  0.27571  0.10363  0.99699  1.0000
  H   H663      1.0  0.36138  0.02431  0.18772  1.0000
  H   H664      1.0  0.26567  0.99125  0.26379  1.0000
  H   H665      1.0  0.34329  0.04074  0.19907  1.0000
  C   C671      1.0  0.26771  0.38768  0.08428  1.0000
  N   N55       1.0  0.28924  0.41521  0.06712  1.0000
  C   C672      1.0  0.46438  0.19798  0.15720  1.0000
  C   C673      1.0  0.24715  0.99780  0.02896  1.0000
  H   H666      1.0  0.29364  0.24472  0.01490  1.0000
  H   H667      1.0  0.27891  0.38739  0.10894  1.0000
  H   H668      1.0  0.47014  0.16384  0.02493  1.0000
  H   H669      1.0  0.29306  0.45495  0.20924  1.0000
  H   H670      1.0  0.30588  0.44328  0.23859  1.0000
  N   N56       1.0  0.46557  0.18113  0.17164  1.0000
  C   C674      1.0  0.46232  0.17437  0.03370  1.0000
  S   S224      1.0  0.28426  0.44991  0.09750  1.0000
  C   C675      1.0  0.47229  0.15184  0.06056  1.0000
  H   H671      1.0  0.44761  0.16306  0.26214  1.0000
  C   C676      1.0  0.34046  0.24121  0.01234  1.0000
  C   C677      1.0  0.29076  0.44624  0.23917  1.0000
  H   H672      1.0  0.25806  0.46302  0.12926  1.0000
  C   C678      1.0  0.27886  0.39336  0.09430  1.0000
  H   H673      1.0  0.32295  0.46077  0.13930  1.0000
  C   C679      1.0  0.29985  0.43031  0.05815  1.0000
  H   H674      1.0  0.32970  0.28871  0.98003  1.0000
  H   H675      1.0  0.23821  0.00803  0.97029  1.0000
  H   H676      1.0  0.23919  0.38619  0.99590  1.0000
  H   H677      1.0  0.45767  0.16733  0.29064  1.0000
  H   H678      1.0  0.30897  0.07510  0.97216  1.0000
  H   H679      1.0  0.29162  0.00241  0.28867  1.0000
  C   C680      1.0  0.26424  0.45745  0.22321  1.0000
  Fe  Fe111     1.0  0.47666  0.09083  0.19909  1.0000
  S   S225      1.0  0.47683  0.19581  0.07232  1.0000
  C   C681      1.0  0.29344  0.46719  0.15049  1.0000
  C   C682      1.0  0.24463  0.02574  0.00446  1.0000
  H   H680      1.0  0.44989  0.20232  0.15397  1.0000
  C   C683      1.0  0.46787  0.14944  0.19929  1.0000
  H   H681      1.0  0.26955  0.01572  0.28373  1.0000
  H   H682      1.0  0.25035  0.44685  0.27016  1.0000
  H   H683      1.0  0.28364  0.13019  0.99569  1.0000
  C   C684      1.0  0.26718  0.97099  0.28921  1.0000
  H   H684      1.0  0.47036  0.18599  0.03149  1.0000
  H   H685      1.0  0.46851  0.13690  0.20983  1.0000
  H   H686      1.0  0.44053  0.16186  0.21224  1.0000
  C   C685      1.0  0.45203  0.16346  0.20051  1.0000
  C   C686      1.0  0.47749  0.28642  0.25568  1.0000
  Fe  Fe112     1.0  0.32904  0.97367  0.22604  1.0000
  H   H687      1.0  0.23482  0.42000  0.97136  1.0000
  H   H688      1.0  0.23955  0.23772  0.96563  1.0000
  H   H689      1.0  0.23709  0.45894  0.24124  1.0000
  Fe  Fe113     1.0  0.23152  0.44497  0.06427  1.0000
  C   C687      1.0  0.27517  0.46783  0.14746  1.0000
  C   C688      1.0  0.47787  0.12374  0.15698  1.0000
  S   S226      1.0  0.35200  0.23375  0.96352  1.0000
  C   C689      1.0  0.23047  0.39353  0.00668  1.0000
  H   H690      1.0  0.25255  0.97498  0.29516  1.0000
  H   H691      1.0  0.28536  0.02638  0.29215  1.0000
  C   C690      1.0  0.47969  0.15021  0.13103  1.0000
  Fe  Fe114     1.0  0.45179  0.20105  0.34697  1.0000
  S   S227      1.0  0.42367  0.21378  0.36306  1.0000
  C   C691      1.0  0.30484  0.97290  0.62115  1.0000
  S   S228      1.0  0.45450  0.19556  0.31761  1.0000
  Fe  Fe115     1.0  0.35364  0.19159  0.46218  1.0000
  S   S229      1.0  0.34866  0.17057  0.48879  1.0000
  S   S230      1.0  0.38364  0.18470  0.44607  1.0000
  Fe  Fe116     1.0  0.31272  0.21136  0.46827  1.0000
  S   S231      1.0  0.30520  0.19149  0.49478  1.0000
  S   S232      1.0  0.28757  0.23121  0.45802  1.0000
  Fe  Fe117     1.0  0.33218  0.19485  0.50210  1.0000
  S   S233      1.0  0.32801  0.19741  0.53287  1.0000
  Fe  Fe118     1.0  0.32212  0.16880  0.47964  1.0000
  S   S234      1.0  0.31385  0.14006  0.48502  1.0000
  S   S235      1.0  0.33881  0.21642  0.47632  1.0000
  S   S236      1.0  0.32797  0.18810  0.45229  1.0000
  C   C692      1.0  0.25482  0.01886  0.32013  1.0000
  Fe  Fe119     1.0  0.27795  0.06677  0.60665  1.0000
  C   C693      1.0  0.27787  0.99130  0.32331  1.0000
  H   H692      1.0  0.25916  0.34664  0.42318  1.0000
  C   C694      1.0  0.37642  0.14221  0.59554  1.0000
  S   S237      1.0  0.25598  0.11943  0.44372  1.0000
  H   H693      1.0  0.23726  0.99732  0.42715  1.0000
  H   H694      1.0  0.47144  0.25744  0.29821  1.0000
  H   H695      1.0  0.47699  0.20431  0.38085  1.0000
  S   S238      1.0  0.25403  0.06365  0.46235  1.0000
  H   H696      1.0  0.38235  0.12995  0.60535  1.0000
  H   H697      1.0  0.27471  0.97266  0.34991  1.0000
  S   S239      1.0  0.27288  0.07969  0.57699  1.0000
  H   H698      1.0  0.36524  0.15797  0.56312  1.0000
  S   S240      1.0  0.39118  0.18991  0.58193  1.0000
  N   N57       1.0  0.36090  0.13827  0.58834  1.0000
  H   H699      1.0  0.32530  0.11341  0.60174  1.0000
  H   H700      1.0  0.27666  0.01909  0.52846  1.0000
  H   H701      1.0  0.30106  0.00315  0.61576  1.0000
  N   N58       1.0  0.46428  0.19348  0.40843  1.0000
  C   C695      1.0  0.35656  0.14815  0.57161  1.0000
  H   H702      1.0  0.30110  0.22397  0.51394  1.0000
  C   C696      1.0  0.25300  0.07585  0.53124  1.0000
  H   H703      1.0  0.38806  0.14590  0.58400  1.0000
  C   C697      1.0  0.26188  0.07151  0.56204  1.0000
  C   C698      1.0  0.25681  0.05377  0.56641  1.0000
  H   H704      1.0  0.42352  0.21356  0.43265  1.0000
  H   H705      1.0  0.25843  0.04511  0.57984  1.0000
  H   H706      1.0  0.47603  0.16684  0.42314  1.0000
  C   C699      1.0  0.30613  0.06220  0.53865  1.0000
  H   H707      1.0  0.23665  0.28527  0.46203  1.0000
  C   C700      1.0  0.25914  0.25200  0.50868  1.0000
  C   C701      1.0  0.29323  0.04809  0.51289  1.0000
  C   C702      1.0  0.34573  0.19556  0.54625  1.0000
  C   C703      1.0  0.34061  0.19491  0.56571  1.0000
  C   C704      1.0  0.35431  0.19308  0.57694  1.0000
  C   C705      1.0  0.37325  0.19221  0.56869  1.0000
  C   C706      1.0  0.37833  0.19303  0.54921  1.0000
  C   C707      1.0  0.36468  0.19453  0.53805  1.0000
  H   H708      1.0  0.32596  0.19573  0.57217  1.0000
  H   H709      1.0  0.35020  0.19258  0.59188  1.0000
  H   H710      1.0  0.39296  0.19243  0.54272  1.0000
  H   H711      1.0  0.36881  0.19506  0.52310  1.0000
  C   C708      1.0  0.27805  0.25416  0.46251  1.0000
  C   C709      1.0  0.28843  0.26505  0.46822  1.0000
  C   C710      1.0  0.28021  0.28335  0.47138  1.0000
  C   C711      1.0  0.26150  0.29076  0.46918  1.0000
  C   C712      1.0  0.25107  0.27975  0.46377  1.0000
  C   C713      1.0  0.25939  0.26165  0.46025  1.0000
  H   H712      1.0  0.30283  0.25948  0.46993  1.0000
  H   H713      1.0  0.28838  0.29177  0.47557  1.0000
  H   H714      1.0  0.33706  0.15433  0.55227  1.0000
  H   H715      1.0  0.25128  0.25335  0.45579  1.0000
  C   C714      1.0  0.29672  0.13531  0.47414  1.0000
  C   C715      1.0  0.28983  0.11843  0.48066  1.0000
  C   C716      1.0  0.27721  0.11347  0.47155  1.0000
  C   C717      1.0  0.27163  0.12528  0.45562  1.0000
  C   C718      1.0  0.27826  0.14233  0.44928  1.0000
  C   C719      1.0  0.29063  0.14744  0.45861  1.0000
  H   H716      1.0  0.29434  0.10915  0.49278  1.0000
  H   H717      1.0  0.27198  0.10041  0.47666  1.0000
  H   H718      1.0  0.27379  0.15164  0.43710  1.0000
  H   H719      1.0  0.29569  0.16059  0.45360  1.0000
  C   C720      1.0  0.44964  0.19607  0.42295  1.0000
  S   S241      1.0  0.25140  0.31361  0.47368  1.0000
  C   C721      1.0  0.27345  0.23634  0.50788  1.0000
  C   C722      1.0  0.24021  0.36311  0.44224  1.0000
  C   C723      1.0  0.41189  0.20445  0.38547  1.0000
  C   C724      1.0  0.41984  0.18806  0.39628  1.0000
  C   C725      1.0  0.41081  0.18211  0.41467  1.0000
  C   C726      1.0  0.39362  0.19228  0.42239  1.0000
  C   C727      1.0  0.38532  0.20828  0.41136  1.0000
  C   C728      1.0  0.39449  0.21439  0.39306  1.0000
  H   H720      1.0  0.43317  0.18024  0.39063  1.0000
  H   H721      1.0  0.41734  0.16966  0.42305  1.0000
  H   H722      1.0  0.37211  0.21625  0.41708  1.0000
  H   H723      1.0  0.38820  0.22707  0.38481  1.0000
  S   S242      1.0  0.30725  0.06510  0.61202  1.0000
  C   C729      1.0  0.29865  0.06571  0.50787  1.0000
  C   C730      1.0  0.29168  0.25105  0.52208  1.0000
  C   C731      1.0  0.47891  0.17674  0.40984  1.0000
  H   H724      1.0  0.24911  0.13011  0.51016  1.0000
  H   H725      1.0  0.30441  0.25072  0.52734  1.0000
  C   C732      1.0  0.45148  0.22235  0.39030  1.0000
  C   C733      1.0  0.25958  0.08265  0.54455  1.0000
  S   S243      1.0  0.47651  0.21642  0.33954  1.0000
  C   C734      1.0  0.27712  0.26654  0.52258  1.0000
  H   H726      1.0  0.24892  0.03167  0.31171  1.0000
  H   H727      1.0  0.37130  0.15428  0.60307  1.0000
  Fe  Fe120     1.0  0.24176  0.09435  0.45653  1.0000
  C   C735      1.0  0.43641  0.22503  0.40492  1.0000
  H   H728      1.0  0.28772  0.04288  0.50289  1.0000
  S   S244      1.0  0.47381  0.14019  0.32024  1.0000
  S   S245      1.0  0.27334  0.03965  0.62601  1.0000
  H   H729      1.0  0.26072  0.37368  0.39678  1.0000
  C   C736      1.0  0.24193  0.39326  0.41303  1.0000
  C   C737      1.0  0.46503  0.13779  0.30060  1.0000
  H   H730      1.0  0.24680  0.03302  0.55637  1.0000
  H   H731      1.0  0.45196  0.23216  0.37718  1.0000
  H   H732      1.0  0.30072  0.00856  0.53070  1.0000
  C   C738      1.0  0.25131  0.36046  0.42502  1.0000
  H   H733      1.0  0.29748  0.07393  0.49411  1.0000
  N   N59       1.0  0.35717  0.14684  0.43757  1.0000
  C   C739      1.0  0.33950  0.14521  0.43595  1.0000
  C   C740      1.0  0.36785  0.15702  0.42337  1.0000
  C   C741      1.0  0.33169  0.15481  0.42028  1.0000
  C   C742      1.0  0.36047  0.16695  0.40756  1.0000
  C   C743      1.0  0.34221  0.16592  0.40610  1.0000
  C   C744      1.0  0.36503  0.13706  0.45425  1.0000
  H   H734      1.0  0.33125  0.13667  0.44695  1.0000
  H   H735      1.0  0.38209  0.15774  0.42436  1.0000
  H   H736      1.0  0.31750  0.15380  0.41928  1.0000
  H   H737      1.0  0.36885  0.17552  0.39665  1.0000
  H   H738      1.0  0.33624  0.17368  0.39399  1.0000
  H   H739      1.0  0.35373  0.13493  0.46664  1.0000
  H   H740      1.0  0.37341  0.12326  0.45177  1.0000
  H   H741      1.0  0.37414  0.14550  0.45788  1.0000
  C   C745      1.0  0.46541  0.20644  0.39234  1.0000
  H   H742      1.0  0.27209  0.22484  0.50158  1.0000
  H   H743      1.0  0.25202  0.08425  0.51757  1.0000
  C   C746      1.0  0.25326  0.99737  0.34950  1.0000
  C   C747      1.0  0.46584  0.11976  0.29697  1.0000
  H   H744      1.0  0.26356  0.09637  0.54106  1.0000
  N   N60       1.0  0.29416  0.03786  0.53040  1.0000
  S   S246      1.0  0.46888  0.17334  0.35669  1.0000
  C   C748      1.0  0.34069  0.14601  0.56533  1.0000
  C   C749      1.0  0.28981  0.23593  0.51461  1.0000
  H   H745      1.0  0.28382  0.01558  0.55059  1.0000
  H   H746      1.0  0.29667  0.97229  0.61087  1.0000
  C   C750      1.0  0.30073  0.04458  0.54315  1.0000
  N   N61       1.0  0.26119  0.26693  0.51577  1.0000
  C   C751      1.0  0.28867  0.01931  0.53526  1.0000
  H   H747      1.0  0.23952  0.35140  0.45376  1.0000
  S   S247      1.0  0.24370  0.04738  0.51795  1.0000
  C   C752      1.0  0.33408  0.12314  0.59309  1.0000
  C   C753      1.0  0.25222  0.37561  0.41028  1.0000
  H   H748      1.0  0.42511  0.23690  0.40318  1.0000
  C   C754      1.0  0.26925  0.98589  0.34179  1.0000
  H   H749      1.0  0.30122  0.03665  0.55714  1.0000
  C   C755      1.0  0.34998  0.12578  0.59899  1.0000
  H   H750      1.0  0.24635  0.99329  0.36378  1.0000
  Fe  Fe121     1.0  0.23548  0.06398  0.49058  1.0000
  H   H751      1.0  0.47087  0.10763  0.30671  1.0000
  C   C756      1.0  0.24598  0.01397  0.33863  1.0000
  C   C757      1.0  0.30724  0.99038  0.62395  1.0000
  H   H752      1.0  0.24252  0.40494  0.40145  1.0000
  H   H753      1.0  0.24302  0.14459  0.47839  1.0000
  H   H754      1.0  0.30890  0.08663  0.51741  1.0000
  C   C758      1.0  0.23520  0.13147  0.50684  1.0000
  N   N62       1.0  0.27059  0.00759  0.31272  1.0000
  S   S248      1.0  0.23163  0.03346  0.43782  1.0000
  H   H755      1.0  0.27869  0.27831  0.52832  1.0000
  H   H756      1.0  0.31687  0.13178  0.57164  1.0000
  C   C759      1.0  0.24872  0.05778  0.53531  1.0000
  C   C760      1.0  0.32936  0.13344  0.57621  1.0000
  Fe  Fe122     1.0  0.39109  0.18170  0.61325  1.0000
  S   S249      1.0  0.40699  0.19594  0.62724  1.0000
  H   H757      1.0  0.35341  0.11790  0.61224  1.0000
  H   H758      1.0  0.31045  0.06783  0.54914  1.0000
  C   C761      1.0  0.30507  0.07281  0.52090  1.0000
  H   H759      1.0  0.24663  0.25236  0.50305  1.0000
  H   H760      1.0  0.44852  0.18571  0.43564  1.0000
  C   C762      1.0  0.25025  0.04695  0.55307  1.0000
  C   C763      1.0  0.24597  0.28312  0.51684  1.0000
  C   C764      1.0  0.43550  0.21190  0.42143  1.0000
  S   S250      1.0  0.40800  0.15333  0.62140  1.0000
  H   H761      1.0  0.25172  0.29638  0.51359  1.0000
  Fe  Fe123     1.0  0.47351  0.16886  0.32684  1.0000
  H   H762      1.0  0.23335  0.02282  0.34448  1.0000
  C   C765      1.0  0.23167  0.13967  0.48887  1.0000
  H   H763      1.0  0.29016  0.98213  0.31741  1.0000
  H   H764      1.0  0.23721  0.28191  0.53101  1.0000
  H   H765      1.0  0.23684  0.28434  0.50634  1.0000
  C   C766      1.0  0.22995  0.38089  0.44445  1.0000
  N   N63       1.0  0.23079  0.39564  0.42990  1.0000
  H   H766      1.0  0.43246  0.22171  0.62795  1.0000
  Fe  Fe124     1.0  0.25432  0.39197  0.79960  1.0000
  S   S251      1.0  0.27883  0.40731  0.79092  1.0000
  H   H767      1.0  0.46813  0.27833  0.81755  1.0000
  C   C767      1.0  0.24296  0.36242  0.86563  1.0000
  S   S252      1.0  0.26794  0.41867  0.74879  1.0000
  C   C768      1.0  0.28445  0.15460  0.95888  1.0000
  Fe  Fe125     1.0  0.28480  0.39409  0.76516  1.0000
  S   S253      1.0  0.31543  0.38174  0.75595  1.0000
  Fe  Fe126     1.0  0.25989  0.43037  0.77552  1.0000
  C   C769      1.0  0.24822  0.02872  0.90430  1.0000
  S   S254      1.0  0.26114  0.37771  0.77434  1.0000
  H   H768      1.0  0.46872  0.19898  0.66828  1.0000
  Fe  Fe127     1.0  0.37247  0.27671  0.77006  1.0000
  S   S255      1.0  0.37195  0.24580  0.77849  1.0000
  S   S256      1.0  0.34364  0.29349  0.76584  1.0000
  Fe  Fe128     1.0  0.41429  0.27069  0.77188  1.0000
  S   S257      1.0  0.41619  0.23959  0.78110  1.0000
  S   S258      1.0  0.44080  0.28357  0.76109  1.0000
  Fe  Fe129     1.0  0.39928  0.24126  0.75868  1.0000
  S   S259      1.0  0.41015  0.21900  0.73991  1.0000
  Fe  Fe130     1.0  0.38861  0.24673  0.80027  1.0000
  S   S260      1.0  0.37815  0.22943  0.82845  1.0000
  S   S261      1.0  0.39862  0.27201  0.74847  1.0000
  S   S262      1.0  0.38785  0.27797  0.79280  1.0000
  H   H769      1.0  0.27926  0.26903  0.90669  1.0000
  Fe  Fe131     1.0  0.26254  0.05696  0.64890  1.0000
  S   S263      1.0  0.29038  0.05541  0.65697  1.0000
  H   H770      1.0  0.46292  0.15738  0.69779  1.0000
  H   H771      1.0  0.29223  0.97266  0.69799  1.0000
  N   N64       1.0  0.30929  0.34382  0.80939  1.0000
  S   S264      1.0  0.25447  0.46204  0.77425  1.0000
  C   C770      1.0  0.25173  0.02474  0.93653  1.0000
  C   C771      1.0  0.36424  0.17341  0.71468  1.0000
  S   S265      1.0  0.26235  0.13019  0.95580  1.0000
  Fe  Fe132     1.0  0.38573  0.19008  0.65321  1.0000
  S   S266      1.0  0.40195  0.16215  0.66389  1.0000
  S   S267      1.0  0.37361  0.21215  0.67167  1.0000
  N   N65       1.0  0.24544  0.09838  0.71022  1.0000
  Fe  Fe133     1.0  0.38584  0.15102  0.64715  1.0000
  S   S268      1.0  0.37476  0.12375  0.65787  1.0000
  C   C772      1.0  0.23263  0.36463  0.88351  1.0000
  H   H772      1.0  0.28357  0.31153  0.80809  1.0000
  H   H773      1.0  0.23528  0.35400  0.89552  1.0000
  H   H774      1.0  0.29092  0.26118  0.92675  1.0000
  H   H775      1.0  0.29312  0.36916  0.81763  1.0000
  C   C773      1.0  0.47635  0.33220  0.79028  1.0000
  S   S269      1.0  0.37923  0.23450  0.91212  1.0000
  H   H776      1.0  0.39892  0.23460  0.64193  1.0000
  S   S270      1.0  0.25061  0.07562  0.89331  1.0000
  C   C774      1.0  0.23362  0.05295  0.73258  1.0000
  H   H777      1.0  0.25551  0.11117  0.72836  1.0000
  C   C775      1.0  0.46952  0.15884  0.68321  1.0000
  N   N66       1.0  0.42311  0.23027  0.65459  1.0000
  H   H778      1.0  0.39655  0.19083  0.90887  1.0000
  N   N67       1.0  0.34986  0.18357  0.70588  1.0000
  C   C776      1.0  0.46709  0.16185  0.65055  1.0000
  N   N68       1.0  0.28017  0.98153  0.67322  1.0000
  S   S271      1.0  0.23671  0.05130  0.67050  1.0000
  C   C777      1.0  0.45863  0.16012  0.66940  1.0000
  H   H779      1.0  0.36938  0.17497  0.92354  1.0000
  C   C778      1.0  0.46216  0.22295  0.74110  1.0000
  H   H780      1.0  0.44376  0.15969  0.67332  1.0000
  H   H781      1.0  0.44629  0.21676  0.69126  1.0000
  H   H782      1.0  0.33287  0.18486  0.68556  1.0000
  C   C779      1.0  0.25086  0.05286  0.72021  1.0000
  C   C780      1.0  0.25213  0.05173  0.70130  1.0000
  H   H783      1.0  0.26322  0.05407  0.72518  1.0000
  H   H784      1.0  0.26538  0.05216  0.69190  1.0000
  N   N69       1.0  0.26102  0.26929  0.93287  1.0000
  H   H785      1.0  0.26794  0.00789  0.68140  1.0000
  C   C781      1.0  0.27283  0.97625  0.66007  1.0000
  S   S272      1.0  0.36796  0.17866  0.63831  1.0000
  C   C782      1.0  0.37308  0.15576  0.71051  1.0000
  Fe  Fe134     1.0  0.24363  0.40324  0.76000  1.0000
  C   C783      1.0  0.33463  0.09774  0.64965  1.0000
  C   C784      1.0  0.35107  0.10136  0.65394  1.0000
  C   C785      1.0  0.35413  0.11982  0.65191  1.0000
  C   C786      1.0  0.24620  0.28379  0.93153  1.0000
  H   H786      1.0  0.39550  0.24601  0.66153  1.0000
  H   H787      1.0  0.33247  0.08346  0.65120  1.0000
  H   H788      1.0  0.36150  0.08978  0.65881  1.0000
  S   S273      1.0  0.23468  0.41608  0.78622  1.0000
  H   H789      1.0  0.23474  0.09635  0.66199  1.0000
  C   C787      1.0  0.37574  0.23493  0.85102  1.0000
  C   C788      1.0  0.36276  0.22695  0.86563  1.0000
  C   C789      1.0  0.36290  0.22764  0.88441  1.0000
  C   C790      1.0  0.37614  0.23628  0.88874  1.0000
  C   C791      1.0  0.38837  0.24526  0.87408  1.0000
  C   C792      1.0  0.38816  0.24464  0.85527  1.0000
  H   H790      1.0  0.35301  0.21953  0.86244  1.0000
  H   H791      1.0  0.35331  0.22081  0.89553  1.0000
  H   H792      1.0  0.39857  0.25210  0.87731  1.0000
  H   H793      1.0  0.39827  0.25080  0.84418  1.0000
  C   C793      1.0  0.39950  0.21716  0.72126  1.0000
  C   C794      1.0  0.38449  0.23054  0.71556  1.0000
  C   C795      1.0  0.37677  0.22885  0.70031  1.0000
  C   C796      1.0  0.38394  0.21376  0.69063  1.0000
  C   C797      1.0  0.39895  0.20035  0.69633  1.0000
  C   C798      1.0  0.40666  0.20205  0.71158  1.0000
  H   H794      1.0  0.37888  0.24227  0.72287  1.0000
  H   H795      1.0  0.36518  0.23933  0.69600  1.0000
  H   H796      1.0  0.40468  0.18871  0.68898  1.0000
  H   H797      1.0  0.41831  0.19163  0.71586  1.0000
  H   H798      1.0  0.38467  0.14786  0.71727  1.0000
  C   C799      1.0  0.45607  0.27973  0.79310  1.0000
  H   H799      1.0  0.44307  0.27563  0.80102  1.0000
  C   C800      1.0  0.23451  0.07032  0.88114  1.0000
  C   C801      1.0  0.31814  0.99123  0.63693  1.0000
  C   C802      1.0  0.32392  0.13108  0.64179  1.0000
  H   H800      1.0  0.32612  0.20005  0.71981  1.0000
  C   C803      1.0  0.47546  0.28942  0.76348  1.0000
  H   H801      1.0  0.24577  0.36696  0.69522  1.0000
  H   H802      1.0  0.37383  0.13488  0.69386  1.0000
  C   C804      1.0  0.30249  0.27267  0.95675  1.0000
  Fe  Fe135     1.0  0.24337  0.08234  0.92298  1.0000
  S   S274      1.0  0.26492  0.07761  0.94190  1.0000
  C   C805      1.0  0.40593  0.24218  0.64916  1.0000
  C   C806      1.0  0.36701  0.14848  0.69739  1.0000
  H   H803      1.0  0.28111  0.00923  0.65790  1.0000
  C   C807      1.0  0.25865  0.25275  0.94465  1.0000
  H   H804      1.0  0.30147  0.11506  0.94011  1.0000
  H   H805      1.0  0.24805  0.29691  0.92219  1.0000
  C   C808      1.0  0.32323  0.35720  0.75856  1.0000
  C   C809      1.0  0.31073  0.34489  0.76049  1.0000
  C   C810      1.0  0.31737  0.32549  0.76214  1.0000
  C   C811      1.0  0.33648  0.31813  0.76237  1.0000
  C   C812      1.0  0.34901  0.33041  0.76065  1.0000
  C   C813      1.0  0.34241  0.34989  0.75857  1.0000
  H   H806      1.0  0.29599  0.35032  0.76030  1.0000
  H   H807      1.0  0.30760  0.31610  0.76342  1.0000
  H   H808      1.0  0.36376  0.32492  0.76078  1.0000
  H   H809      1.0  0.35220  0.35935  0.75698  1.0000
  H   H810      1.0  0.44844  0.23042  0.74653  1.0000
  C   C814      1.0  0.45852  0.28406  0.77358  1.0000
  H   H811      1.0  0.29345  0.45091  0.78019  1.0000
  H   H812      1.0  0.46806  0.32342  0.80103  1.0000
  H   H813      1.0  0.31668  0.26591  0.95202  1.0000
  H   H814      1.0  0.34314  0.30554  0.80519  1.0000
  H   H815      1.0  0.45030  0.20264  0.73234  1.0000
  H   H816      1.0  0.31337  0.14266  0.63715  1.0000
  H   H817      1.0  0.33914  0.33920  0.80679  1.0000
  H   H818      1.0  0.28009  0.34503  0.80990  1.0000
  S   S275      1.0  0.29984  0.10895  0.63849  1.0000
  H   H819      1.0  0.34820  0.20728  0.71883  1.0000
  H   H820      1.0  0.25349  0.35004  0.86403  1.0000
  C   C815      1.0  0.46312  0.20729  0.73296  1.0000
  C   C816      1.0  0.47275  0.33649  0.77203  1.0000
  H   H821      1.0  0.23735  0.09773  0.73986  1.0000
  S   S276      1.0  0.45409  0.16389  0.63262  1.0000
  C   C817      1.0  0.28425  0.13798  0.95264  1.0000
  S   S277      1.0  0.34051  0.15766  0.94945  1.0000
  H   H822      1.0  0.30872  0.37180  0.79537  1.0000
  H   H823      1.0  0.46157  0.33109  0.76857  1.0000
  H   H824      1.0  0.36911  0.17901  0.72483  1.0000
  C   C818      1.0  0.31355  0.30613  0.80724  1.0000
  C   C819      1.0  0.32918  0.31398  0.80701  1.0000
  H   H825      1.0  0.24710  0.38001  0.72305  1.0000
  H   H826      1.0  0.33802  0.21221  0.69821  1.0000
  C   C820      1.0  0.23422  0.37731  0.70032  1.0000
  Fe  Fe136     1.0  0.36149  0.22009  0.93780  1.0000
  C   C821      1.0  0.31841  0.13406  0.94410  1.0000
  S   S278      1.0  0.27169  0.32476  0.94850  1.0000
  Fe  Fe137     1.0  0.25126  0.10568  0.94989  1.0000
  C   C822      1.0  0.29699  0.29202  0.95107  1.0000
  H   H827      1.0  0.24966  0.41638  0.93879  1.0000
  C   C823      1.0  0.27848  0.30080  0.95672  1.0000
  C   C824      1.0  0.27928  0.27133  0.92098  1.0000
  C   C825      1.0  0.34054  0.13469  0.64565  1.0000
  S   S279      1.0  0.25271  0.37201  0.82759  1.0000
  C   C826      1.0  0.30146  0.16092  0.95779  1.0000
  Fe  Fe138     1.0  0.42233  0.16730  0.63711  1.0000
  H   H828      1.0  0.34268  0.14895  0.64403  1.0000
  S   S280      1.0  0.33353  0.21230  0.93860  1.0000
  C   C827      1.0  0.23503  0.38471  0.71609  1.0000
  S   S281      1.0  0.23171  0.11140  0.92901  1.0000
  H   H829      1.0  0.26660  0.10017  0.66489  1.0000
  C   C828      1.0  0.23618  0.05056  0.69459  1.0000
  C   C829      1.0  0.43544  0.22073  0.64185  1.0000
  C   C830      1.0  0.34402  0.17665  0.69279  1.0000
  C   C831      1.0  0.29576  0.31734  0.80842  1.0000
  H   H830      1.0  0.27043  0.24127  0.94583  1.0000
  H   H831      1.0  0.25354  0.03254  0.88948  1.0000
  S   S282      1.0  0.32195  0.01283  0.64047  1.0000
  C   C832      1.0  0.35247  0.15901  0.68837  1.0000
  H   H832      1.0  0.30698  0.30015  0.94195  1.0000
  C   C833      1.0  0.28061  0.00137  0.67243  1.0000
  Fe  Fe139     1.0  0.30147  0.03938  0.63317  1.0000
  H   H833      1.0  0.33156  0.12600  0.93838  1.0000
  C   C834      1.0  0.23968  0.37602  0.84980  1.0000
  H   H834      1.0  0.26798  0.98657  0.64862  1.0000
  H   H835      1.0  0.25511  0.06769  0.85608  1.0000
  H   H836      1.0  0.26008  0.02542  0.94668  1.0000
  C   C835      1.0  0.25925  0.09976  0.69472  1.0000
  S   S283      1.0  0.37335  0.19228  0.95383  1.0000
  C   C836      1.0  0.47030  0.28125  0.80242  1.0000
  N   N70       1.0  0.39377  0.19014  0.88098  1.0000
  C   C837      1.0  0.38881  0.18654  0.90005  1.0000
  C   C838      1.0  0.38377  0.18502  0.86988  1.0000
  C   C839      1.0  0.37335  0.17778  0.90845  1.0000
  C   C840      1.0  0.36807  0.17646  0.87785  1.0000
  C   C841      1.0  0.36287  0.17282  0.89729  1.0000
  C   C842      1.0  0.41031  0.19887  0.87246  1.0000
  H   H837      1.0  0.31786  0.36661  0.81692  1.0000
  H   H838      1.0  0.38747  0.18821  0.85473  1.0000
  H   H839      1.0  0.31540  0.29158  0.80569  1.0000
  H   H840      1.0  0.35986  0.17292  0.86899  1.0000
  H   H841      1.0  0.35068  0.16627  0.90380  1.0000
  H   H842      1.0  0.42317  0.18801  0.87165  1.0000
  H   H843      1.0  0.40903  0.20675  0.85814  1.0000
  H   H844      1.0  0.41180  0.20919  0.88076  1.0000
  C   C843      1.0  0.30716  0.36382  0.80986  1.0000
  C   C844      1.0  0.23301  0.41268  0.91159  1.0000
  H   H845      1.0  0.26045  0.08577  0.73237  1.0000
  C   C845      1.0  0.32091  0.11261  0.64372  1.0000
  N   N71       1.0  0.47823  0.22873  0.74225  1.0000
  C   C846      1.0  0.25555  0.09933  0.67711  1.0000
  H   H846      1.0  0.27249  0.03374  0.91290  1.0000
  C   C847      1.0  0.34002  0.20162  0.71100  1.0000
  C   C848      1.0  0.44347  0.21790  0.67727  1.0000
  C   C849      1.0  0.29389  0.33630  0.80940  1.0000
  H   H847      1.0  0.34797  0.15355  0.67787  1.0000
  C   C850      1.0  0.42707  0.22922  0.67202  1.0000
  C   C851      1.0  0.24121  0.25066  0.95593  1.0000
  C   C852      1.0  0.32682  0.33302  0.80784  1.0000
  H   H848      1.0  0.27333  0.10090  0.69593  1.0000
  C   C853      1.0  0.24990  0.09836  0.72856  1.0000
  H   H849      1.0  0.28252  0.46758  0.73647  1.0000
  H   H850      1.0  0.29351  0.00308  0.67692  1.0000
  C   C854      1.0  0.45599  0.20792  0.66443  1.0000
  H   H851      1.0  0.28236  0.28558  0.92012  1.0000
  Fe  Fe140     1.0  0.29346  0.08117  0.63525  1.0000
  C   C855      1.0  0.30135  0.12782  0.94505  1.0000
  H   H852      1.0  0.23880  0.39757  0.91151  1.0000
  C   C856      1.0  0.23461  0.41692  0.94304  1.0000
  Fe  Fe141     1.0  0.34437  0.18528  0.95627  1.0000
  S   S284      1.0  0.23195  0.05789  0.75522  1.0000
  H   H853      1.0  0.41737  0.23686  0.68213  1.0000
  C   C857      1.0  0.25893  0.02928  0.91747  1.0000
  H   H854      1.0  0.33480  0.97514  0.65732  1.0000
  Fe  Fe142     1.0  0.24073  0.33674  0.95417  1.0000
  C   C858      1.0  0.31859  0.15063  0.95048  1.0000
  C   C859      1.0  0.24081  0.06654  0.86281  1.0000
  N   N72       1.0  0.23431  0.01983  0.94229  1.0000
  C   C860      1.0  0.32627  0.97455  0.64734  1.0000
  C   C861      1.0  0.28941  0.46589  0.77962  1.0000
  C   C862      1.0  0.23764  0.09739  0.67544  1.0000
  H   H855      1.0  0.47274  0.25824  0.74058  1.0000
  H   H856      1.0  0.46586  0.24520  0.76350  1.0000
  H   H857      1.0  0.24454  0.42092  0.90616  1.0000
  S   S285      1.0  0.23162  0.36802  0.95075  1.0000
  H   H858      1.0  0.47746  0.29279  0.74837  1.0000
  H   H859      1.0  0.23398  0.05807  0.83915  1.0000
  C   C863      1.0  0.45200  0.20937  0.64659  1.0000
  H   H860      1.0  0.46154  0.20153  0.63652  1.0000
  H   H861      1.0  0.40933  0.25520  0.63970  1.0000
  C   C864      1.0  0.23030  0.02414  0.91026  1.0000
  C   C865      1.0  0.47678  0.24533  0.75062  1.0000
  S   S286      1.0  0.26442  0.08409  0.62897  1.0000
  Fe  Fe143     1.0  0.34387  0.50784  0.18310  1.0000
  S   S287      1.0  0.34763  0.53739  0.16765  1.0000
  S   S288      1.0  0.31485  0.50204  0.19596  1.0000
  S   S289      1.0  0.35049  0.48442  0.16630  1.0000
  H   H862      1.0  0.27859  0.52528  0.07556  1.0000
  C   C866      1.0  0.23560  0.68301  0.07187  1.0000
  C   C867      1.0  0.31366  0.60725  0.16618  1.0000
  C   C868      1.0  0.26474  0.53211  0.07290  1.0000
  Fe  Fe144     1.0  0.35797  0.93835  0.22384  1.0000
  H   H863      1.0  0.34460  0.87403  0.22030  1.0000
  S   S290      1.0  0.36676  0.91117  0.24320  1.0000
  S   S291      1.0  0.32875  0.94665  0.21707  1.0000
  Fe  Fe145     1.0  0.37999  0.78419  0.27362  1.0000
  Fe  Fe146     1.0  0.24826  0.94247  0.11454  1.0000
  S   S292      1.0  0.26162  0.93952  0.14058  1.0000
  S   S293      1.0  0.29606  0.47393  0.17117  1.0000
  S   S294      1.0  0.24856  0.89728  0.07011  1.0000
  H   H864      1.0  0.32702  0.66174  0.98130  1.0000
  S   S295      1.0  0.25778  0.94481  0.08315  1.0000
  H   H865      1.0  0.31980  0.95708  0.26780  1.0000
  Fe  Fe147     1.0  0.27660  0.59618  0.06760  1.0000
  S   S296      1.0  0.30630  0.60164  0.06224  1.0000
  S   S297      1.0  0.27709  0.56467  0.07209  1.0000
  Fe  Fe148     1.0  0.26094  0.63728  0.07150  1.0000
  S   S298      1.0  0.28954  0.64480  0.06762  1.0000
  Fe  Fe149     1.0  0.23080  0.96568  0.08060  1.0000
  Fe  Fe150     1.0  0.29632  0.62849  0.04398  1.0000
  S   S299      1.0  0.31365  0.64260  0.01799  1.0000
  Fe  Fe151     1.0  0.29685  0.61725  0.08624  1.0000
  S   S300      1.0  0.31530  0.60788  0.10855  1.0000
  S   S301      1.0  0.26740  0.62199  0.04697  1.0000
  S   S302      1.0  0.26754  0.61096  0.09239  1.0000
  Fe  Fe152     1.0  0.38533  0.62464  0.18299  1.0000
  S   S303      1.0  0.39838  0.62908  0.15263  1.0000
  S   S304      1.0  0.37946  0.59609  0.19896  1.0000
  Fe  Fe153     1.0  0.38294  0.66603  0.18598  1.0000
  S   S305      1.0  0.39503  0.67337  0.15556  1.0000
  S   S306      1.0  0.37211  0.68927  0.20330  1.0000
  Fe  Fe154     1.0  0.37652  0.65512  0.15042  1.0000
  S   S307      1.0  0.35886  0.66456  0.12756  1.0000
  Fe  Fe155     1.0  0.41566  0.64679  0.16084  1.0000
  S   S308      1.0  0.44661  0.64536  0.14863  1.0000
  S   S309      1.0  0.36255  0.64990  0.18045  1.0000
  S   S310      1.0  0.40453  0.64018  0.19159  1.0000
  S   S311      1.0  0.38436  0.78650  0.24228  1.0000
  Fe  Fe156     1.0  0.42203  0.77867  0.27382  1.0000
  S   S312      1.0  0.42946  0.78126  0.24264  1.0000
  S   S313      1.0  0.35656  0.49018  0.20733  1.0000
  Fe  Fe157     1.0  0.40488  0.80514  0.24193  1.0000
  S   S314      1.0  0.40429  0.83193  0.22035  1.0000
  Fe  Fe158     1.0  0.40840  0.76234  0.24558  1.0000
  S   S315      1.0  0.42010  0.73750  0.23017  1.0000
  S   S316      1.0  0.39932  0.80409  0.27296  1.0000
  S   S317      1.0  0.40220  0.75848  0.27705  1.0000
  C   C869      1.0  0.47166  0.72261  0.23037  1.0000
  C   C870      1.0  0.38568  0.70172  0.21175  1.0000
  C   C871      1.0  0.37666  0.71795  0.21913  1.0000
  C   C872      1.0  0.38691  0.72875  0.22534  1.0000
  C   C873      1.0  0.40634  0.72334  0.22435  1.0000
  C   C874      1.0  0.41533  0.70683  0.21741  1.0000
  C   C875      1.0  0.40509  0.69610  0.21104  1.0000
  H   H866      1.0  0.36164  0.72232  0.21984  1.0000
  H   H867      1.0  0.37981  0.74139  0.23065  1.0000
  H   H868      1.0  0.43035  0.70248  0.21663  1.0000
  H   H869      1.0  0.41219  0.68360  0.20549  1.0000
  H   H870      1.0  0.40871  0.90471  0.24148  1.0000
  C   C876      1.0  0.25163  0.68865  0.07447  1.0000
  C   C877      1.0  0.25192  0.70775  0.07332  1.0000
  H   H871      1.0  0.26362  0.67829  0.07787  1.0000
  H   H872      1.0  0.26425  0.71198  0.07571  1.0000
  C   C878      1.0  0.31100  0.64012  0.99554  1.0000
  C   C879      1.0  0.30110  0.62686  0.99323  1.0000
  Fe  Fe159     1.0  0.34242  0.96001  0.18881  1.0000
  S   S318      1.0  0.44267  0.76932  0.29395  1.0000
  H   H873      1.0  0.29471  0.61797  0.00536  1.0000
  C   C880      1.0  0.31932  0.65148  0.97964  1.0000
  C   C881      1.0  0.32669  0.62392  0.11432  1.0000
  C   C882      1.0  0.34110  0.61712  0.12493  1.0000
  C   C883      1.0  0.35069  0.62952  0.12957  1.0000
  C   C884      1.0  0.34599  0.64879  0.12350  1.0000
  C   C885      1.0  0.33140  0.65560  0.11310  1.0000
  C   C886      1.0  0.32178  0.64320  0.10849  1.0000
  H   H874      1.0  0.34498  0.60220  0.12946  1.0000
  H   H875      1.0  0.36200  0.62417  0.13746  1.0000
  H   H876      1.0  0.32769  0.67052  0.10842  1.0000
  H   H877      1.0  0.31063  0.64857  0.10038  1.0000
  C   C887      1.0  0.23395  0.52967  0.06789  1.0000
  C   C888      1.0  0.45424  0.66213  0.17549  1.0000
  C   C889      1.0  0.46084  0.65569  0.15848  1.0000
  H   H878      1.0  0.45951  0.71755  0.22854  1.0000
  H   H879      1.0  0.33057  0.86911  0.27996  1.0000
  C   C890      1.0  0.33567  0.86266  0.26759  1.0000
  H   H880      1.0  0.44006  0.66113  0.18272  1.0000
  H   H881      1.0  0.38954  0.92830  0.26059  1.0000
  C   C891      1.0  0.32282  0.58843  0.19394  1.0000
  H   H882      1.0  0.29242  0.61427  0.97347  1.0000
  C   C892      1.0  0.46502  0.79677  0.28084  1.0000
  Fe  Fe160     1.0  0.32791  0.48251  0.21892  1.0000
  H   H883      1.0  0.25499  0.86403  0.05354  1.0000
  C   C893      1.0  0.37761  0.88949  0.23630  1.0000
  C   C894      1.0  0.38241  0.88738  0.21751  1.0000
  C   C895      1.0  0.39095  0.86973  0.21278  1.0000
  C   C896      1.0  0.39447  0.85406  0.22678  1.0000
  C   C897      1.0  0.38971  0.85626  0.24553  1.0000
  C   C898      1.0  0.38150  0.87393  0.25024  1.0000
  H   H884      1.0  0.37952  0.89931  0.20666  1.0000
  H   H885      1.0  0.39464  0.86815  0.19823  1.0000
  H   H886      1.0  0.39244  0.84437  0.25642  1.0000
  H   H887      1.0  0.37789  0.87547  0.26481  1.0000
  C   C899      1.0  0.28180  0.94587  0.14568  1.0000
  C   C900      1.0  0.28426  0.94280  0.16446  1.0000
  C   C901      1.0  0.30023  0.94702  0.16929  1.0000
  H   H888      1.0  0.27374  0.93713  0.17542  1.0000
  H   H889      1.0  0.35260  0.82021  0.25467  1.0000
  C   C902      1.0  0.26012  0.55177  0.07008  1.0000
  C   C903      1.0  0.28454  0.48064  0.27800  1.0000
  H   H890      1.0  0.46235  0.73755  0.17676  1.0000
  C   C904      1.0  0.30512  0.96090  0.27365  1.0000
  H   H891      1.0  0.41363  0.58967  0.16878  1.0000
  C   C905      1.0  0.30681  0.59246  0.16242  1.0000
  C   C906      1.0  0.35803  0.55282  0.17603  1.0000
  C   C907      1.0  0.36120  0.56996  0.16456  1.0000
  C   C908      1.0  0.36812  0.58321  0.17122  1.0000
  C   C909      1.0  0.37181  0.57947  0.18949  1.0000
  C   C910      1.0  0.36885  0.56226  0.20086  1.0000
  C   C911      1.0  0.36203  0.54899  0.19417  1.0000
  H   H892      1.0  0.35809  0.57308  0.15054  1.0000
  H   H893      1.0  0.37033  0.59638  0.16231  1.0000
  H   H894      1.0  0.37164  0.55922  0.21502  1.0000
  H   H895      1.0  0.35959  0.53590  0.20319  1.0000
  H   H896      1.0  0.42621  0.60003  0.23097  1.0000
  H   H897      1.0  0.30072  0.59425  0.14994  1.0000
  H   H898      1.0  0.29455  0.47586  0.28745  1.0000
  C   C912      1.0  0.42174  0.92873  0.19805  1.0000
  C   C913      1.0  0.27805  0.49093  0.24653  1.0000
  C   C914      1.0  0.25868  0.49269  0.25373  1.0000
  H   H899      1.0  0.34059  0.83445  0.28300  1.0000
  H   H900      1.0  0.24870  0.49723  0.24422  1.0000
  H   H901      1.0  0.45548  0.74025  0.24974  1.0000
  C   C915      1.0  0.31596  0.57340  0.19072  1.0000
  H   H902      1.0  0.45094  0.61898  0.21464  1.0000
  C   C916      1.0  0.26513  0.48212  0.28519  1.0000
  H   H903      1.0  0.30194  0.92051  0.11356  1.0000
  H   H904      1.0  0.47884  0.74734  0.27258  1.0000
  C   C917      1.0  0.43179  0.60015  0.21621  1.0000
  N   N73       1.0  0.35273  0.62847  0.06828  1.0000
  C   C918      1.0  0.34220  0.63682  0.05470  1.0000
  C   C919      1.0  0.36055  0.63906  0.07657  1.0000
  C   C920      1.0  0.33866  0.65632  0.04961  1.0000
  C   C921      1.0  0.35730  0.65861  0.07182  1.0000
  C   C922      1.0  0.34617  0.66726  0.05834  1.0000
  C   C923      1.0  0.35635  0.60800  0.07331  1.0000
  H   H905      1.0  0.33634  0.62843  0.04777  1.0000
  H   H906      1.0  0.36893  0.63250  0.08733  1.0000
  H   H907      1.0  0.33006  0.66282  0.03899  1.0000
  H   H908      1.0  0.36300  0.66695  0.07896  1.0000
  H   H909      1.0  0.34333  0.68242  0.05470  1.0000
  H   H910      1.0  0.35901  0.60350  0.08792  1.0000
  H   H911      1.0  0.34390  0.60209  0.07271  1.0000
  H   H912      1.0  0.36865  0.60204  0.06357  1.0000
  C   C924      1.0  0.34819  0.83529  0.25318  1.0000
  H   H913      1.0  0.41209  0.93320  0.26230  1.0000
  C   C925      1.0  0.32409  0.52534  0.13250  1.0000
  C   C926      1.0  0.33669  0.87375  0.24985  1.0000
  H   H914      1.0  0.45433  0.80429  0.27275  1.0000
  C   C927      1.0  0.41833  0.91354  0.21220  1.0000
  C   C928      1.0  0.23626  0.72137  0.06948  1.0000
  C   C929      1.0  0.44451  0.70857  0.15945  1.0000
  H   H915      1.0  0.42060  0.89953  0.20895  1.0000
  H   H916      1.0  0.32233  0.96271  0.12564  1.0000
  N   N74       1.0  0.32198  0.60494  0.18151  1.0000
  H   H917      1.0  0.34114  0.61532  0.19298  1.0000
  S   S319      1.0  0.23696  0.74507  0.06921  1.0000
  N   N75       1.0  0.34942  0.84629  0.23584  1.0000
  H   H918      1.0  0.33235  0.56632  0.10772  1.0000
  C   C930      1.0  0.46270  0.77954  0.29227  1.0000
  H   H919      1.0  0.36421  0.84687  0.20781  1.0000
  H   H920      1.0  0.32090  0.56688  0.13163  1.0000
  H   H921      1.0  0.29390  0.95584  0.11725  1.0000
  H   H922      1.0  0.24140  0.50217  0.14364  1.0000
  C   C931      1.0  0.30814  0.57537  0.17473  1.0000
  H   H923      1.0  0.30180  0.91424  0.08191  1.0000
  H   H924      1.0  0.32939  0.58659  0.20613  1.0000
  C   C932      1.0  0.44561  0.61079  0.20707  1.0000
  C   C933      1.0  0.40053  0.93705  0.25404  1.0000
  S   S320      1.0  0.31552  0.47963  0.24999  1.0000
  H   H925      1.0  0.25987  0.68145  0.01183  1.0000
  C   C934      1.0  0.42488  0.58995  0.20609  1.0000
  Fe  Fe161     1.0  0.23981  0.92280  0.08483  1.0000
  H   H926      1.0  0.28551  0.53416  0.10236  1.0000
  H   H927      1.0  0.36615  0.82432  0.22199  1.0000
  S   S321      1.0  0.35714  0.96455  0.23516  1.0000
  H   H928      1.0  0.28289  0.49408  0.23160  1.0000
  H   H929      1.0  0.33483  0.52277  0.14114  1.0000
  H   H930      1.0  0.26234  0.68391  0.03480  1.0000
  C   C935      1.0  0.32965  0.55770  0.12188  1.0000
  H   H931      1.0  0.31738  0.56004  0.20017  1.0000
  H   H932      1.0  0.25009  0.87444  0.10796  1.0000
  C   C936      1.0  0.30612  0.54573  0.11097  1.0000
  H   H933      1.0  0.25552  0.50601  0.07413  1.0000
  C   C937      1.0  0.25015  0.71950  0.02479  1.0000
  H   H934      1.0  0.30185  0.94458  0.18379  1.0000
  H   H935      1.0  0.34420  0.83479  0.21397  1.0000
  C   C938      1.0  0.31464  0.51081  0.13267  1.0000
  H   H936      1.0  0.39374  0.95183  0.25470  1.0000
  S   S322      1.0  0.23428  0.65910  0.07430  1.0000
  C   C939      1.0  0.25171  0.52111  0.07196  1.0000
  C   C940      1.0  0.29773  0.95184  0.29145  1.0000
  H   H937      1.0  0.31805  0.49725  0.14130  1.0000
  C   C941      1.0  0.32939  0.62051  0.18495  1.0000
  C   C942      1.0  0.41168  0.94915  0.22101  1.0000
  N   N76       1.0  0.40789  0.93425  0.23470  1.0000
  C   C943      1.0  0.25214  0.68588  0.02518  1.0000
  H   H938      1.0  0.26958  0.86408  0.09235  1.0000
  H   H939      1.0  0.42669  0.92666  0.18367  1.0000
  C   C944      1.0  0.44481  0.60107  0.17822  1.0000
  Fe  Fe162     1.0  0.32219  0.47734  0.18101  1.0000
  N   N77       1.0  0.24249  0.70539  0.02168  1.0000
  C   C945      1.0  0.41064  0.71579  0.16376  1.0000
  C   C946      1.0  0.31416  0.95414  0.15535  1.0000
  N   N78       1.0  0.31994  0.54246  0.12156  1.0000
  H   H940      1.0  0.23855  0.57547  0.06397  1.0000
  C   C947      1.0  0.29637  0.53150  0.11086  1.0000
  H   H941      1.0  0.42104  0.95862  0.19161  1.0000
  C   C948      1.0  0.34137  0.84329  0.26930  1.0000
  C   C949      1.0  0.34356  0.86526  0.23402  1.0000
  H   H942      1.0  0.26324  0.47206  0.15785  1.0000
  N   N79       1.0  0.43154  0.59037  0.18736  1.0000
  H   H943      1.0  0.42807  0.74124  0.18695  1.0000
  C   C950      1.0  0.25214  0.48781  0.27300  1.0000
  H   H944      1.0  0.34344  0.55223  0.12655  1.0000
  C   C951      1.0  0.30074  0.51390  0.12170  1.0000
  H   H945      1.0  0.30257  0.55937  0.10244  1.0000
  H   H946      1.0  0.47458  0.71888  0.16446  1.0000
  H   H947      1.0  0.29339  0.50268  0.12164  1.0000
  H   H948      1.0  0.26752  0.85552  0.11703  1.0000
  H   H949      1.0  0.45756  0.70028  0.15369  1.0000
  C   C952      1.0  0.42394  0.57995  0.17678  1.0000
  H   H950      1.0  0.40911  0.96316  0.22428  1.0000
  C   C953      1.0  0.46604  0.66990  0.18320  1.0000
  H   H951      1.0  0.24190  0.67636  0.03203  1.0000
  C   C954      1.0  0.41857  0.94664  0.20248  1.0000
  C   C955      1.0  0.23376  0.88082  0.07079  1.0000
  H   H952      1.0  0.31255  0.62050  0.15658  1.0000
  H   H953      1.0  0.30336  0.56357  0.17183  1.0000
  H   H954      1.0  0.26301  0.71639  0.03053  1.0000
  H   H955      1.0  0.41649  0.56899  0.18617  1.0000
  H   H956      1.0  0.46426  0.71348  0.18872  1.0000
  H   H957      1.0  0.33514  0.62900  0.17156  1.0000
  H   H958      1.0  0.39731  0.71316  0.16185  1.0000
  N   N80       1.0  0.27599  0.88226  0.10822  1.0000
  C   C956      1.0  0.27582  0.88580  0.12563  1.0000
  C   C957      1.0  0.28525  0.89226  0.09265  1.0000
  C   C958      1.0  0.28544  0.89934  0.12780  1.0000
  C   C959      1.0  0.29481  0.90608  0.09431  1.0000
  C   C960      1.0  0.29489  0.90961  0.11202  1.0000
  C   C961      1.0  0.26532  0.86835  0.10636  1.0000
  H   H959      1.0  0.26801  0.87831  0.13793  1.0000
  H   H960      1.0  0.28504  0.88982  0.07879  1.0000
  H   H961      1.0  0.28509  0.90235  0.14158  1.0000
  H   H962      1.0  0.42757  0.69493  0.14795  1.0000
  S   S323      1.0  0.33510  0.95885  0.16052  1.0000
  C   C962      1.0  0.24078  0.86551  0.06132  1.0000
  C   C963      1.0  0.29985  0.62477  0.97514  1.0000
  C   C964      1.0  0.41090  0.72910  0.17445  1.0000
  C   C965      1.0  0.35621  0.83765  0.21907  1.0000
  C   C966      1.0  0.41155  0.91656  0.23058  1.0000
  H   H963      1.0  0.33267  0.88888  0.24835  1.0000
  H   H964      1.0  0.39780  0.73673  0.18097  1.0000
  C   C967      1.0  0.29558  0.95323  0.13174  1.0000
  C   C968      1.0  0.46230  0.72296  0.17528  1.0000
  H   H965      1.0  0.43535  0.57291  0.16693  1.0000
  H   H966      1.0  0.46081  0.67490  0.19634  1.0000
  S   S324      1.0  0.23281  0.91882  0.11609  1.0000
  H   H967      1.0  0.31812  0.62967  0.19298  1.0000
  S   S325      1.0  0.37202  0.94972  0.19497  1.0000
  H   H968      1.0  0.24697  0.74929  0.02425  1.0000
  H   H969      1.0  0.41392  0.58194  0.21326  1.0000
  C   C969      1.0  0.42755  0.70552  0.15609  1.0000
  N   N81       1.0  0.44461  0.72134  0.17031  1.0000
  C   C970      1.0  0.42810  0.73159  0.17776  1.0000
  C   C971      1.0  0.45223  0.61119  0.18798  1.0000
  C   C972      1.0  0.24119  0.73817  0.02118  1.0000
  H   H970      1.0  0.44958  0.60207  0.16323  1.0000
  C   C973      1.0  0.24228  0.56036  0.06620  1.0000
  C   C974      1.0  0.29109  0.48453  0.25861  1.0000
  H   H971      1.0  0.23510  0.84057  0.05414  1.0000
  H   H972      1.0  0.47010  0.76649  0.25546  1.0000
  C   C975      1.0  0.47931  0.65702  0.14931  1.0000
  S   S326      1.0  0.23103  0.47358  0.10326  1.0000
  S   S327      1.0  0.35090  0.79286  0.28992  1.0000
  H   H973      1.0  0.46277  0.61963  0.18065  1.0000
  C   C976      1.0  0.46946  0.73548  0.24237  1.0000
  C   C977      1.0  0.31170  0.95717  0.13655  1.0000
  H   H974      1.0  0.23577  0.52705  0.11606  1.0000
  H   H975      1.0  0.23212  0.68741  0.11785  1.0000
  H   H976      1.0  0.23331  0.72121  0.11512  1.0000
  C   C978      1.0  0.34994  0.78780  0.35620  1.0000
  H   H977      1.0  0.24780  0.91551  0.38893  1.0000
  C   C979      1.0  0.34933  0.80610  0.61589  1.0000
  S   S328      1.0  0.27064  0.94677  0.32250  1.0000
  C   C980      1.0  0.26415  0.80789  0.50033  1.0000
  S   S329      1.0  0.47030  0.77731  0.59565  1.0000
  H   H978      1.0  0.27497  0.80139  0.50926  1.0000
  Fe  Fe163     1.0  0.45601  0.75312  0.59646  1.0000
  S   S330      1.0  0.43275  0.76263  0.57874  1.0000
  C   C981      1.0  0.27510  0.69720  0.57420  1.0000
  H   H979      1.0  0.36353  0.80090  0.32963  1.0000
  N   N82       1.0  0.25987  0.88655  0.39391  1.0000
  Fe  Fe164     1.0  0.26019  0.80211  0.38731  1.0000
  S   S331      1.0  0.28559  0.78746  0.40033  1.0000
  H   H980      1.0  0.29881  0.71828  0.35832  1.0000
  H   H981      1.0  0.33795  0.79908  0.35720  1.0000
  S   S332      1.0  0.26850  0.74858  0.40689  1.0000
  C   C982      1.0  0.27214  0.87209  0.38685  1.0000
  Fe  Fe165     1.0  0.26512  0.77248  0.42232  1.0000
  S   S333      1.0  0.26165  0.76511  0.45405  1.0000
  Fe  Fe166     1.0  0.28653  0.76506  0.38369  1.0000
  S   S334      1.0  0.31286  0.74995  0.36743  1.0000
  Fe  Fe167     1.0  0.47175  0.76621  0.62591  1.0000
  S   S335      1.0  0.26246  0.78033  0.36950  1.0000
  Fe  Fe168     1.0  0.31180  0.77451  0.53256  1.0000
  S   S336      1.0  0.31371  0.74599  0.55073  1.0000
  S   S337      1.0  0.31767  0.78048  0.50087  1.0000
  Fe  Fe169     1.0  0.30092  0.79507  0.56592  1.0000
  S   S338      1.0  0.30115  0.76826  0.58652  1.0000
  S   S339      1.0  0.29554  0.82444  0.57262  1.0000
  Fe  Fe170     1.0  0.32826  0.75798  0.56831  1.0000
  S   S340      1.0  0.35181  0.74197  0.58413  1.0000
  Fe  Fe171     1.0  0.28660  0.75874  0.56721  1.0000
  S   S341      1.0  0.26188  0.74336  0.57911  1.0000
  S   S342      1.0  0.32872  0.78537  0.54860  1.0000
  S   S343      1.0  0.28398  0.78662  0.54813  1.0000
  C   C983      1.0  0.23305  0.67488  0.57810  1.0000
  C   C984      1.0  0.24692  0.73846  0.56566  1.0000
  N   N83       1.0  0.37906  0.77408  0.33888  1.0000
  H   H982      1.0  0.27149  0.80782  0.48562  1.0000
  H   H983      1.0  0.30338  0.86430  0.61458  1.0000
  C   C985      1.0  0.24329  0.86788  0.36005  1.0000
  C   C986      1.0  0.30033  0.81388  0.60958  1.0000
  C   C987      1.0  0.29835  0.82850  0.59443  1.0000
  H   H984      1.0  0.27350  0.85803  0.39495  1.0000
  H   H985      1.0  0.29959  0.79983  0.60824  1.0000
  C   C988      1.0  0.23908  0.69721  0.39136  1.0000
  C   C989      1.0  0.26432  0.69824  0.35067  1.0000
  H   H986      1.0  0.36103  0.75500  0.31063  1.0000
  H   H987      1.0  0.25677  0.88690  0.42289  1.0000
  H   H988      1.0  0.38734  0.77977  0.30945  1.0000
  C   C990      1.0  0.35053  0.77179  0.36999  1.0000
  C   C991      1.0  0.27880  0.95696  0.29934  1.0000
  H   H989      1.0  0.26027  0.47846  0.30006  1.0000
  H   H990      1.0  0.25183  0.68731  0.39333  1.0000
  H   H991      1.0  0.24950  0.72038  0.39669  1.0000
  C   C992      1.0  0.27857  0.76786  0.46642  1.0000
  C   C993      1.0  0.29290  0.77807  0.45779  1.0000
  C   C994      1.0  0.30512  0.78141  0.46845  1.0000
  C   C995      1.0  0.30302  0.77469  0.48779  1.0000
  C   C996      1.0  0.28887  0.76421  0.49638  1.0000
  C   C997      1.0  0.27675  0.76074  0.48570  1.0000
  H   H992      1.0  0.29439  0.78364  0.44298  1.0000
  H   H993      1.0  0.31607  0.78950  0.46174  1.0000
  H   H994      1.0  0.28721  0.75893  0.51125  1.0000
  H   H995      1.0  0.26571  0.75280  0.49246  1.0000
  C   C998      1.0  0.34017  0.78009  0.31087  1.0000
  C   C999      1.0  0.34815  0.76189  0.31817  1.0000
  C   C1000     1.0  0.33940  0.75257  0.33531  1.0000
  C   C1001     1.0  0.32274  0.76144  0.34531  1.0000
  C   C1002     1.0  0.31471  0.77956  0.33790  1.0000
  C   C1003     1.0  0.32337  0.78880  0.32073  1.0000
  C   C1004     1.0  0.28546  0.71703  0.35516  1.0000
  H   H996      1.0  0.34568  0.73854  0.34096  1.0000
  H   H997      1.0  0.30193  0.78657  0.34548  1.0000
  C   C1005     1.0  0.36562  0.75702  0.36819  1.0000
  C   C1006     1.0  0.25778  0.90414  0.38343  1.0000
  H   H998      1.0  0.36597  0.74440  0.37869  1.0000
  C   C1007     1.0  0.41017  0.75676  0.58091  1.0000
  C   C1008     1.0  0.39846  0.76686  0.56817  1.0000
  C   C1009     1.0  0.38059  0.76253  0.56894  1.0000
  C   C1010     1.0  0.37426  0.74794  0.58244  1.0000
  C   C1011     1.0  0.38595  0.73785  0.59522  1.0000
  C   C1012     1.0  0.40378  0.74228  0.59454  1.0000
  H   H999      1.0  0.40329  0.77803  0.55751  1.0000
  H   H1000     1.0  0.37188  0.77029  0.55889  1.0000
  H   H1001     1.0  0.38121  0.72650  0.60569  1.0000
  H   H1002     1.0  0.41265  0.73433  0.60438  1.0000
  H   H1003     1.0  0.34025  0.76420  0.61446  1.0000
  H   H1004     1.0  0.40330  0.76172  0.32098  1.0000
  Fe  Fe172     1.0  0.24430  0.76554  0.39392  1.0000
  H   H1005     1.0  0.27408  0.70018  0.52814  1.0000
  C   C1013     1.0  0.25473  0.68784  0.55119  1.0000
  S   S344      1.0  0.45549  0.74327  0.62740  1.0000
  C   C1014     1.0  0.46933  0.74361  0.54477  1.0000
  C   C1015     1.0  0.23199  0.88519  0.36287  1.0000
  H   H1006     1.0  0.27520  0.74656  0.35195  1.0000
  H   H1007     1.0  0.25890  0.82259  0.50243  1.0000
  C   C1016     1.0  0.24923  0.88339  0.41300  1.0000
  C   C1017     1.0  0.28155  0.69952  0.35475  1.0000
  H   H1008     1.0  0.29223  0.70866  0.54889  1.0000
  N   N84       1.0  0.34738  0.79156  0.60815  1.0000
  H   H1009     1.0  0.24307  0.75448  0.32925  1.0000
  C   C1018     1.0  0.23114  0.73036  0.57495  1.0000
  H   H1010     1.0  0.29756  0.85814  0.58479  1.0000
  C   C1019     1.0  0.30241  0.85027  0.61331  1.0000
  C   C1020     1.0  0.24130  0.79332  0.49111  1.0000
  C   C1021     1.0  0.28227  0.87495  0.36860  1.0000
  C   C1022     1.0  0.27996  0.89278  0.35769  1.0000
  C   C1023     1.0  0.28053  0.70127  0.55484  1.0000
  H   H1011     1.0  0.34900  0.83586  0.61195  1.0000
  H   H1012     1.0  0.26292  0.74776  0.53878  1.0000
  H   H1013     1.0  0.25503  0.68587  0.59676  1.0000
  C   C1024     1.0  0.27196  0.73304  0.35165  1.0000
  H   H1014     1.0  0.34402  0.84145  0.57895  1.0000
  Fe  Fe173     1.0  0.23973  0.95393  0.33440  1.0000
  H   H1015     1.0  0.33899  0.77058  0.38173  1.0000
  C   C1025     1.0  0.29914  0.84675  0.59645  1.0000
  C   C1026     1.0  0.24267  0.85200  0.37417  1.0000
  H   H1016     1.0  0.24705  0.86860  0.41736  1.0000
  N   N85       1.0  0.24962  0.68375  0.57021  1.0000
  C   C1027     1.0  0.30333  0.81744  0.62650  1.0000
  H   H1017     1.0  0.24677  0.79523  0.53444  1.0000
  C   C1028     1.0  0.34500  0.79446  0.58993  1.0000
  H   H1018     1.0  0.29117  0.86320  0.36276  1.0000
  H   H1019     1.0  0.45589  0.73969  0.55178  1.0000
  C   C1029     1.0  0.23781  0.71596  0.39323  1.0000
  H   H1020     1.0  0.29177  0.68695  0.35775  1.0000
  H   H1021     1.0  0.26087  0.68466  0.35080  1.0000
  H   H1022     1.0  0.24188  0.73945  0.52084  1.0000
  C   C1030     1.0  0.26774  0.90749  0.36517  1.0000
  C   C1031     1.0  0.34833  0.82423  0.60548  1.0000
  H   H1023     1.0  0.34351  0.78293  0.58380  1.0000
  H   H1024     1.0  0.23297  0.59033  0.44012  1.0000
  H   H1025     1.0  0.28725  0.89518  0.34332  1.0000
  C   C1032     1.0  0.25110  0.71454  0.34730  1.0000
  C   C1033     1.0  0.34396  0.81240  0.57910  1.0000
  S   S345      1.0  0.23962  0.78880  0.41050  1.0000
  H   H1026     1.0  0.23495  0.89218  0.41382  1.0000
  C   C1034     1.0  0.25947  0.68845  0.58171  1.0000
  H   H1027     1.0  0.46050  0.77241  0.54801  1.0000
  C   C1035     1.0  0.34553  0.82737  0.58699  1.0000
  H   H1028     1.0  0.24187  0.75928  0.35243  1.0000
  H   H1029     1.0  0.39150  0.74682  0.35111  1.0000
  H   H1030     1.0  0.47503  0.75663  0.31155  1.0000
  H   H1031     1.0  0.31707  0.80286  0.31516  1.0000
  H   H1032     1.0  0.34127  0.81478  0.56490  1.0000
  C   C1036     1.0  0.36441  0.78871  0.34064  1.0000
  H   H1033     1.0  0.23753  0.71333  0.34471  1.0000
  C   C1037     1.0  0.37992  0.75844  0.35249  1.0000
  N   N86       1.0  0.25490  0.73161  0.34812  1.0000
  H   H1034     1.0  0.24726  0.79744  0.47651  1.0000
  C   C1038     1.0  0.27032  0.69656  0.54322  1.0000
  C   C1039     1.0  0.25072  0.74172  0.54609  1.0000
  H   H1035     1.0  0.40258  0.78569  0.32266  1.0000
  S   S346      1.0  0.26012  0.83191  0.37131  1.0000
  C   C1040     1.0  0.39380  0.77536  0.32224  1.0000
  H   H1036     1.0  0.26559  0.92129  0.35667  1.0000
  C   C1041     1.0  0.24092  0.74854  0.34440  1.0000
  H   H1037     1.0  0.28247  0.70158  0.58331  1.0000
  H   H1038     1.0  0.24648  0.68473  0.54210  1.0000
  H   H1039     1.0  0.25309  0.86697  0.34706  1.0000
  C   C1042     1.0  0.47202  0.76211  0.54267  1.0000
  H   H1040     1.0  0.30679  0.94100  0.29924  1.0000
  S   S347      1.0  0.23292  0.95225  0.36561  1.0000
  C   C1043     1.0  0.34859  0.77263  0.61920  1.0000
  N   N87       1.0  0.24857  0.79735  0.50502  1.0000
  C   C1044     1.0  0.23879  0.73695  0.53597  1.0000
  H   H1041     1.0  0.36347  0.76541  0.61759  1.0000
  C   C1045     1.0  0.24106  0.79201  0.52339  1.0000
  H   H1042     1.0  0.23318  0.89740  0.35212  1.0000
  C   C1046     1.0  0.47670  0.76996  0.30267  1.0000
  H   H1043     1.0  0.23412  0.74177  0.45333  1.0000
  H   H1044     1.0  0.23396  0.66223  0.57191  1.0000
  H   H1045     1.0  0.23159  0.67024  0.59350  1.0000
  C   C1047     1.0  0.30466  0.83557  0.62834  1.0000
  S   S348      1.0  0.30918  0.93462  0.62798  1.0000
  C   C1048     1.0  0.42059  0.56392  0.73092  1.0000
  H   H1046     1.0  0.24422  0.51445  0.71296  1.0000
  Fe  Fe174     1.0  0.46018  0.72925  0.86973  1.0000
  C   C1049     1.0  0.40112  0.68523  0.91892  1.0000
  S   S349      1.0  0.42823  0.73449  0.87730  1.0000
  H   H1047     1.0  0.25453  0.90357  0.68198  1.0000
  C   C1050     1.0  0.26210  0.48950  0.72439  1.0000
  C   C1051     1.0  0.31405  0.58871  0.87627  1.0000
  Fe  Fe175     1.0  0.45233  0.60018  0.76241  1.0000
  S   S350      1.0  0.43058  0.58120  0.77432  1.0000
  C   C1052     1.0  0.47741  0.81353  0.78502  1.0000
  S   S351      1.0  0.44433  0.63122  0.75717  1.0000
  H   H1048     1.0  0.44997  0.88856  0.66233  1.0000
  C   C1053     1.0  0.24638  0.55654  0.74443  1.0000
  S   S352      1.0  0.46454  0.84703  0.71871  1.0000
  Fe  Fe176     1.0  0.46058  0.87828  0.71311  1.0000
  S   S353      1.0  0.43420  0.89713  0.70441  1.0000
  H   H1049     1.0  0.26489  0.53569  0.71545  1.0000
  S   S354      1.0  0.46497  0.83106  0.76981  1.0000
  C   C1054     1.0  0.27191  0.63805  0.75109  1.0000
  C   C1055     1.0  0.28578  0.94950  0.68879  1.0000
  Fe  Fe177     1.0  0.30924  0.54084  0.77670  1.0000
  S   S355      1.0  0.31687  0.55622  0.74742  1.0000
  S   S356      1.0  0.31487  0.50908  0.78100  1.0000
  Fe  Fe178     1.0  0.29480  0.57693  0.79252  1.0000
  S   S357      1.0  0.30042  0.59453  0.76422  1.0000
  S   S358      1.0  0.28103  0.59239  0.81669  1.0000
  Fe  Fe179     1.0  0.28850  0.57396  0.75376  1.0000
  S   S359      1.0  0.26936  0.58346  0.73198  1.0000
  Fe  Fe180     1.0  0.32823  0.57520  0.76067  1.0000
  S   S360      1.0  0.35297  0.59012  0.74679  1.0000
  S   S361      1.0  0.28036  0.55789  0.78243  1.0000
  S   S362      1.0  0.32314  0.55831  0.78960  1.0000
  Fe  Fe181     1.0  0.34541  0.67512  0.88477  1.0000
  S   S363      1.0  0.34122  0.64522  0.89012  1.0000
  S   S364      1.0  0.37712  0.67484  0.87941  1.0000
  Fe  Fe182     1.0  0.30309  0.68862  0.88487  1.0000
  S   S365      1.0  0.29656  0.65955  0.88929  1.0000
  S   S366      1.0  0.28070  0.71498  0.88438  1.0000
  Fe  Fe183     1.0  0.31549  0.65315  0.91072  1.0000
  S   S367      1.0  0.30676  0.63258  0.93676  1.0000
  Fe  Fe184     1.0  0.32290  0.65384  0.86827  1.0000
  S   S368      1.0  0.33201  0.63442  0.84684  1.0000
  S   S369      1.0  0.32087  0.68244  0.90758  1.0000
  S   S370      1.0  0.32812  0.68352  0.86182  1.0000
  Fe  Fe185     1.0  0.34128  0.88055  0.67305  1.0000
  S   S371      1.0  0.33727  0.88241  0.64337  1.0000
  S   S372      1.0  0.36938  0.86630  0.68194  1.0000
  Fe  Fe186     1.0  0.29840  0.89030  0.68679  1.0000
  S   S373      1.0  0.29154  0.89219  0.65849  1.0000
  S   S374      1.0  0.27619  0.89427  0.71249  1.0000
  Fe  Fe187     1.0  0.31355  0.86649  0.65578  1.0000
  H   H1050     1.0  0.45487  0.67319  0.90388  1.0000
  Fe  Fe188     1.0  0.31566  0.90812  0.64874  1.0000
  S   S375      1.0  0.47476  0.60037  0.77879  1.0000
  S   S376      1.0  0.31853  0.86332  0.68516  1.0000
  S   S377      1.0  0.32145  0.90757  0.67744  1.0000
  C   C1056     1.0  0.30821  0.63608  0.95924  1.0000
  C   C1057     1.0  0.40323  0.56564  0.72555  1.0000
  H   H1051     1.0  0.28759  0.54042  0.73268  1.0000
  N   N88       1.0  0.41223  0.69794  0.91866  1.0000
  C   C1058     1.0  0.24235  0.73395  0.92960  1.0000
  H   H1052     1.0  0.38594  0.68872  0.92254  1.0000
  C   C1059     1.0  0.46434  0.68905  0.65991  1.0000
  H   H1053     1.0  0.25864  0.70746  0.92367  1.0000
  H   H1054     1.0  0.32739  0.58251  0.86879  1.0000
  C   C1060     1.0  0.23978  0.85526  0.70470  1.0000
  C   C1061     1.0  0.25707  0.71566  0.88233  1.0000
  H   H1055     1.0  0.26050  0.68681  0.87947  1.0000
  C   C1062     1.0  0.25122  0.57169  0.73077  1.0000
  H   H1056     1.0  0.32991  0.94434  0.65286  1.0000
  H   H1057     1.0  0.26711  0.95312  0.64987  1.0000
  H   H1058     1.0  0.41192  0.72712  0.91669  1.0000
  H   H1059     1.0  0.28449  0.84675  0.68258  1.0000
  C   C1063     1.0  0.29763  0.49609  0.78005  1.0000
  H   H1060     1.0  0.33984  0.60790  0.88255  1.0000
  C   C1064     1.0  0.26613  0.49412  0.77658  1.0000
  C   C1065     1.0  0.27932  0.50482  0.77784  1.0000
  C   C1066     1.0  0.26219  0.62752  0.78410  1.0000
  H   H1061     1.0  0.25205  0.50105  0.77481  1.0000
  H   H1062     1.0  0.27532  0.51980  0.77709  1.0000
  C   C1067     1.0  0.29500  0.60530  0.82383  1.0000
  C   C1068     1.0  0.28655  0.61823  0.83586  1.0000
  C   C1069     1.0  0.29762  0.62765  0.84278  1.0000
  C   C1070     1.0  0.31721  0.62415  0.83768  1.0000
  C   C1071     1.0  0.32556  0.61156  0.82533  1.0000
  C   C1072     1.0  0.31452  0.60223  0.81839  1.0000
  H   H1063     1.0  0.27143  0.62074  0.84008  1.0000
  H   H1064     1.0  0.29105  0.63739  0.85223  1.0000
  H   H1065     1.0  0.34069  0.60882  0.82124  1.0000
  H   H1066     1.0  0.32119  0.59238  0.80908  1.0000
  H   H1067     1.0  0.42353  0.83327  0.63290  1.0000
  C   C1073     1.0  0.29738  0.58663  0.87148  1.0000
  H   H1068     1.0  0.24523  0.58927  0.70490  1.0000
  H   H1069     1.0  0.32437  0.65830  0.94941  1.0000
  C   C1074     1.0  0.41621  0.88842  0.69828  1.0000
  C   C1075     1.0  0.41685  0.86922  0.69959  1.0000
  C   C1076     1.0  0.40220  0.86276  0.69481  1.0000
  C   C1077     1.0  0.38678  0.87538  0.68863  1.0000
  C   C1078     1.0  0.38604  0.89458  0.68744  1.0000
  C   C1079     1.0  0.40074  0.90106  0.69220  1.0000
  H   H1070     1.0  0.42863  0.85933  0.70423  1.0000
  H   H1071     1.0  0.40290  0.84787  0.69572  1.0000
  H   H1072     1.0  0.37429  0.90443  0.68260  1.0000
  H   H1073     1.0  0.40017  0.91596  0.69104  1.0000
  C   C1080     1.0  0.27112  0.47463  0.77740  1.0000
  N   N89       1.0  0.43970  0.84634  0.64551  1.0000
  H   H1074     1.0  0.26721  0.59411  0.87650  1.0000
  H   H1075     1.0  0.45302  0.80069  0.68183  1.0000
  C   C1081     1.0  0.40793  0.58516  0.76835  1.0000
  C   C1082     1.0  0.40157  0.60103  0.75589  1.0000
  C   C1083     1.0  0.38416  0.60285  0.75021  1.0000
  C   C1084     1.0  0.37291  0.58892  0.75698  1.0000
  C   C1085     1.0  0.37885  0.57351  0.77014  1.0000
  C   C1086     1.0  0.39631  0.57164  0.77576  1.0000
  H   H1076     1.0  0.41028  0.61163  0.75023  1.0000
  H   H1077     1.0  0.37962  0.61485  0.74008  1.0000
  H   H1078     1.0  0.37035  0.56266  0.77542  1.0000
  H   H1079     1.0  0.40106  0.55937  0.78550  1.0000
  H   H1080     1.0  0.30359  0.52100  0.74227  1.0000
  H   H1081     1.0  0.26298  0.62784  0.79846  1.0000
  C   C1087     1.0  0.33131  0.60032  0.89483  1.0000
  C   C1088     1.0  0.46694  0.80274  0.67450  1.0000
  C   C1089     1.0  0.28020  0.59525  0.88046  1.0000
  C   C1090     1.0  0.41392  0.71898  0.87494  1.0000
  C   C1091     1.0  0.39428  0.72350  0.88017  1.0000
  C   C1092     1.0  0.38260  0.71052  0.88075  1.0000
  C   C1093     1.0  0.39050  0.69291  0.87601  1.0000
  C   C1094     1.0  0.41005  0.68874  0.86996  1.0000
  C   C1095     1.0  0.42171  0.70169  0.86943  1.0000
  H   H1082     1.0  0.38812  0.73693  0.88427  1.0000
  H   H1083     1.0  0.36758  0.71393  0.88537  1.0000
  H   H1084     1.0  0.41630  0.67516  0.86625  1.0000
  H   H1085     1.0  0.43678  0.69806  0.86531  1.0000
  C   C1096     1.0  0.46551  0.66309  0.68640  1.0000
  H   H1086     1.0  0.30238  0.48943  0.73943  1.0000
  H   H1087     1.0  0.40305  0.71494  0.93964  1.0000
  S   S378      1.0  0.45846  0.65293  0.79139  1.0000
  N   N90       1.0  0.25195  0.61587  0.78020  1.0000
  H   H1088     1.0  0.29781  0.57894  0.86040  1.0000
  C   C1097     1.0  0.25072  0.69979  0.88041  1.0000
  C   C1098     1.0  0.32350  0.95710  0.64485  1.0000
  H   H1089     1.0  0.45219  0.80360  0.80046  1.0000
  C   C1099     1.0  0.44722  0.87685  0.65723  1.0000
  H   H1090     1.0  0.39460  0.55489  0.73122  1.0000
  H   H1091     1.0  0.24471  0.88994  0.74196  1.0000
  H   H1092     1.0  0.43216  0.81936  0.65344  1.0000
  H   H1093     1.0  0.46871  0.83489  0.64529  1.0000
  C   C1100     1.0  0.42923  0.87676  0.65422  1.0000
  C   C1101     1.0  0.25165  0.61493  0.76207  1.0000
  H   H1094     1.0  0.30494  0.80601  0.63812  1.0000
  H   H1095     1.0  0.38929  0.72073  0.92101  1.0000
  H   H1096     1.0  0.46852  0.77922  0.82289  1.0000
  H   H1097     1.0  0.34289  0.77300  0.63424  1.0000
  C   C1102     1.0  0.27227  0.63882  0.76963  1.0000
  H   H1098     1.0  0.41125  0.86075  0.64756  1.0000
  H   H1099     1.0  0.29094  0.93906  0.70002  1.0000
  C   C1103     1.0  0.31291  0.95622  0.63162  1.0000
  H   H1100     1.0  0.44015  0.68161  0.67991  1.0000
  C   C1104     1.0  0.24083  0.85861  0.67147  1.0000
  H   H1101     1.0  0.30692  0.52906  0.71725  1.0000
  C   C1105     1.0  0.47835  0.73302  0.67043  1.0000
  C   C1106     1.0  0.46364  0.67311  0.81629  1.0000
  C   C1107     1.0  0.47210  0.65937  0.80518  1.0000
  C   C1108     1.0  0.42851  0.66343  0.90825  1.0000
  H   H1102     1.0  0.46339  0.69625  0.73000  1.0000
  H   H1103     1.0  0.47040  0.81994  0.69325  1.0000
  H   H1104     1.0  0.33939  0.58619  0.89911  1.0000
  N   N91       1.0  0.42433  0.59419  0.71264  1.0000
  H   H1105     1.0  0.44149  0.72219  0.70397  1.0000
  S   S379      1.0  0.47579  0.72856  0.84029  1.0000
  C   C1109     1.0  0.47650  0.78806  0.81198  1.0000
  C   C1110     1.0  0.26865  0.84722  0.71821  1.0000
  H   H1106     1.0  0.44408  0.57732  0.72925  1.0000
  H   H1107     1.0  0.28003  0.64637  0.73971  1.0000
  C   C1111     1.0  0.43976  0.67635  0.90833  1.0000
  H   H1108     1.0  0.40007  0.65821  0.91301  1.0000
  N   N92       1.0  0.40054  0.88649  0.74387  1.0000
  C   C1112     1.0  0.41613  0.88433  0.75182  1.0000
  C   C1113     1.0  0.39417  0.87115  0.74170  1.0000
  C   C1114     1.0  0.42579  0.86646  0.75783  1.0000
  C   C1115     1.0  0.40369  0.85306  0.74730  1.0000
  C   C1116     1.0  0.41960  0.85075  0.75543  1.0000
  C   C1117     1.0  0.39052  0.90543  0.73806  1.0000
  H   H1109     1.0  0.42138  0.89648  0.75325  1.0000
  H   H1110     1.0  0.38198  0.87282  0.73512  1.0000
  H   H1111     1.0  0.43815  0.86477  0.76415  1.0000
  H   H1112     1.0  0.39888  0.84095  0.74514  1.0000
  H   H1113     1.0  0.42725  0.83684  0.75978  1.0000
  H   H1114     1.0  0.38328  0.91174  0.75055  1.0000
  H   H1115     1.0  0.40062  0.91437  0.72933  1.0000
  H   H1116     1.0  0.37994  0.90542  0.72941  1.0000
  H   H1117     1.0  0.26025  0.85449  0.72974  1.0000
  H   H1118     1.0  0.42558  0.55183  0.74080  1.0000
  C   C1118     1.0  0.47486  0.79468  0.65847  1.0000
  C   C1119     1.0  0.23041  0.85912  0.68944  1.0000
  N   N93       1.0  0.28454  0.51384  0.72802  1.0000
  N   N94       1.0  0.39726  0.63059  0.81089  1.0000
  C   C1120     1.0  0.38077  0.63585  0.82248  1.0000
  C   C1121     1.0  0.41297  0.63762  0.81087  1.0000
  C   C1122     1.0  0.37962  0.64880  0.83413  1.0000
  C   C1123     1.0  0.41232  0.65061  0.82231  1.0000
  C   C1124     1.0  0.39550  0.65626  0.83397  1.0000
  C   C1125     1.0  0.39843  0.61666  0.79910  1.0000
  H   H1119     1.0  0.36834  0.63010  0.82275  1.0000
  H   H1120     1.0  0.42616  0.63323  0.80194  1.0000
  H   H1121     1.0  0.36649  0.65300  0.84327  1.0000
  H   H1122     1.0  0.42481  0.65624  0.82210  1.0000
  H   H1123     1.0  0.39476  0.66635  0.84291  1.0000
  H   H1124     1.0  0.38447  0.61643  0.79583  1.0000
  H   H1125     1.0  0.40792  0.61982  0.78551  1.0000
  H   H1126     1.0  0.40406  0.60247  0.80621  1.0000
  Fe  Fe189     1.0  0.47749  0.84876  0.74303  1.0000
  C   C1126     1.0  0.45750  0.84655  0.64791  1.0000
  C   C1127     1.0  0.27862  0.94397  0.67526  1.0000
  C   C1128     1.0  0.29626  0.52670  0.73009  1.0000
  H   H1127     1.0  0.26163  0.62481  0.73290  1.0000
  H   H1128     1.0  0.45019  0.60439  0.70258  1.0000
  C   C1129     1.0  0.40369  0.71603  0.92439  1.0000
  H   H1129     1.0  0.44984  0.74704  0.67708  1.0000
  H   H1130     1.0  0.24011  0.60819  0.80906  1.0000
  H   H1131     1.0  0.43479  0.65020  0.90365  1.0000
  C   C1130     1.0  0.40906  0.66784  0.91364  1.0000
  H   H1132     1.0  0.46732  0.68964  0.83562  1.0000
  H   H1133     1.0  0.35108  0.80388  0.63038  1.0000
  C   C1131     1.0  0.40729  0.59600  0.70734  1.0000
  C   C1132     1.0  0.27987  0.60572  0.89416  1.0000
  C   C1133     1.0  0.26929  0.85034  0.68460  1.0000
  N   N95       1.0  0.46879  0.70538  0.70058  1.0000
  C   C1134     1.0  0.24416  0.73245  0.88343  1.0000
  S   S380      1.0  0.47846  0.70397  0.88312  1.0000
  N   N96       1.0  0.25900  0.85131  0.70210  1.0000
  C   C1135     1.0  0.45565  0.72078  0.69600  1.0000
  C   C1136     1.0  0.43498  0.60966  0.70690  1.0000
  C   C1137     1.0  0.42555  0.86109  0.64883  1.0000
  H   H1134     1.0  0.44784  0.82276  0.63140  1.0000
  C   C1138     1.0  0.28981  0.49495  0.73329  1.0000
  C   C1139     1.0  0.46729  0.80186  0.79922  1.0000
  H   H1135     1.0  0.29642  0.61547  0.90945  1.0000
  Fe  Fe190     1.0  0.46806  0.63182  0.77148  1.0000
  H   H1136     1.0  0.43325  0.61730  0.71871  1.0000
  C   C1140     1.0  0.26875  0.52076  0.72020  1.0000
  C   C1141     1.0  0.26040  0.85407  0.66902  1.0000
  H   H1137     1.0  0.44013  0.70381  0.91321  1.0000
  C   C1142     1.0  0.43556  0.82968  0.64056  1.0000
  C   C1143     1.0  0.29680  0.60729  0.89879  1.0000
  H   H1138     1.0  0.28227  0.85242  0.71436  1.0000
  C   C1144     1.0  0.45524  0.67822  0.67580  1.0000
  C   C1145     1.0  0.43135  0.69363  0.91366  1.0000
  H   H1139     1.0  0.23067  0.69331  0.92562  1.0000
  H   H1140     1.0  0.46287  0.73825  0.78164  1.0000
  H   H1141     1.0  0.38265  0.58352  0.71012  1.0000
  C   C1146     1.0  0.23947  0.89340  0.72888  1.0000
  H   H1142     1.0  0.25312  0.47998  0.72353  1.0000
  S   S381      1.0  0.47216  0.59931  0.73493  1.0000
  H   H1143     1.0  0.23378  0.86176  0.65947  1.0000
  S   S382      1.0  0.46120  0.78245  0.65003  1.0000
  H   H1144     1.0  0.44903  0.67940  0.81634  1.0000
  H   H1145     1.0  0.26662  0.61270  0.90108  1.0000
  H   H1146     1.0  0.25363  0.55188  0.75625  1.0000
  C   C1147     1.0  0.46149  0.86163  0.65409  1.0000
  H   H1147     1.0  0.32897  0.60808  0.90668  1.0000
  H   H1148     1.0  0.28069  0.64772  0.77281  1.0000
  C   C1148     1.0  0.39653  0.58173  0.71364  1.0000
  S   S383      1.0  0.30992  0.83889  0.64943  1.0000
  C   C1149     1.0  0.25201  0.89651  0.71194  1.0000
  H   H1149     1.0  0.24896  0.74482  0.88485  1.0000
  S   S384      1.0  0.45333  0.65014  0.70641  1.0000
  H   H1150     1.0  0.41799  0.88845  0.65677  1.0000
  C   C1150     1.0  0.24508  0.90102  0.69512  1.0000
  H   H1151     1.0  0.45629  0.70067  0.65189  1.0000
  C   C1151     1.0  0.43099  0.57845  0.72435  1.0000
  C   C1152     1.0  0.24463  0.71538  0.92725  1.0000
  N   N97       1.0  0.31359  0.59874  0.88992  1.0000
  Fe  Fe191     1.0  0.46565  0.63087  0.73071  1.0000
  H   H1152     1.0  0.27129  0.83190  0.72337  1.0000
  C   C1153     1.0  0.47398  0.67895  0.82725  1.0000
  C   C1154     1.0  0.25711  0.50876  0.71855  1.0000
  C   C1155     1.0  0.24159  0.57756  0.71554  1.0000
  H   H1153     1.0  0.25460  0.74042  0.92804  1.0000
  H   H1154     1.0  0.27832  0.92928  0.67587  1.0000
  H   H1155     1.0  0.47551  0.86136  0.65662  1.0000
  C   C1156     1.0  0.26153  0.62604  0.74725  1.0000
  H   H1156     1.0  0.26870  0.85346  0.65514  1.0000
  C   C1157     1.0  0.27867  0.48251  0.73158  1.0000
  H   H1157     1.0  0.43026  0.61990  0.69484  1.0000
  H   H1158     1.0  0.40164  0.60874  0.69864  1.0000
  C   C1158     1.0  0.46023  0.73483  0.68087  1.0000
  H   H1159     1.0  0.25055  0.58910  0.79678  1.0000
  S   S385      1.0  0.47669  0.74941  0.87510  1.0000
  C   C1159     1.0  0.24211  0.60346  0.79541  1.0000
  C   C1160     1.0  0.47646  0.73479  0.78605  1.0000
  H   H1160     1.0  0.24409  0.60521  0.75893  1.0000
  S   S386      1.0  0.47145  0.88044  0.73862  1.0000
  C   C1161     1.0  0.47675  0.81371  0.68100  1.0000
  H   H1161     1.0  0.44981  0.68774  0.71689  1.0000
  C   C1162     1.0  0.27211  0.95739  0.66079  1.0000
  C   C1163     1.0  0.46377  0.69116  0.71688  1.0000
  C   C1164     1.0  0.23218  0.54727  0.74271  1.0000
  C   C1165     1.0  0.30257  0.47659  0.78099  1.0000
  H   H1162     1.0  0.47755  0.70487  0.79032  1.0000
  C   C1166     1.0  0.23168  0.70078  0.87945  1.0000
  H   H1163     1.0  0.23157  0.85596  0.71858  1.0000
  C   C1167     1.0  0.31783  0.64957  0.96155  1.0000
  H   H1164     1.0  0.47393  0.67777  0.71668  1.0000
  C   C1168     1.0  0.28647  0.96847  0.68754  1.0000
  H   H1165     1.0  0.47979  0.76361  0.78289  1.0000
  H   H1166     1.0  0.31670  0.46972  0.78269  1.0000
  C   C1169     1.0  0.48786  0.25371  0.25255  1.0000
  Fe  Fe192     1.0  0.50578  0.34369  0.18313  1.0000
  H   H1167     1.0  0.68509  0.03372  0.20323  1.0000
  S   S387      1.0  0.53198  0.35690  0.17064  1.0000
  H   H1168     1.0  0.51597  0.29978  0.07566  1.0000
  S   S388      1.0  0.50793  0.31302  0.19480  1.0000
  C   C1170     1.0  0.50746  0.14166  0.27759  1.0000
  H   H1169     1.0  0.71892  0.33270  0.29375  1.0000
  N   N98       1.0  0.51046  0.10843  0.27953  1.0000
  H   H1170     1.0  0.70548  0.20076  0.05078  1.0000
  H   H1171     1.0  0.55981  0.28031  0.03267  1.0000
  H   H1172     1.0  0.64753  0.34675  0.99198  1.0000
  S   S389      1.0  0.51251  0.05363  0.25171  1.0000
  C   C1171     1.0  0.59711  0.02257  0.25145  1.0000
  H   H1173     1.0  0.54795  0.30024  0.05707  1.0000
  H   H1174     1.0  0.69021  0.26072  0.03423  1.0000
  Fe  Fe193     1.0  0.48906  0.06889  0.23549  1.0000
  C   C1172     1.0  0.68566  0.44942  0.20080  1.0000
  Fe  Fe194     1.0  0.49396  0.21699  0.07449  1.0000
  S   S390      1.0  0.52526  0.21488  0.06270  1.0000
  N   N99       1.0  0.71321  0.03218  0.20681  1.0000
  H   H1175     1.0  0.50431  0.25871  0.13832  1.0000
  C   C1173     1.0  0.71841  0.18519  0.09855  1.0000
  Fe  Fe195     1.0  0.63400  0.28593  0.08427  1.0000
  S   S391      1.0  0.62637  0.25726  0.08918  1.0000
  S   S392      1.0  0.63167  0.29657  0.11146  1.0000
  Fe  Fe196     1.0  0.63947  0.28879  0.04160  1.0000
  S   S393      1.0  0.63120  0.26085  0.04376  1.0000
  S   S394      1.0  0.65312  0.30467  0.01423  1.0000
  Fe  Fe197     1.0  0.60815  0.26930  0.06736  1.0000
  S   S395      1.0  0.57669  0.26819  0.07611  1.0000
  Fe  Fe198     1.0  0.65004  0.25141  0.06545  1.0000
  S   S396      1.0  0.67158  0.22477  0.06352  1.0000
  S   S397      1.0  0.61493  0.29839  0.06331  1.0000
  S   S398      1.0  0.65921  0.27894  0.06240  1.0000
  Fe  Fe199     1.0  0.62666  0.37260  0.18986  1.0000
  S   S399      1.0  0.62355  0.39391  0.16393  1.0000
  S   S400      1.0  0.60158  0.36000  0.20724  1.0000
  Fe  Fe200     1.0  0.66888  0.37382  0.18583  1.0000
  S   S401      1.0  0.66854  0.39480  0.15915  1.0000
  S   S402      1.0  0.69814  0.36317  0.19332  1.0000
  Fe  Fe201     1.0  0.64161  0.40919  0.17421  1.0000
  S   S403      1.0  0.63317  0.44020  0.17560  1.0000
  Fe  Fe202     1.0  0.65067  0.37741  0.15146  1.0000
  S   S404      1.0  0.65529  0.37080  0.12222  1.0000
  S   S405      1.0  0.64269  0.38913  0.20142  1.0000
  S   S406      1.0  0.65303  0.35521  0.17689  1.0000
  Fe  Fe203     1.0  0.61249  0.06689  0.26448  1.0000
  H   H1176     1.0  0.51746  0.30064  0.23723  1.0000
  S   S407      1.0  0.58930  0.08112  0.24767  1.0000
  Fe  Fe204     1.0  0.65556  0.06281  0.26186  1.0000
  S   S408      1.0  0.48069  0.35234  0.20482  1.0000
  S   S409      1.0  0.67963  0.07316  0.24042  1.0000
  H   H1177     1.0  0.52487  0.28094  0.22563  1.0000
  H   H1178     1.0  0.70058  0.04693  0.26740  1.0000
  H   H1179     1.0  0.54877  0.04439  0.21989  1.0000
  S   S410      1.0  0.63741  0.04793  0.25158  1.0000
  S   S411      1.0  0.63079  0.08365  0.27237  1.0000
  C   C1174     1.0  0.70383  0.06461  0.24036  1.0000
  C   C1175     1.0  0.70429  0.38128  0.23972  1.0000
  C   C1176     1.0  0.52078  0.29153  0.06455  1.0000
  H   H1180     1.0  0.71357  0.35772  0.28655  1.0000
  C   C1177     1.0  0.70765  0.36946  0.21075  1.0000
  H   H1181     1.0  0.67200  0.30934  0.14725  1.0000
  C   C1178     1.0  0.69618  0.37656  0.22613  1.0000
  H   H1182     1.0  0.66342  0.42690  0.19906  1.0000
  H   H1183     1.0  0.68108  0.37804  0.22776  1.0000
  C   C1179     1.0  0.64996  0.45532  0.16922  1.0000
  Fe  Fe205     1.0  0.63563  0.02963  0.27991  1.0000
  C   C1180     1.0  0.58726  0.00978  0.26411  1.0000
  H   H1184     1.0  0.68142  0.40692  0.19637  1.0000
  C   C1181     1.0  0.66856  0.44916  0.16122  1.0000
  H   H1185     1.0  0.54020  0.39478  0.18383  1.0000
  H   H1186     1.0  0.69634  0.33511  0.16986  1.0000
  H   H1187     1.0  0.67279  0.43508  0.15823  1.0000
  C   C1182     1.0  0.69526  0.22495  0.06418  1.0000
  H   H1188     1.0  0.50427  0.09941  0.25639  1.0000
  C   C1183     1.0  0.64769  0.30326  0.99258  1.0000
  C   C1184     1.0  0.62985  0.30074  0.99116  1.0000
  C   C1185     1.0  0.64300  0.98014  0.29408  1.0000
  C   C1186     1.0  0.66095  0.30666  0.97621  1.0000
  H   H1189     1.0  0.61952  0.29820  0.00369  1.0000
  H   H1190     1.0  0.67476  0.30866  0.97721  1.0000
  C   C1187     1.0  0.63848  0.31730  0.11385  1.0000
  C   C1188     1.0  0.64606  0.32958  0.09847  1.0000
  C   C1189     1.0  0.65098  0.34608  0.10115  1.0000
  C   C1190     1.0  0.64819  0.35047  0.11917  1.0000
  C   C1191     1.0  0.64059  0.33819  0.13451  1.0000
  C   C1192     1.0  0.63589  0.32163  0.13186  1.0000
  H   H1191     1.0  0.64810  0.32639  0.08453  1.0000
  H   H1192     1.0  0.65689  0.35551  0.08921  1.0000
  H   H1193     1.0  0.63832  0.34142  0.14844  1.0000
  H   H1194     1.0  0.63015  0.31216  0.14386  1.0000
  C   C1193     1.0  0.54018  0.22812  0.06820  1.0000
  C   C1194     1.0  0.55866  0.22761  0.05817  1.0000
  C   C1195     1.0  0.57043  0.23908  0.06107  1.0000
  C   C1196     1.0  0.56380  0.25122  0.07405  1.0000
  C   C1197     1.0  0.54553  0.25127  0.08451  1.0000
  C   C1198     1.0  0.53380  0.23975  0.08167  1.0000
  H   H1195     1.0  0.56377  0.21857  0.04781  1.0000
  H   H1196     1.0  0.58442  0.23891  0.05289  1.0000
  H   H1197     1.0  0.54025  0.26055  0.09462  1.0000
  H   H1198     1.0  0.51973  0.24010  0.08967  1.0000
  C   C1199     1.0  0.53257  0.06304  0.25190  1.0000
  C   C1200     1.0  0.53791  0.07807  0.23838  1.0000
  C   C1201     1.0  0.55503  0.08388  0.23776  1.0000
  C   C1202     1.0  0.56698  0.07470  0.25054  1.0000
  C   C1203     1.0  0.56126  0.06019  0.26457  1.0000
  C   C1204     1.0  0.54411  0.05441  0.26522  1.0000
  H   H1199     1.0  0.52924  0.08477  0.22797  1.0000
  H   H1200     1.0  0.55932  0.09518  0.22691  1.0000
  H   H1201     1.0  0.57026  0.05313  0.27460  1.0000
  H   H1202     1.0  0.53999  0.04288  0.27584  1.0000
  C   C1205     1.0  0.52210  0.25055  0.28902  1.0000
  H   H1203     1.0  0.59691  0.04354  0.22669  1.0000
  C   C1206     1.0  0.72827  0.21053  0.05769  1.0000
  S   S412      1.0  0.48903  0.10271  0.16930  1.0000
  C   C1207     1.0  0.68165  0.31270  0.15525  1.0000
  H   H1204     1.0  0.50257  0.12734  0.13608  1.0000
  H   H1205     1.0  0.56184  0.99801  0.27123  1.0000
  N   N100      1.0  0.69082  0.43053  0.20117  1.0000
  C   C1208     1.0  0.55187  0.35556  0.18099  1.0000
  C   C1209     1.0  0.55166  0.34978  0.20020  1.0000
  C   C1210     1.0  0.56724  0.35063  0.20800  1.0000
  C   C1211     1.0  0.58314  0.35726  0.19668  1.0000
  C   C1212     1.0  0.58349  0.36261  0.17740  1.0000
  C   C1213     1.0  0.56795  0.36174  0.16963  1.0000
  H   H1206     1.0  0.53933  0.34509  0.20911  1.0000
  H   H1207     1.0  0.56684  0.34649  0.22292  1.0000
  H   H1208     1.0  0.59564  0.36764  0.16850  1.0000
  H   H1209     1.0  0.56826  0.36623  0.15474  1.0000
  H   H1210     1.0  0.48485  0.14646  0.05138  1.0000
  H   H1211     1.0  0.69620  0.45633  0.15108  1.0000
  S   S413      1.0  0.63603  0.99957  0.27725  1.0000
  C   C1214     1.0  0.70937  0.42235  0.19957  1.0000
  H   H1212     1.0  0.50766  0.25975  0.04594  1.0000
  H   H1213     1.0  0.71504  0.02045  0.23532  1.0000
  N   N101      1.0  0.50968  0.28030  0.06138  1.0000
  C   C1215     1.0  0.71826  0.45262  0.19572  1.0000
  C   C1216     1.0  0.70522  0.35461  0.14548  1.0000
  H   H1214     1.0  0.53026  0.08470  0.28805  1.0000
  H   H1215     1.0  0.63494  0.11436  0.29344  1.0000
  H   H1216     1.0  0.48875  0.27693  0.22942  1.0000
  H   H1217     1.0  0.49276  0.16890  0.15876  1.0000
  C   C1217     1.0  0.69258  0.25440  0.02143  1.0000
  H   H1218     1.0  0.69081  0.05540  0.20626  1.0000
  H   H1219     1.0  0.67097  0.45594  0.20207  1.0000
  C   C1218     1.0  0.50548  0.11121  0.26229  1.0000
  H   H1220     1.0  0.61064  0.02428  0.25362  1.0000
  C   C1219     1.0  0.69958  0.34921  0.11638  1.0000
  C   C1220     1.0  0.54549  0.28078  0.04026  1.0000
  C   C1221     1.0  0.71042  0.05162  0.25516  1.0000
  H   H1221     1.0  0.62354  0.34264  0.97502  1.0000
  H   H1222     1.0  0.69528  0.38658  0.25165  1.0000
  H   H1223     1.0  0.54859  0.01717  0.24390  1.0000
  C   C1222     1.0  0.49119  0.27915  0.07308  1.0000
  S   S414      1.0  0.48781  0.34295  0.16225  1.0000
  C   C1223     1.0  0.51850  0.28179  0.27095  1.0000
  H   H1224     1.0  0.68115  0.97252  0.27380  1.0000
  H   H1225     1.0  0.50752  0.15344  0.28412  1.0000
  H   H1226     1.0  0.53719  0.25016  0.24270  1.0000
  S   S415      1.0  0.48124  0.21847  0.10453  1.0000
  C   C1224     1.0  0.48807  0.13318  0.14087  1.0000
  C   C1225     1.0  0.56442  0.04211  0.21712  1.0000
  C   C1226     1.0  0.50105  0.12936  0.25241  1.0000
  H   H1227     1.0  0.59491  0.43889  0.16898  1.0000
  H   H1228     1.0  0.56847  0.05623  0.21338  1.0000
  H   H1229     1.0  0.67306  0.31561  0.16889  1.0000
  C   C1227     1.0  0.51652  0.26984  0.28828  1.0000
  C   C1228     1.0  0.51611  0.26928  0.04790  1.0000
  C   C1229     1.0  0.62504  0.30249  0.97343  1.0000
  C   C1230     1.0  0.50196  0.14465  0.26020  1.0000
  C   C1231     1.0  0.70032  0.23834  0.07202  1.0000
  N   N102      1.0  0.57255  0.31253  0.13010  1.0000
  C   C1232     1.0  0.57650  0.29754  0.12098  1.0000
  C   C1233     1.0  0.55491  0.31756  0.13987  1.0000
  C   C1234     1.0  0.56249  0.28732  0.12127  1.0000
  C   C1235     1.0  0.54058  0.30768  0.14041  1.0000
  C   C1236     1.0  0.54442  0.29246  0.13105  1.0000
  C   C1237     1.0  0.58762  0.32261  0.13006  1.0000
  H   H1230     1.0  0.59059  0.29337  0.11347  1.0000
  H   H1231     1.0  0.55179  0.32926  0.14737  1.0000
  H   H1232     1.0  0.56569  0.27544  0.11400  1.0000
  H   H1233     1.0  0.52659  0.31173  0.14813  1.0000
  H   H1234     1.0  0.53340  0.28461  0.13151  1.0000
  H   H1235     1.0  0.58210  0.33630  0.13481  1.0000
  H   H1236     1.0  0.59722  0.31396  0.13947  1.0000
  H   H1237     1.0  0.59594  0.32542  0.11574  1.0000
  S   S416      1.0  0.49757  0.28861  0.15899  1.0000
  H   H1238     1.0  0.59324  0.00158  0.27610  1.0000
  H   H1239     1.0  0.49784  0.15882  0.25306  1.0000
  C   C1238     1.0  0.72055  0.15987  0.08199  1.0000
  C   C1239     1.0  0.56975  0.00774  0.26133  1.0000
  C   C1240     1.0  0.51478  0.08937  0.28988  1.0000
  N   N103      1.0  0.56204  0.41071  0.18149  1.0000
  C   C1241     1.0  0.57213  0.42394  0.17091  1.0000
  C   C1242     1.0  0.56609  0.40181  0.19865  1.0000
  C   C1243     1.0  0.58667  0.42861  0.17748  1.0000
  C   C1244     1.0  0.58067  0.40597  0.20554  1.0000
  C   C1245     1.0  0.59096  0.41950  0.19489  1.0000
  C   C1246     1.0  0.54680  0.40624  0.17426  1.0000
  H   H1240     1.0  0.67477  0.36160  0.97432  1.0000
  H   H1241     1.0  0.55838  0.39106  0.20695  1.0000
  H   H1242     1.0  0.49484  0.14039  0.18304  1.0000
  H   H1243     1.0  0.58432  0.39832  0.21881  1.0000
  H   H1244     1.0  0.60251  0.42268  0.19993  1.0000
  H   H1245     1.0  0.53565  0.41875  0.17237  1.0000
  H   H1246     1.0  0.55233  0.40142  0.16062  1.0000
  S   S417      1.0  0.65578  0.04320  0.28948  1.0000
  C   C1247     1.0  0.71930  0.23770  0.07283  1.0000
  C   C1248     1.0  0.71675  0.07068  0.22461  1.0000
  H   H1247     1.0  0.69278  0.30030  0.15776  1.0000
  C   C1249     1.0  0.52776  0.28737  0.23676  1.0000
  H   H1248     1.0  0.71025  0.36283  0.15328  1.0000
  H   H1249     1.0  0.71177  0.37236  0.11887  1.0000
  C   C1250     1.0  0.69725  0.33893  0.15480  1.0000
  C   C1251     1.0  0.49124  0.26757  0.13546  1.0000
  C   C1252     1.0  0.69166  0.33362  0.12614  1.0000
  Fe  Fe206     1.0  0.48848  0.31273  0.17524  1.0000
  C   C1253     1.0  0.56238  0.01855  0.24580  1.0000
  C   C1254     1.0  0.58931  0.03326  0.23616  1.0000
  H   H1250     1.0  0.56970  0.03466  0.20504  1.0000
  N   N104      1.0  0.57210  0.03123  0.23356  1.0000
  H   H1251     1.0  0.56908  0.43085  0.15722  1.0000
  H   H1252     1.0  0.61100  0.30118  0.97242  1.0000
  N   N105      1.0  0.69020  0.32893  0.14516  1.0000
  H   H1253     1.0  0.68959  0.24897  0.07779  1.0000
  H   H1254     1.0  0.71176  0.08081  0.21316  1.0000
  C   C1255     1.0  0.53882  0.29200  0.05400  1.0000
  Fe  Fe207     1.0  0.48161  0.32124  0.21490  1.0000
  C   C1256     1.0  0.48322  0.24804  0.27201  1.0000
  C   C1257     1.0  0.70619  0.35988  0.12618  1.0000
  N   N106      1.0  0.71181  0.24400  0.01767  1.0000
  C   C1258     1.0  0.70930  0.21111  0.05695  1.0000
  H   H1255     1.0  0.70997  0.19709  0.10450  1.0000
  H   H1256     1.0  0.49411  0.24328  0.24377  1.0000
  H   H1257     1.0  0.49624  0.13153  0.23917  1.0000
  C   C1259     1.0  0.53164  0.25583  0.25547  1.0000
  C   C1260     1.0  0.69310  0.03992  0.21072  1.0000
  C   C1261     1.0  0.70974  0.17485  0.09018  1.0000
  H   H1258     1.0  0.70414  0.22552  0.00322  1.0000
  C   C1262     1.0  0.72729  0.36708  0.20918  1.0000
  H   H1259     1.0  0.71406  0.15187  0.07524  1.0000
  H   H1260     1.0  0.68975  0.26576  0.00944  1.0000
  C   C1263     1.0  0.72439  0.34597  0.29164  1.0000
  H   H1261     1.0  0.51355  0.29672  0.27041  1.0000
  H   H1262     1.0  0.72310  0.24803  0.07906  1.0000
  H   H1263     1.0  0.71346  0.40734  0.20026  1.0000
  H   H1264     1.0  0.68602  0.32578  0.11846  1.0000
  H   H1265     1.0  0.48768  0.15739  0.11869  1.0000
  H   H1266     1.0  0.68206  0.24496  0.02405  1.0000
  C   C1264     1.0  0.48487  0.27279  0.24439  1.0000
  C   C1265     1.0  0.48437  0.28348  0.14394  1.0000
  C   C1266     1.0  0.51174  0.12333  0.28710  1.0000
  C   C1267     1.0  0.68179  0.46126  0.15710  1.0000
  C   C1268     1.0  0.72240  0.02231  0.22097  1.0000
  C   C1269     1.0  0.53408  0.26936  0.03714  1.0000
  H   H1267     1.0  0.67268  0.41329  0.21930  1.0000
  C   C1270     1.0  0.72393  0.37898  0.23811  1.0000
  C   C1271     1.0  0.63518  0.34956  0.96749  1.0000
  H   H1268     1.0  0.54219  0.29071  0.23285  1.0000
  S   S418      1.0  0.49002  0.22418  0.28166  1.0000
  H   H1269     1.0  0.53943  0.25994  0.02710  1.0000
  S   S419      1.0  0.60951  0.04785  0.29223  1.0000
  H   H1270     1.0  0.72324  0.26059  0.03123  1.0000
  S   S420      1.0  0.48782  0.09881  0.22162  1.0000
  N   N107      1.0  0.52576  0.27469  0.25482  1.0000
  C   C1272     1.0  0.72337  0.43325  0.19679  1.0000
  H   H1271     1.0  0.53349  0.22846  0.27297  1.0000
  H   H1272     1.0  0.69481  0.17879  0.08966  1.0000
  H   H1273     1.0  0.71546  0.04300  0.17760  1.0000
  H   H1274     1.0  0.68718  0.03722  0.22592  1.0000
  C   C1273     1.0  0.72268  0.03498  0.18879  1.0000
  C   C1274     1.0  0.64869  0.35186  0.97701  1.0000
  H   H1275     1.0  0.49142  0.26511  0.08204  1.0000
  H   H1276     1.0  0.69976  0.35346  0.10146  1.0000
  C   C1275     1.0  0.67638  0.41884  0.20417  1.0000
  C   C1276     1.0  0.72611  0.24921  0.02336  1.0000
  C   C1277     1.0  0.69930  0.46075  0.19791  1.0000
  H   H1277     1.0  0.48682  0.25064  0.11702  1.0000
  C   C1278     1.0  0.52980  0.24348  0.27255  1.0000
  H   H1278     1.0  0.48687  0.28974  0.08248  1.0000
  H   H1279     1.0  0.50851  0.07931  0.28492  1.0000
  C   C1279     1.0  0.71545  0.22954  0.00788  1.0000
  S   S421      1.0  0.48041  0.05997  0.21167  1.0000
  C   C1280     1.0  0.48128  0.26291  0.12339  1.0000
  C   C1281     1.0  0.66404  0.36003  0.96706  1.0000
  C   C1282     1.0  0.48269  0.15151  0.18432  1.0000
  H   H1280     1.0  0.72894  0.46135  0.19306  1.0000
  C   C1283     1.0  0.48134  0.16759  0.17057  1.0000
  C   C1284     1.0  0.72985  0.04484  0.25415  1.0000
  H   H1281     1.0  0.48019  0.28139  0.06430  1.0000
  H   H1282     1.0  0.48034  0.13308  0.08524  1.0000
  H   H1283     1.0  0.66802  0.10161  0.56954  1.0000
  S   S422      1.0  0.49989  0.18129  0.31865  1.0000
  C   C1285     1.0  0.64455  0.14471  0.31723  1.0000
  H   H1284     1.0  0.72302  0.18619  0.48807  1.0000
  Fe  Fe208     1.0  0.49393  0.18807  0.34763  1.0000
  S   S423      1.0  0.51327  0.18156  0.36934  1.0000
  H   H1285     1.0  0.67542  0.20062  0.48418  1.0000
  C   C1286     1.0  0.71800  0.23740  0.55243  1.0000
  N   N108      1.0  0.72915  0.34918  0.30879  1.0000
  Fe  Fe209     1.0  0.71271  0.13581  0.55367  1.0000
  S   S424      1.0  0.68776  0.13077  0.54407  1.0000
  H   H1286     1.0  0.67062  0.15883  0.60965  1.0000
  Fe  Fe210     1.0  0.69876  0.17849  0.54945  1.0000
  S   S425      1.0  0.67211  0.17597  0.54055  1.0000
  C   C1287     1.0  0.67455  0.21077  0.44828  1.0000
  Fe  Fe211     1.0  0.67124  0.15056  0.56338  1.0000
  S   S426      1.0  0.64912  0.13827  0.58609  1.0000
  Fe  Fe212     1.0  0.69099  0.15651  0.52216  1.0000
  S   S427      1.0  0.69324  0.16111  0.49039  1.0000
  S   S428      1.0  0.69623  0.15472  0.57369  1.0000
  C   C1288     1.0  0.72610  0.06600  0.54826  1.0000
  S   S429      1.0  0.62100  0.07526  0.32646  1.0000
  Fe  Fe213     1.0  0.62344  0.17350  0.37561  1.0000
  S   S430      1.0  0.62811  0.14417  0.39180  1.0000
  S   S431      1.0  0.60061  0.18577  0.35769  1.0000
  Fe  Fe214     1.0  0.66285  0.17989  0.37902  1.0000
  S   S432      1.0  0.67049  0.15072  0.39436  1.0000
  S   S433      1.0  0.68174  0.20192  0.37146  1.0000
  Fe  Fe215     1.0  0.65685  0.14153  0.37412  1.0000
  S   S434      1.0  0.67050  0.11744  0.35865  1.0000
  Fe  Fe216     1.0  0.64125  0.15620  0.41061  1.0000
  S   S435      1.0  0.63615  0.14873  0.44237  1.0000
  S   S436      1.0  0.65195  0.17026  0.35723  1.0000
  S   S437      1.0  0.63391  0.18591  0.39598  1.0000
  H   H1287     1.0  0.66587  0.08414  0.38791  1.0000
  C   C1289     1.0  0.70055  0.20236  0.38264  1.0000
  C   C1290     1.0  0.71072  0.21719  0.37634  1.0000
  C   C1291     1.0  0.70532  0.18867  0.39780  1.0000
  H   H1288     1.0  0.70709  0.22785  0.36465  1.0000
  H   H1289     1.0  0.69758  0.17721  0.40283  1.0000
  N   N109      1.0  0.66449  0.09914  0.40990  1.0000
  C   C1292     1.0  0.63268  0.12434  0.30285  1.0000
  C   C1293     1.0  0.63523  0.08646  0.33540  1.0000
  C   C1294     1.0  0.62678  0.09709  0.34953  1.0000
  C   C1295     1.0  0.63735  0.10699  0.35643  1.0000
  C   C1296     1.0  0.65665  0.10581  0.34972  1.0000
  C   C1297     1.0  0.66521  0.09482  0.33591  1.0000
  C   C1298     1.0  0.65451  0.08538  0.32857  1.0000
  H   H1290     1.0  0.63058  0.11541  0.36702  1.0000
  H   H1291     1.0  0.68015  0.09377  0.33069  1.0000
  H   H1292     1.0  0.66117  0.07718  0.31773  1.0000
  H   H1293     1.0  0.68391  0.10327  0.59517  1.0000
  H   H1294     1.0  0.62529  0.11272  0.44024  1.0000
  H   H1295     1.0  0.68527  0.21795  0.41872  1.0000
  H   H1296     1.0  0.69533  0.03282  0.61628  1.0000
  S   S438      1.0  0.70214  0.20873  0.54784  1.0000
  C   C1299     1.0  0.65981  0.20652  0.42375  1.0000
  C   C1300     1.0  0.67597  0.08897  0.57645  1.0000
  C   C1301     1.0  0.69469  0.07344  0.60006  1.0000
  C   C1302     1.0  0.67767  0.15627  0.47751  1.0000
  C   C1303     1.0  0.66058  0.15056  0.48618  1.0000
  C   C1304     1.0  0.64812  0.14803  0.47526  1.0000
  C   C1305     1.0  0.65261  0.15118  0.45561  1.0000
  C   C1306     1.0  0.66982  0.15667  0.44697  1.0000
  C   C1307     1.0  0.68223  0.15926  0.45787  1.0000
  H   H1297     1.0  0.65686  0.14827  0.50128  1.0000
  H   H1298     1.0  0.63485  0.14377  0.48209  1.0000
  H   H1299     1.0  0.67345  0.15927  0.43188  1.0000
  H   H1300     1.0  0.69536  0.16379  0.45101  1.0000
  C   C1308     1.0  0.68477  0.08987  0.59101  1.0000
  C   C1309     1.0  0.61024  0.18064  0.60588  1.0000
  C   C1310     1.0  0.62493  0.17068  0.59442  1.0000
  C   C1311     1.0  0.63058  0.15142  0.59984  1.0000
  H   H1301     1.0  0.64952  0.99614  0.31220  1.0000
  C   C1312     1.0  0.64753  0.13237  0.30463  1.0000
  H   H1302     1.0  0.60589  0.19553  0.60157  1.0000
  H   H1303     1.0  0.63178  0.17787  0.58136  1.0000
  H   H1304     1.0  0.68593  0.21520  0.45240  1.0000
  C   C1313     1.0  0.72548  0.21842  0.38507  1.0000
  C   C1314     1.0  0.67748  0.07182  0.57082  1.0000
  H   H1305     1.0  0.65920  0.11386  0.43286  1.0000
  H   H1306     1.0  0.72141  0.33803  0.55336  1.0000
  C   C1315     1.0  0.64633  0.19815  0.45629  1.0000
  C   C1316     1.0  0.66122  0.17092  0.61434  1.0000
  C   C1317     1.0  0.63786  0.08928  0.40349  1.0000
  S   S439      1.0  0.71913  0.98606  0.59181  1.0000
  C   C1318     1.0  0.65704  0.09022  0.39957  1.0000
  C   C1319     1.0  0.53773  0.18221  0.36557  1.0000
  C   C1320     1.0  0.54774  0.17469  0.38039  1.0000
  C   C1321     1.0  0.56703  0.17545  0.37823  1.0000
  C   C1322     1.0  0.57643  0.18403  0.36127  1.0000
  C   C1323     1.0  0.56644  0.19147  0.34642  1.0000
  C   C1324     1.0  0.54724  0.19045  0.34848  1.0000
  H   H1307     1.0  0.54052  0.16830  0.39368  1.0000
  H   H1308     1.0  0.57451  0.16968  0.38978  1.0000
  H   H1309     1.0  0.57358  0.19816  0.33324  1.0000
  H   H1310     1.0  0.53973  0.19634  0.33699  1.0000
  Fe  Fe217     1.0  0.48056  0.20859  0.31099  1.0000
  H   H1311     1.0  0.65606  0.15079  0.31899  1.0000
  C   C1325     1.0  0.62139  0.14224  0.61675  1.0000
  H   H1312     1.0  0.51010  0.27543  0.30096  1.0000
  C   C1326     1.0  0.63412  0.10614  0.42889  1.0000
  C   C1327     1.0  0.64570  0.19940  0.43735  1.0000
  H   H1313     1.0  0.68817  0.11050  0.41207  1.0000
  N   N110      1.0  0.69594  0.05663  0.59458  1.0000
  H   H1314     1.0  0.72478  0.37100  0.60305  1.0000
  C   C1328     1.0  0.60686  0.15224  0.62831  1.0000
  C   C1329     1.0  0.64825  0.20387  0.60909  1.0000
  C   C1330     1.0  0.65335  0.10684  0.42456  1.0000
  H   H1315     1.0  0.60379  0.12169  0.31290  1.0000
  Fe  Fe218     1.0  0.72813  0.98557  0.61898  1.0000
  H   H1316     1.0  0.71691  0.04215  0.61096  1.0000
  H   H1317     1.0  0.68934  0.10342  0.39023  1.0000
  C   C1331     1.0  0.68754  0.05568  0.58013  1.0000
  H   H1318     1.0  0.58585  0.13295  0.34062  1.0000
  H   H1319     1.0  0.69271  0.08584  0.41076  1.0000
  H   H1320     1.0  0.61188  0.09797  0.35487  1.0000
  H   H1321     1.0  0.66141  0.12873  0.29654  1.0000
  H   H1322     1.0  0.63453  0.19451  0.43333  1.0000
  H   H1323     1.0  0.49278  0.18083  0.40886  1.0000
  H   H1324     1.0  0.71327  0.35935  0.56214  1.0000
  C   C1332     1.0  0.72651  0.33664  0.32512  1.0000
  H   H1325     1.0  0.63198  0.08256  0.39494  1.0000
  H   H1326     1.0  0.72104  0.32403  0.32563  1.0000
  H   H1327     1.0  0.70835  0.24626  0.54380  1.0000
  N   N111      1.0  0.61235  0.14037  0.32654  1.0000
  H   H1328     1.0  0.70151  0.07428  0.61136  1.0000
  H   H1329     1.0  0.59526  0.14687  0.35212  1.0000
  C   C1333     1.0  0.67427  0.21235  0.42922  1.0000
  H   H1330     1.0  0.65463  0.19063  0.49013  1.0000
  H   H1331     1.0  0.65271  0.21585  0.48606  1.0000
  C   C1334     1.0  0.68468  0.09972  0.40560  1.0000
  C   C1335     1.0  0.61506  0.12853  0.31396  1.0000
  H   H1332     1.0  0.62450  0.15831  0.33776  1.0000
  H   H1333     1.0  0.65962  0.20745  0.40898  1.0000
  S   S440      1.0  0.71766  0.16001  0.53024  1.0000
  C   C1336     1.0  0.66083  0.20274  0.48143  1.0000
  C   C1337     1.0  0.62670  0.14874  0.32798  1.0000
  N   N112      1.0  0.66074  0.20361  0.46153  1.0000
  C   C1338     1.0  0.71865  0.35350  0.54901  1.0000
  C   C1339     1.0  0.63593  0.20123  0.62619  1.0000
  H   H1334     1.0  0.61138  0.09700  0.42124  1.0000
  H   H1335     1.0  0.64782  0.21762  0.60037  1.0000
  C   C1340     1.0  0.60121  0.17151  0.62291  1.0000
  H   H1336     1.0  0.71903  0.09603  0.54032  1.0000
  C   C1341     1.0  0.59384  0.14463  0.33816  1.0000
  H   H1337     1.0  0.51525  0.12118  0.30095  1.0000
  C   C1342     1.0  0.66099  0.18860  0.60316  1.0000
  H   H1338     1.0  0.68884  0.04241  0.57556  1.0000
  C   C1343     1.0  0.64940  0.98226  0.30981  1.0000
  C   C1344     1.0  0.72003  0.18997  0.40663  1.0000
  H   H1339     1.0  0.72688  0.20181  0.51312  1.0000
  H   H1340     1.0  0.67046  0.19043  0.58981  1.0000
  C   C1345     1.0  0.62633  0.09737  0.41821  1.0000
  C   C1346     1.0  0.72524  0.08467  0.55011  1.0000
  C   C1347     1.0  0.70550  0.03938  0.60483  1.0000
  H   H1341     1.0  0.63546  0.19231  0.46674  1.0000
  H   H1342     1.0  0.72044  0.06311  0.53706  1.0000
  C   C1348     1.0  0.71793  0.21802  0.55694  1.0000
  H   H1343     1.0  0.67098  0.07108  0.55925  1.0000
  H   H1344     1.0  0.58563  0.15760  0.33127  1.0000
  H   H1345     1.0  0.62559  0.12732  0.62098  1.0000
  H   H1346     1.0  0.50889  0.08886  0.30502  1.0000
  H   H1347     1.0  0.71216  0.02911  0.59536  1.0000
  Fe  Fe219     1.0  0.62969  0.06328  0.29944  1.0000
  H   H1348     1.0  0.70769  0.35745  0.54005  1.0000
  H   H1349     1.0  0.72349  0.17942  0.41844  1.0000
  H   H1350     1.0  0.51988  0.24102  0.30224  1.0000
  H   H1351     1.0  0.47995  0.16919  0.39808  1.0000
  Fe  Fe220     1.0  0.59154  0.00429  0.72656  1.0000
  S   S441      1.0  0.58720  0.98729  0.75576  1.0000
  S   S442      1.0  0.57477  0.03217  0.71467  1.0000
  S   S443      1.0  0.62311  0.99739  0.72240  1.0000
  H   H1352     1.0  0.58814  0.01598  0.68181  1.0000
  C   C1349     1.0  0.63812  0.30646  0.95704  1.0000
  S   S444      1.0  0.70913  0.02212  0.83472  1.0000
  S   S445      1.0  0.69718  0.99433  0.87347  1.0000
  Fe  Fe221     1.0  0.69260  0.99854  0.84352  1.0000
  S   S446      1.0  0.66415  0.00415  0.83373  1.0000
  C   C1350     1.0  0.72427  0.06796  0.89180  1.0000
  N   N113      1.0  0.60898  0.00182  0.66246  1.0000
  H   H1353     1.0  0.66573  0.35915  0.91122  1.0000
  S   S447      1.0  0.64054  0.45041  0.74971  1.0000
  Fe  Fe222     1.0  0.61156  0.44348  0.75369  1.0000
  S   S448      1.0  0.61323  0.41262  0.75214  1.0000
  H   H1354     1.0  0.65316  0.01077  0.64663  1.0000
  C   C1351     1.0  0.54093  0.08370  0.73770  1.0000
  Fe  Fe223     1.0  0.55534  0.32867  0.77093  1.0000
  S   S449      1.0  0.54775  0.31394  0.80052  1.0000
  S   S450      1.0  0.55090  0.36063  0.76606  1.0000
  Fe  Fe224     1.0  0.56298  0.29191  0.75546  1.0000
  S   S451      1.0  0.55655  0.27478  0.78390  1.0000
  S   S452      1.0  0.57237  0.27818  0.72957  1.0000
  Fe  Fe225     1.0  0.53189  0.29773  0.78864  1.0000
  S   S453      1.0  0.50388  0.29041  0.80449  1.0000
  Fe  Fe226     1.0  0.57304  0.29242  0.79308  1.0000
  S   S454      1.0  0.59358  0.27804  0.81259  1.0000
  S   S455      1.0  0.53726  0.31411  0.75958  1.0000
  S   S456      1.0  0.58169  0.30792  0.76412  1.0000
  Fe  Fe227     1.0  0.68643  0.30054  0.88274  1.0000
  S   S457      1.0  0.65676  0.29502  0.88809  1.0000
  S   S458      1.0  0.71281  0.27843  0.87992  1.0000
  Fe  Fe228     1.0  0.67426  0.34314  0.88063  1.0000
  S   S459      1.0  0.64393  0.34012  0.88684  1.0000
  S   S460      1.0  0.67759  0.37364  0.87024  1.0000
  Fe  Fe229     1.0  0.65177  0.31514  0.90826  1.0000
  S   S461      1.0  0.63074  0.31112  0.93512  1.0000
  Fe  Fe230     1.0  0.65158  0.32061  0.86613  1.0000
  S   S462      1.0  0.63341  0.33000  0.84367  1.0000
  S   S463      1.0  0.68165  0.31960  0.90408  1.0000
  S   S464      1.0  0.68166  0.32450  0.85897  1.0000
  Fe  Fe231     1.0  0.57057  0.14139  0.69962  1.0000
  S   S465      1.0  0.55803  0.14502  0.67372  1.0000
  S   S466      1.0  0.58680  0.11468  0.71414  1.0000
  Fe  Fe232     1.0  0.55559  0.18275  0.70514  1.0000
  S   S467      1.0  0.54220  0.18926  0.67952  1.0000
  S   S468      1.0  0.54808  0.20114  0.72770  1.0000
  Fe  Fe233     1.0  0.53253  0.16156  0.68931  1.0000
  S   S469      1.0  0.50194  0.15791  0.69595  1.0000
  Fe  Fe234     1.0  0.56900  0.17238  0.66608  1.0000
  S   S470      1.0  0.54445  0.15586  0.71571  1.0000
  S   S471      1.0  0.58311  0.16782  0.69118  1.0000
  H   H1355     1.0  0.48164  0.18550  0.71943  1.0000
  H   H1356     1.0  0.50302  0.37179  0.73605  1.0000
  H   H1357     1.0  0.60751  0.41407  0.79131  1.0000
  H   H1358     1.0  0.51209  0.16197  0.65540  1.0000
  C   C1352     1.0  0.71240  0.25414  0.88668  1.0000
  H   H1359     1.0  0.63255  0.98936  0.64439  1.0000
  C   C1353     1.0  0.69637  0.22746  0.89244  1.0000
  C   C1354     1.0  0.69577  0.24696  0.88953  1.0000
  H   H1360     1.0  0.68352  0.22202  0.89408  1.0000
  H   H1361     1.0  0.68253  0.25641  0.88890  1.0000
  C   C1355     1.0  0.56437  0.25754  0.72851  1.0000
  C   C1356     1.0  0.57132  0.24870  0.71280  1.0000
  C   C1357     1.0  0.56635  0.23152  0.71216  1.0000
  C   C1358     1.0  0.55437  0.22303  0.72726  1.0000
  C   C1359     1.0  0.54727  0.23198  0.74286  1.0000
  C   C1360     1.0  0.55220  0.24915  0.74348  1.0000
  H   H1362     1.0  0.58071  0.25511  0.70112  1.0000
  H   H1363     1.0  0.57183  0.22481  0.70003  1.0000
  H   H1364     1.0  0.53801  0.22553  0.75463  1.0000
  H   H1365     1.0  0.54671  0.25578  0.75564  1.0000
  C   C1361     1.0  0.60560  0.29235  0.82031  1.0000
  C   C1362     1.0  0.60271  0.31172  0.81429  1.0000
  C   C1363     1.0  0.61162  0.32300  0.82138  1.0000
  C   C1364     1.0  0.62345  0.31502  0.83454  1.0000
  C   C1365     1.0  0.62642  0.29562  0.84055  1.0000
  C   C1366     1.0  0.61754  0.28431  0.83339  1.0000
  H   H1366     1.0  0.59348  0.31806  0.80426  1.0000
  H   H1367     1.0  0.60919  0.33801  0.81672  1.0000
  H   H1368     1.0  0.63545  0.28938  0.85076  1.0000
  H   H1369     1.0  0.61976  0.26932  0.83815  1.0000
  H   H1370     1.0  0.50829  0.22424  0.73561  1.0000
  C   C1367     1.0  0.64712  0.98130  0.78753  1.0000
  H   H1371     1.0  0.67603  0.43601  0.66763  1.0000
  C   C1368     1.0  0.50226  0.34917  0.78035  1.0000
  C   C1369     1.0  0.63057  0.43579  0.70442  1.0000
  H   H1372     1.0  0.50267  0.29494  0.76482  1.0000
  H   H1373     1.0  0.67277  0.45670  0.71478  1.0000
  S   S472      1.0  0.71072  0.99524  0.64522  1.0000
  C   C1370     1.0  0.69087  0.98515  0.65657  1.0000
  C   C1371     1.0  0.62694  0.00040  0.65264  1.0000
  H   H1374     1.0  0.66644  0.31112  0.94600  1.0000
  C   C1372     1.0  0.70686  0.41361  0.88916  1.0000
  C   C1373     1.0  0.70743  0.39503  0.89871  1.0000
  C   C1374     1.0  0.69874  0.38247  0.89303  1.0000
  C   C1375     1.0  0.68928  0.38848  0.87780  1.0000
  C   C1376     1.0  0.68878  0.40703  0.86824  1.0000
  C   C1377     1.0  0.69757  0.41953  0.87383  1.0000
  N   N114      1.0  0.49838  0.35368  0.76256  1.0000
  C   C1378     1.0  0.49695  0.20389  0.72671  1.0000
  C   C1379     1.0  0.59554  0.39845  0.75681  1.0000
  C   C1380     1.0  0.60107  0.37904  0.75707  1.0000
  C   C1381     1.0  0.58763  0.36722  0.76028  1.0000
  C   C1382     1.0  0.56843  0.37473  0.76301  1.0000
  C   C1383     1.0  0.56290  0.39412  0.76287  1.0000
  C   C1384     1.0  0.57636  0.40591  0.75992  1.0000
  H   H1375     1.0  0.61587  0.37311  0.75462  1.0000
  H   H1376     1.0  0.59212  0.35236  0.76028  1.0000
  H   H1377     1.0  0.54810  0.40010  0.76496  1.0000
  H   H1378     1.0  0.57186  0.42080  0.75974  1.0000
  H   H1379     1.0  0.67894  0.99676  0.75410  1.0000
  C   C1385     1.0  0.68610  0.00155  0.76311  1.0000
  C   C1386     1.0  0.52305  0.08132  0.71483  1.0000
  N   N115      1.0  0.65226  0.36356  0.93848  1.0000
  C   C1387     1.0  0.69468  0.45384  0.69058  1.0000
  C   C1388     1.0  0.65625  0.30809  0.95849  1.0000
  H   H1380     1.0  0.70284  0.44158  0.69768  1.0000
  C   C1389     1.0  0.62379  0.18129  0.65522  1.0000
  C   C1390     1.0  0.66931  0.97975  0.80845  1.0000
  C   C1391     1.0  0.48882  0.15953  0.67823  1.0000
  H   H1381     1.0  0.68147  0.41183  0.85646  1.0000
  N   N116      1.0  0.68549  0.02169  0.78482  1.0000
  C   C1392     1.0  0.64717  0.44914  0.67536  1.0000
  C   C1393     1.0  0.58022  0.05463  0.71319  1.0000
  C   C1394     1.0  0.57243  0.06968  0.70053  1.0000
  C   C1395     1.0  0.57474  0.08812  0.70027  1.0000
  C   C1396     1.0  0.58489  0.09164  0.71270  1.0000
  C   C1397     1.0  0.59327  0.07649  0.72485  1.0000
  C   C1398     1.0  0.59098  0.05804  0.72509  1.0000
  H   H1382     1.0  0.56417  0.06713  0.69120  1.0000
  H   H1383     1.0  0.56838  0.09964  0.69074  1.0000
  H   H1384     1.0  0.60121  0.07910  0.73444  1.0000
  H   H1385     1.0  0.59703  0.04658  0.73490  1.0000
  C   C1399     1.0  0.68094  0.99036  0.67353  1.0000
  H   H1386     1.0  0.61138  0.19276  0.65598  1.0000
  C   C1400     1.0  0.70105  0.46081  0.67167  1.0000
  C   C1401     1.0  0.65782  0.99474  0.81622  1.0000
  C   C1402     1.0  0.64085  0.00282  0.80968  1.0000
  C   C1403     1.0  0.63557  0.99624  0.79534  1.0000
  C   C1404     1.0  0.49131  0.33838  0.79446  1.0000
  C   C1405     1.0  0.51035  0.36462  0.74789  1.0000
  H   H1387     1.0  0.63179  0.01436  0.81568  1.0000
  S   S473      1.0  0.64456  0.45813  0.79870  1.0000
  H   H1388     1.0  0.50750  0.09914  0.68629  1.0000
  H   H1389     1.0  0.68581  0.00010  0.67962  1.0000
  H   H1390     1.0  0.60139  0.45891  0.69394  1.0000
  H   H1391     1.0  0.69946  0.36817  0.90034  1.0000
  C   C1406     1.0  0.65458  0.36930  0.91811  1.0000
  C   C1407     1.0  0.61453  0.46339  0.68553  1.0000
  H   H1392     1.0  0.62257  0.00272  0.79037  1.0000
  C   C1408     1.0  0.48715  0.28681  0.79230  1.0000
  H   H1393     1.0  0.66037  0.03680  0.79855  1.0000
  H   H1394     1.0  0.59998  0.14504  0.64135  1.0000
  C   C1409     1.0  0.66467  0.98306  0.68266  1.0000
  C   C1410     1.0  0.71296  0.99865  0.77785  1.0000
  N   N117      1.0  0.63105  0.44892  0.68841  1.0000
  C   C1411     1.0  0.64873  0.16878  0.63135  1.0000
  C   C1412     1.0  0.70756  0.97636  0.94032  1.0000
  C   C1413     1.0  0.52780  0.11121  0.71768  1.0000
  Fe  Fe235     1.0  0.71624  0.01602  0.86352  1.0000
  C   C1414     1.0  0.48640  0.16248  0.64563  1.0000
  C   C1415     1.0  0.48979  0.29062  0.77277  1.0000
  C   C1416     1.0  0.48065  0.19770  0.72575  1.0000
  H   H1395     1.0  0.51742  0.07262  0.70809  1.0000
  S   S474      1.0  0.60094  0.45766  0.77874  1.0000
  N   N118      1.0  0.64356  0.38252  0.82045  1.0000
  C   C1417     1.0  0.64019  0.40150  0.81981  1.0000
  C   C1418     1.0  0.63405  0.37463  0.81104  1.0000
  C   C1419     1.0  0.62717  0.41311  0.80934  1.0000
  C   C1420     1.0  0.62102  0.38586  0.80035  1.0000
  C   C1421     1.0  0.61757  0.40521  0.79956  1.0000
  C   C1422     1.0  0.65668  0.37054  0.83211  1.0000
  H   H1396     1.0  0.64759  0.40780  0.82737  1.0000
  H   H1397     1.0  0.63651  0.35957  0.81174  1.0000
  H   H1398     1.0  0.62459  0.42815  0.80876  1.0000
  H   H1399     1.0  0.61366  0.37967  0.79265  1.0000
  H   H1400     1.0  0.66241  0.35692  0.82729  1.0000
  H   H1401     1.0  0.66882  0.37736  0.83178  1.0000
  H   H1402     1.0  0.64937  0.36764  0.84683  1.0000
  N   N119      1.0  0.60605  0.25120  0.75570  1.0000
  C   C1423     1.0  0.60410  0.25234  0.77418  1.0000
  C   C1424     1.0  0.59908  0.23771  0.75054  1.0000
  C   C1425     1.0  0.59454  0.24006  0.78804  1.0000
  C   C1426     1.0  0.58924  0.22535  0.76400  1.0000
  C   C1427     1.0  0.58689  0.22663  0.78287  1.0000
  C   C1428     1.0  0.61596  0.26441  0.74149  1.0000
  H   H1403     1.0  0.60962  0.26305  0.77828  1.0000
  H   H1404     1.0  0.60053  0.23683  0.73589  1.0000
  H   H1405     1.0  0.59262  0.24139  0.80264  1.0000
  H   H1406     1.0  0.58309  0.21518  0.75974  1.0000
  H   H1407     1.0  0.57897  0.21738  0.79343  1.0000
  H   H1408     1.0  0.63122  0.26118  0.74198  1.0000
  H   H1409     1.0  0.61387  0.26403  0.72717  1.0000
  H   H1410     1.0  0.61023  0.27898  0.74390  1.0000
  H   H1411     1.0  0.52338  0.35530  0.74255  1.0000
  H   H1412     1.0  0.52574  0.12625  0.71323  1.0000
  H   H1413     1.0  0.57162  0.30719  0.84540  1.0000
  C   C1429     1.0  0.67570  0.03713  0.79468  1.0000
  H   H1414     1.0  0.65868  0.38340  0.91376  1.0000
  H   H1415     1.0  0.65709  0.98719  0.69568  1.0000
  C   C1430     1.0  0.63871  0.01243  0.65394  1.0000
  S   S475      1.0  0.58371  0.18485  0.63743  1.0000
  H   H1416     1.0  0.72705  0.99193  0.78009  1.0000
  S   S476      1.0  0.71401  0.19084  0.89352  1.0000
  H   H1417     1.0  0.60838  0.03741  0.68475  1.0000
  C   C1431     1.0  0.66390  0.97299  0.79433  1.0000
  C   C1432     1.0  0.68454  0.97254  0.64879  1.0000
  H   H1418     1.0  0.67765  0.37211  0.93998  1.0000
  C   C1433     1.0  0.50994  0.10938  0.69412  1.0000
  C   C1434     1.0  0.63204  0.02583  0.66555  1.0000
  C   C1435     1.0  0.63735  0.35522  0.94807  1.0000
  C   C1436     1.0  0.53323  0.07271  0.72919  1.0000
  H   H1419     1.0  0.71478  0.39031  0.91046  1.0000
  H   H1420     1.0  0.64596  0.41209  0.72045  1.0000
  H   H1421     1.0  0.53582  0.05756  0.73317  1.0000
  C   C1437     1.0  0.67762  0.46236  0.70032  1.0000
  H   H1422     1.0  0.64117  0.03488  0.66712  1.0000
  H   H1423     1.0  0.69705  0.43378  0.86635  1.0000
  C   C1438     1.0  0.66318  0.43562  0.67790  1.0000
  C   C1439     1.0  0.67693  0.01618  0.77274  1.0000
  C   C1440     1.0  0.49723  0.16141  0.65939  1.0000
  H   H1424     1.0  0.71130  0.98104  0.75876  1.0000
  H   H1425     1.0  0.72611  0.19676  0.85069  1.0000
  C   C1441     1.0  0.64642  0.42228  0.70758  1.0000
  H   H1426     1.0  0.67803  0.05075  0.78581  1.0000
  C   C1442     1.0  0.70418  0.99265  0.76583  1.0000
  C   C1443     1.0  0.71355  0.21500  0.89262  1.0000
  N   N120      1.0  0.52061  0.10034  0.70915  1.0000
  H   H1427     1.0  0.61807  0.16810  0.65751  1.0000
  H   H1428     1.0  0.61792  0.43571  0.71495  1.0000
  C   C1444     1.0  0.66561  0.36587  0.94768  1.0000
  C   C1445     1.0  0.66281  0.42220  0.69419  1.0000
  H   H1429     1.0  0.51769  0.11961  0.68387  1.0000
  H   H1430     1.0  0.51456  0.37562  0.75350  1.0000
  H   H1431     1.0  0.66710  0.44819  0.82744  1.0000
  H   H1432     1.0  0.60185  0.97473  0.67056  1.0000
  S   S477      1.0  0.71851  0.42871  0.89639  1.0000
  C   C1446     1.0  0.70340  0.01337  0.78716  1.0000
  H   H1433     1.0  0.54458  0.11171  0.73809  1.0000
  N   N121      1.0  0.58402  0.29995  0.87014  1.0000
  C   C1447     1.0  0.58729  0.31769  0.86901  1.0000
  C   C1448     1.0  0.59128  0.28552  0.88287  1.0000
  C   C1449     1.0  0.59823  0.32128  0.88068  1.0000
  C   C1450     1.0  0.60226  0.28864  0.89477  1.0000
  C   C1451     1.0  0.60569  0.30667  0.89367  1.0000
  C   C1452     1.0  0.57190  0.29649  0.85837  1.0000
  H   H1434     1.0  0.58182  0.32910  0.85874  1.0000
  H   H1435     1.0  0.58864  0.27147  0.88381  1.0000
  H   H1436     1.0  0.60129  0.33524  0.87934  1.0000
  H   H1437     1.0  0.60815  0.27719  0.90479  1.0000
  H   H1438     1.0  0.61420  0.30927  0.90282  1.0000
  H   H1439     1.0  0.57719  0.28271  0.85372  1.0000
  H   H1440     1.0  0.55733  0.29669  0.86622  1.0000
  C   C1453     1.0  0.49548  0.21956  0.73500  1.0000
  H   H1441     1.0  0.68236  0.97335  0.81335  1.0000
  C   C1454     1.0  0.60228  0.01501  0.67378  1.0000
  Fe  Fe236     1.0  0.72137  0.45808  0.88051  1.0000
  H   H1442     1.0  0.66269  0.02270  0.77094  1.0000
  H   H1443     1.0  0.68067  0.03585  0.80811  1.0000
  C   C1455     1.0  0.59733  0.98834  0.66166  1.0000
  H   H1444     1.0  0.51068  0.19657  0.72111  1.0000
  C   C1456     1.0  0.61368  0.02721  0.67548  1.0000
  H   H1445     1.0  0.49020  0.24608  0.75470  1.0000
  H   H1446     1.0  0.49612  0.11714  0.70003  1.0000
  H   H1447     1.0  0.54953  0.07715  0.74828  1.0000
  H   H1448     1.0  0.67532  0.41200  0.69656  1.0000
  Fe  Fe237     1.0  0.61891  0.97877  0.75071  1.0000
  C   C1457     1.0  0.53818  0.10308  0.73196  1.0000
  C   C1458     1.0  0.48407  0.34720  0.75821  1.0000
  H   H1449     1.0  0.51404  0.35369  0.78365  1.0000
  H   H1450     1.0  0.71038  0.01798  0.79639  1.0000
  H   H1451     1.0  0.71083  0.99887  0.90834  1.0000
  H   H1452     1.0  0.64142  0.37009  0.91279  1.0000
  H   H1453     1.0  0.48140  0.35016  0.74398  1.0000
  H   H1454     1.0  0.69613  0.98814  0.93894  1.0000
  H   H1455     1.0  0.69456  0.21589  0.84986  1.0000
  C   C1459     1.0  0.72024  0.25063  0.84220  1.0000
  H   H1456     1.0  0.64873  0.15493  0.63975  1.0000
  C   C1460     1.0  0.66774  0.46266  0.82127  1.0000
  C   C1461     1.0  0.70674  0.22269  0.84716  1.0000
  S   S478      1.0  0.58860  0.98081  0.71298  1.0000
  H   H1457     1.0  0.63150  0.18083  0.66665  1.0000
  H   H1458     1.0  0.59880  0.98600  0.64709  1.0000
  H   H1459     1.0  0.62723  0.35250  0.94072  1.0000
  Fe  Fe238     1.0  0.72289  0.97367  0.86475  1.0000
  S   S479      1.0  0.71557  0.03694  0.88255  1.0000
  S   S480      1.0  0.71704  0.97632  0.83540  1.0000
  Fe  Fe239     1.0  0.61986  0.97269  0.71112  1.0000
  H   H1460     1.0  0.58220  0.99325  0.66678  1.0000
  H   H1461     1.0  0.58308  0.97046  0.80616  1.0000
  H   H1462     1.0  0.64785  0.46006  0.66310  1.0000
  H   H1463     1.0  0.71396  0.06532  0.90432  1.0000
  H   H1464     1.0  0.49472  0.33431  0.80843  1.0000
  N   N122      1.0  0.63627  0.18382  0.63704  1.0000
  S   S481      1.0  0.72192  0.44859  0.65992  1.0000
  S   S482      1.0  0.64146  0.97224  0.76942  1.0000
  H   H1465     1.0  0.49301  0.16387  0.63104  1.0000
  H   H1466     1.0  0.69065  0.25068  0.84487  1.0000
  C   C1462     1.0  0.65816  0.97062  0.67478  1.0000
  S   S483      1.0  0.60145  0.46913  0.73367  1.0000
  C   C1463     1.0  0.70455  0.24217  0.84443  1.0000
  N   N123      1.0  0.72304  0.97494  0.92648  1.0000
  C   C1464     1.0  0.72453  0.98954  0.90981  1.0000
  C   C1465     1.0  0.72467  0.21192  0.84760  1.0000
  C   C1466     1.0  0.72788  0.05617  0.87836  1.0000
  H   H1467     1.0  0.71854  0.26572  0.84107  1.0000
  Fe  Fe240     1.0  0.62934  0.46619  0.77365  1.0000
  H   H1468     1.0  0.68566  0.46578  0.83961  1.0000
  H   H1469     1.0  0.72815  0.41242  0.83919  1.0000
  H   H1470     1.0  0.61289  0.46657  0.67061  1.0000
  H   H1471     1.0  0.72929  0.98307  0.89702  1.0000
  C   C1467     1.0  0.72948  0.24165  0.88758  1.0000
  H   H1472     1.0  0.62589  0.21311  0.63058  1.0000
  Fe  Fe241     1.0  0.70379  0.83704  0.99984  1.0000
  S   S484      1.0  0.69002  0.81086  0.00456  1.0000
  C   C1468     1.0  0.64285  0.96206  0.29114  1.0000
  S   S485      1.0  0.71272  0.53677  0.16284  1.0000
  C   C1469     1.0  0.60812  0.71148  0.22910  1.0000
  S   S486      1.0  0.69291  0.86546  0.00822  1.0000
  H   H1473     1.0  0.61139  0.70827  0.24314  1.0000
  C   C1470     1.0  0.71936  0.57266  0.05658  1.0000
  C   C1471     1.0  0.71255  0.55354  0.24309  1.0000
  Fe  Fe242     1.0  0.61079  0.76333  0.98107  1.0000
  S   S487      1.0  0.60924  0.74499  0.00916  1.0000
  S   S488      1.0  0.71733  0.89342  0.19324  1.0000
  S   S489      1.0  0.58560  0.71957  0.99367  1.0000
  Fe  Fe243     1.0  0.57943  0.74484  0.00762  1.0000
  S   S490      1.0  0.55689  0.74764  0.03338  1.0000
  Fe  Fe244     1.0  0.61574  0.72084  0.99361  1.0000
  S   S491      1.0  0.57997  0.76525  0.98040  1.0000
  Fe  Fe245     1.0  0.56029  0.69816  0.14119  1.0000
  S   S492      1.0  0.55354  0.66959  0.15512  1.0000
  S   S493      1.0  0.57665  0.70217  0.11135  1.0000
  Fe  Fe246     1.0  0.55167  0.71241  0.17896  1.0000
  S   S494      1.0  0.54493  0.68498  0.19511  1.0000
  S   S495      1.0  0.54961  0.73731  0.19314  1.0000
  Fe  Fe247     1.0  0.57016  0.67172  0.17653  1.0000
  S   S496      1.0  0.59459  0.65176  0.18792  1.0000
  Fe  Fe248     1.0  0.52877  0.68565  0.17231  1.0000
  S   S497      1.0  0.49828  0.68229  0.18371  1.0000
  S   S498      1.0  0.57800  0.69934  0.16194  1.0000
  S   S499      1.0  0.53440  0.71407  0.15684  1.0000
  Fe  Fe249     1.0  0.70162  0.56114  0.14188  1.0000
  S   S500      1.0  0.67878  0.54765  0.13764  1.0000
  H   H1474     1.0  0.49155  0.70622  0.21166  1.0000
  Fe  Fe250     1.0  0.69236  0.55106  0.18481  1.0000
  S   S501      1.0  0.66863  0.53687  0.18330  1.0000
  S   S502      1.0  0.69458  0.55116  0.21505  1.0000
  Fe  Fe251     1.0  0.68831  0.52425  0.16006  1.0000
  S   S503      1.0  0.69418  0.49353  0.15727  1.0000
  Fe  Fe252     1.0  0.66121  0.56158  0.16121  1.0000
  S   S504      1.0  0.63137  0.57574  0.15858  1.0000
  H   H1475     1.0  0.49465  0.76129  0.25666  1.0000
  S   S505      1.0  0.68333  0.57668  0.16419  1.0000
  H   H1476     1.0  0.68579  0.60913  0.12518  1.0000
  S   S506      1.0  0.56534  0.78278  0.27443  1.0000
  S   S507      1.0  0.57336  0.72849  0.27220  1.0000
  H   H1477     1.0  0.71922  0.93572  0.96988  1.0000
  C   C1472     1.0  0.50500  0.72289  0.22354  1.0000
  S   S508      1.0  0.63452  0.69640  0.00802  1.0000
  C   C1473     1.0  0.64232  0.57063  0.21367  1.0000
  C   C1474     1.0  0.71787  0.67384  0.98013  1.0000
  H   H1478     1.0  0.64976  0.76819  0.99817  1.0000
  S   S509      1.0  0.71655  0.86224  0.05374  1.0000
  H   H1479     1.0  0.72282  0.77799  0.99782  1.0000
  C   C1475     1.0  0.71768  0.88895  0.21758  1.0000
  C   C1476     1.0  0.70103  0.88639  0.23035  1.0000
  C   C1477     1.0  0.70111  0.88150  0.24975  1.0000
  H   H1480     1.0  0.68806  0.88785  0.22517  1.0000
  H   H1481     1.0  0.68830  0.87911  0.25940  1.0000
  H   H1482     1.0  0.68389  0.64181  0.00095  1.0000
  C   C1478     1.0  0.61997  0.78147  0.04589  1.0000
  C   C1479     1.0  0.66143  0.66540  0.00419  1.0000
  H   H1483     1.0  0.66199  0.66480  0.01874  1.0000
  C   C1480     1.0  0.65938  0.58938  0.22527  1.0000
  H   H1484     1.0  0.65745  0.59527  0.12968  1.0000
  H   H1485     1.0  0.70573  0.52798  0.98837  1.0000
  H   H1486     1.0  0.63568  0.82626  0.27515  1.0000
  C   C1481     1.0  0.62634  0.56777  0.20810  1.0000
  H   H1487     1.0  0.67454  0.70788  0.96470  1.0000
  N   N124      1.0  0.60447  0.72970  0.22032  1.0000
  S   S510      1.0  0.62271  0.79058  0.97465  1.0000
  H   H1488     1.0  0.59505  0.75729  0.22651  1.0000
  Fe  Fe253     1.0  0.71788  0.86078  0.02283  1.0000
  C   C1482     1.0  0.64470  0.47373  0.17287  1.0000
  H   H1489     1.0  0.71409  0.90760  0.28983  1.0000
  C   C1483     1.0  0.62136  0.79559  0.03020  1.0000
  C   C1484     1.0  0.60986  0.59733  0.21656  1.0000
  C   C1485     1.0  0.48202  0.75486  0.25797  1.0000
  C   C1486     1.0  0.55383  0.73453  0.21623  1.0000
  C   C1487     1.0  0.55862  0.71681  0.22679  1.0000
  C   C1488     1.0  0.56360  0.71516  0.24443  1.0000
  C   C1489     1.0  0.56372  0.73115  0.25171  1.0000
  C   C1490     1.0  0.55791  0.74885  0.24159  1.0000
  C   C1491     1.0  0.55309  0.75051  0.22387  1.0000
  H   H1490     1.0  0.55911  0.70438  0.22113  1.0000
  H   H1491     1.0  0.56793  0.70141  0.25223  1.0000
  H   H1492     1.0  0.55780  0.76128  0.24708  1.0000
  H   H1493     1.0  0.54920  0.76428  0.21587  1.0000
  C   C1492     1.0  0.57704  0.84358  0.28398  1.0000
  H   H1494     1.0  0.50523  0.66607  0.14968  1.0000
  C   C1493     1.0  0.60548  0.63219  0.17715  1.0000
  C   C1494     1.0  0.62432  0.62442  0.17836  1.0000
  C   C1495     1.0  0.63271  0.60749  0.17200  1.0000
  C   C1496     1.0  0.62220  0.59813  0.16456  1.0000
  C   C1497     1.0  0.60356  0.60622  0.16280  1.0000
  C   C1498     1.0  0.59524  0.62324  0.16898  1.0000
  H   H1495     1.0  0.63232  0.63130  0.18464  1.0000
  H   H1496     1.0  0.64704  0.60140  0.17348  1.0000
  H   H1497     1.0  0.59535  0.59907  0.15704  1.0000
  H   H1498     1.0  0.58069  0.62906  0.16808  1.0000
  C   C1499     1.0  0.60199  0.70087  0.20270  1.0000
  H   H1499     1.0  0.65381  0.49989  0.17188  1.0000
  C   C1500     1.0  0.56251  0.73645  0.05553  1.0000
  C   C1501     1.0  0.54825  0.73544  0.07141  1.0000
  C   C1502     1.0  0.55236  0.72571  0.08897  1.0000
  C   C1503     1.0  0.57081  0.71711  0.09072  1.0000
  C   C1504     1.0  0.58512  0.71881  0.07499  1.0000
  C   C1505     1.0  0.58099  0.72827  0.05748  1.0000
  H   H1500     1.0  0.53392  0.74182  0.07005  1.0000
  H   H1501     1.0  0.54121  0.72445  0.10099  1.0000
  H   H1502     1.0  0.59942  0.71218  0.07623  1.0000
  H   H1503     1.0  0.59210  0.72885  0.04544  1.0000
  H   H1504     1.0  0.68189  0.94909  0.25398  1.0000
  C   C1506     1.0  0.67349  0.65331  0.97522  1.0000
  H   H1505     1.0  0.66468  0.57719  0.23552  1.0000
  H   H1506     1.0  0.59745  0.60822  0.21707  1.0000
  C   C1507     1.0  0.59850  0.71947  0.19379  1.0000
  C   C1508     1.0  0.69747  0.95288  0.29273  1.0000
  Fe  Fe254     1.0  0.71245  0.87650  0.98205  1.0000
  Fe  Fe255     1.0  0.56901  0.75265  0.28812  1.0000
  S   S511      1.0  0.72191  0.84828  0.97300  1.0000
  H   H1507     1.0  0.63033  0.47862  0.17903  1.0000
  C   C1509     1.0  0.49506  0.79491  0.29069  1.0000
  C   C1510     1.0  0.60430  0.77258  0.05070  1.0000
  H   H1508     1.0  0.70069  0.54836  0.25244  1.0000
  H   H1509     1.0  0.62604  0.61270  0.22662  1.0000
  C   C1511     1.0  0.67166  0.80547  0.99547  1.0000
  C   C1512     1.0  0.66748  0.78719  0.00054  1.0000
  C   C1513     1.0  0.65284  0.78226  0.99403  1.0000
  C   C1514     1.0  0.64212  0.79561  0.98237  1.0000
  C   C1515     1.0  0.66099  0.81878  0.98373  1.0000
  H   H1510     1.0  0.67559  0.77677  0.00964  1.0000
  H   H1511     1.0  0.69797  0.61624  0.10234  1.0000
  N   N125      1.0  0.59208  0.79134  0.02392  1.0000
  C   C1516     1.0  0.59031  0.77787  0.03959  1.0000
  C   C1517     1.0  0.60718  0.80039  0.01933  1.0000
  C   C1518     1.0  0.57737  0.79673  0.01234  1.0000
  H   H1512     1.0  0.57814  0.77098  0.04347  1.0000
  H   H1513     1.0  0.60853  0.81116  0.00694  1.0000
  H   H1514     1.0  0.56874  0.78557  0.01454  1.0000
  H   H1515     1.0  0.56800  0.80980  0.01579  1.0000
  C   C1519     1.0  0.67660  0.47958  0.16099  1.0000
  C   C1520     1.0  0.64865  0.67943  0.99535  1.0000
  C   C1521     1.0  0.67391  0.65243  0.99412  1.0000
  H   H1516     1.0  0.62680  0.55550  0.20209  1.0000
  H   H1517     1.0  0.59163  0.84515  0.27912  1.0000
  H   H1518     1.0  0.65722  0.60217  0.23154  1.0000
  H   H1519     1.0  0.59416  0.72289  0.18023  1.0000
  H   H1520     1.0  0.62019  0.74907  0.22411  1.0000
  H   H1521     1.0  0.71646  0.83200  0.20011  1.0000
  C   C1522     1.0  0.70517  0.68357  0.99313  1.0000
  S   S512      1.0  0.71934  0.87129  0.28046  1.0000
  H   H1522     1.0  0.70723  0.68114  0.00753  1.0000
  H   H1523     1.0  0.60054  0.68964  0.19602  1.0000
  H   H1524     1.0  0.63103  0.77745  0.05426  1.0000
  C   C1523     1.0  0.72010  0.52927  0.98826  1.0000
  Fe  Fe256     1.0  0.71330  0.61857  0.97474  1.0000
  C   C1524     1.0  0.64795  0.68012  0.97655  1.0000
  S   S513      1.0  0.60750  0.80310  0.28222  1.0000
  C   C1525     1.0  0.72749  0.87440  0.06562  1.0000
  C   C1526     1.0  0.68873  0.95834  0.27699  1.0000
  H   H1525     1.0  0.60298  0.76160  0.06290  1.0000
  H   H1526     1.0  0.67488  0.62922  0.11014  1.0000
  C   C1527     1.0  0.68964  0.69611  0.98749  1.0000
  S   S514      1.0  0.72344  0.62130  0.00026  1.0000
  C   C1528     1.0  0.71337  0.55612  0.22362  1.0000
  S   S515      1.0  0.70122  0.90392  0.96368  1.0000
  H   H1527     1.0  0.70563  0.54888  0.06866  1.0000
  H   H1528     1.0  0.60432  0.74071  0.24481  1.0000
  H   H1529     1.0  0.69848  0.91641  0.26220  1.0000
  C   C1529     1.0  0.60618  0.74493  0.22933  1.0000
  H   H1530     1.0  0.54261  0.82776  0.27092  1.0000
  H   H1531     1.0  0.63805  0.69085  0.96967  1.0000
  H   H1532     1.0  0.51446  0.74059  0.23776  1.0000
  C   C1530     1.0  0.68905  0.94517  0.26593  1.0000
  H   H1533     1.0  0.57597  0.83189  0.26001  1.0000
  H   H1534     1.0  0.70686  0.85412  0.20819  1.0000
  C   C1531     1.0  0.50232  0.73569  0.23570  1.0000
  H   H1535     1.0  0.70574  0.55109  0.10148  1.0000
  S   S516      1.0  0.71523  0.58739  0.98225  1.0000
  C   C1532     1.0  0.62616  0.59984  0.22181  1.0000
  H   H1536     1.0  0.58375  0.79906  0.99723  1.0000
  C   C1533     1.0  0.71789  0.87920  0.25652  1.0000
  N   N126      1.0  0.64211  0.58653  0.22033  1.0000
  C   C1534     1.0  0.62952  0.82511  0.28984  1.0000
  H   H1537     1.0  0.59660  0.74821  0.19598  1.0000
  C   C1535     1.0  0.49107  0.66496  0.15694  1.0000
  H   H1538     1.0  0.48259  0.81802  0.27169  1.0000
  H   H1539     1.0  0.63813  0.82434  0.96827  1.0000
  H   H1540     1.0  0.60919  0.68242  0.22767  1.0000
  H   H1541     1.0  0.51898  0.71810  0.21622  1.0000
  H   H1542     1.0  0.63793  0.96034  0.27898  1.0000
  C   C1536     1.0  0.71173  0.55981  0.07151  1.0000
  H   H1543     1.0  0.64239  0.57431  0.11805  1.0000
  H   H1544     1.0  0.59780  0.57952  0.20458  1.0000
  N   N127      1.0  0.59453  0.67958  0.05481  1.0000
  C   C1537     1.0  0.58332  0.67683  0.07202  1.0000
  C   C1538     1.0  0.58679  0.68781  0.03924  1.0000
  C   C1539     1.0  0.56380  0.68229  0.07392  1.0000
  C   C1540     1.0  0.56733  0.69358  0.04067  1.0000
  C   C1541     1.0  0.55580  0.69083  0.05814  1.0000
  C   C1542     1.0  0.61503  0.67491  0.05300  1.0000
  H   H1545     1.0  0.58942  0.67117  0.08454  1.0000
  H   H1546     1.0  0.59576  0.69033  0.02570  1.0000
  H   H1547     1.0  0.55508  0.68078  0.08770  1.0000
  H   H1548     1.0  0.56127  0.70070  0.02841  1.0000
  H   H1549     1.0  0.54077  0.69586  0.05952  1.0000
  H   H1550     1.0  0.62118  0.66774  0.04078  1.0000
  H   H1551     1.0  0.62095  0.68798  0.05070  1.0000
  H   H1552     1.0  0.61947  0.66552  0.06564  1.0000
  N   N128      1.0  0.67478  0.60282  0.10338  1.0000
  C   C1543     1.0  0.67941  0.60110  0.08490  1.0000
  C   C1544     1.0  0.66135  0.59370  0.11509  1.0000
  C   C1545     1.0  0.67116  0.58929  0.07790  1.0000
  C   C1546     1.0  0.65272  0.58186  0.10855  1.0000
  C   C1547     1.0  0.65784  0.57949  0.08988  1.0000
  C   C1548     1.0  0.68369  0.61509  0.11057  1.0000
  H   H1553     1.0  0.69003  0.60835  0.07557  1.0000
  H   H1554     1.0  0.67553  0.58734  0.06341  1.0000
  H   H1555     1.0  0.65163  0.56997  0.08475  1.0000
  C   C1549     1.0  0.48446  0.67144  0.17391  1.0000
  C   C1550     1.0  0.71173  0.56105  0.09017  1.0000
  C   C1551     1.0  0.59985  0.73378  0.20283  1.0000
  C   C1552     1.0  0.71956  0.84579  0.20090  1.0000
  H   H1556     1.0  0.69519  0.47584  0.19678  1.0000
  C   C1553     1.0  0.60686  0.69681  0.22047  1.0000
  C   C1554     1.0  0.69826  0.92683  0.27059  1.0000
  H   H1557     1.0  0.67047  0.59058  0.21257  1.0000
  C   C1555     1.0  0.61004  0.58124  0.20955  1.0000
  H   H1558     1.0  0.65501  0.56019  0.21240  1.0000
  S   S517      1.0  0.71796  0.57091  0.03350  1.0000
  C   C1556     1.0  0.65796  0.48583  0.16880  1.0000
  H   H1559     1.0  0.66397  0.83290  0.97970  1.0000
  H   H1560     1.0  0.48455  0.65196  0.13620  1.0000
  S   S518      1.0  0.71869  0.57785  0.11743  1.0000
  C   C1557     1.0  0.54957  0.83374  0.27918  1.0000
  H   H1561     1.0  0.69350  0.96314  0.96689  1.0000
  N   N129      1.0  0.48469  0.74189  0.24483  1.0000
  C   C1558     1.0  0.56820  0.83618  0.27299  1.0000
  H   H1562     1.0  0.72596  0.55583  0.26559  1.0000
  C   C1559     1.0  0.66032  0.66701  0.96653  1.0000
  C   C1560     1.0  0.64632  0.81386  0.97726  1.0000
  C   C1561     1.0  0.72873  0.56292  0.21170  1.0000
  H   H1563     1.0  0.63351  0.80258  0.02623  1.0000
  S   S519      1.0  0.72716  0.83159  0.01652  1.0000
  H   H1564     1.0  0.71297  0.54378  0.01185  1.0000
  C   C1562     1.0  0.72688  0.55773  0.25059  1.0000
  H   H1565     1.0  0.71833  0.84319  0.23756  1.0000
  C   C1563     1.0  0.72441  0.87078  0.08533  1.0000
  Fe  Fe257     1.0  0.58851  0.73982  0.96632  1.0000
  H   H1566     1.0  0.72953  0.56503  0.19670  1.0000
  H   H1567     1.0  0.67935  0.70338  0.99751  1.0000
  H   H1568     1.0  0.71505  0.86121  0.09282  1.0000
  C   C1564     1.0  0.72414  0.53814  0.00140  1.0000
  C   C1565     1.0  0.71955  0.57509  0.09410  1.0000
  C   C1566     1.0  0.70705  0.92191  0.28629  1.0000
  H   H1569     1.0  0.72215  0.80806  0.97579  1.0000
  C   C1567     1.0  0.48105  0.80452  0.28024  1.0000
  S   S520      1.0  0.61967  0.73914  0.96523  1.0000
  Fe  Fe258     1.0  0.58370  0.78663  0.29349  1.0000
  C   C1568     1.0  0.48957  0.71629  0.22092  1.0000
  H   H1570     1.0  0.72630  0.50432  0.27957  1.0000
  S   S521      1.0  0.51468  0.80534  0.29024  1.0000
  C   C1569     1.0  0.72735  0.58663  0.06046  1.0000
  Fe  Fe259     1.0  0.72811  0.58984  0.00644  1.0000
  C   C1570     1.0  0.72753  0.58775  0.07916  1.0000
  H   H1571     1.0  0.72254  0.85391  0.18651  1.0000
  C   C1571     1.0  0.68693  0.69866  0.96903  1.0000
  H   H1572     1.0  0.64572  0.84399  0.29518  1.0000
  H   H1573     1.0  0.72981  0.66401  0.98469  1.0000
  H   H1574     1.0  0.71931  0.59838  0.54643  1.0000
  C   C1572     1.0  0.63815  0.74646  0.51821  1.0000
  N   N130      1.0  0.67669  0.86735  0.43036  1.0000
  H   H1575     1.0  0.66746  0.86825  0.40471  1.0000
  H   H1576     1.0  0.68710  0.86985  0.45422  1.0000
  S   S522      1.0  0.51936  0.77050  0.56539  1.0000
  S   S523      1.0  0.50022  0.74875  0.61927  1.0000
  H   H1577     1.0  0.67705  0.89865  0.38994  1.0000
  C   C1573     1.0  0.71097  0.59226  0.50501  1.0000
  S   S524      1.0  0.71143  0.63862  0.47870  1.0000
  Fe  Fe260     1.0  0.70563  0.85023  0.48916  1.0000
  H   H1578     1.0  0.64134  0.71083  0.51905  1.0000
  S   S525      1.0  0.67564  0.84589  0.49092  1.0000
  S   S526      1.0  0.66553  0.88764  0.30510  1.0000
  H   H1579     1.0  0.59213  0.85590  0.30634  1.0000
  H   H1580     1.0  0.72227  0.56364  0.55225  1.0000
  H   H1581     1.0  0.65182  0.73970  0.51187  1.0000
  S   S527      1.0  0.71242  0.87868  0.47561  1.0000
  H   H1582     1.0  0.57671  0.84658  0.32653  1.0000
  Fe  Fe261     1.0  0.63830  0.76048  0.46508  1.0000
  S   S528      1.0  0.63378  0.73152  0.47942  1.0000
  S   S529      1.0  0.66295  0.77055  0.47116  1.0000
  Fe  Fe262     1.0  0.61075  0.76290  0.43875  1.0000
  S   S530      1.0  0.60417  0.73421  0.45136  1.0000
  S   S531      1.0  0.60242  0.78144  0.41214  1.0000
  Fe  Fe263     1.0  0.60296  0.74283  0.47918  1.0000
  S   S532      1.0  0.58263  0.73197  0.50518  1.0000
  Fe  Fe264     1.0  0.63532  0.72534  0.45089  1.0000
  S   S533      1.0  0.65290  0.70100  0.43748  1.0000
  S   S534      1.0  0.60748  0.77242  0.46656  1.0000
  S   S535      1.0  0.64185  0.75349  0.43650  1.0000
  H   H1583     1.0  0.68278  0.83998  0.44588  1.0000
  S   S536      1.0  0.72249  0.84795  0.51190  1.0000
  C   C1574     1.0  0.67123  0.84920  0.43913  1.0000
  H   H1584     1.0  0.70802  0.60041  0.49169  1.0000
  C   C1575     1.0  0.65581  0.94828  0.31937  1.0000
  C   C1576     1.0  0.71723  0.59131  0.53583  1.0000
  Fe  Fe265     1.0  0.56455  0.76286  0.32717  1.0000
  S   S537      1.0  0.55949  0.79380  0.31624  1.0000
  S   S538      1.0  0.56581  0.74978  0.35753  1.0000
  H   H1585     1.0  0.69769  0.89995  0.43959  1.0000
  H   H1586     1.0  0.65853  0.85125  0.45007  1.0000
  S   S539      1.0  0.54432  0.75651  0.31133  1.0000
  H   H1587     1.0  0.63999  0.81782  0.36738  1.0000
  Fe  Fe266     1.0  0.68919  0.86110  0.34838  1.0000
  S   S540      1.0  0.65950  0.87624  0.35096  1.0000
  S   S541      1.0  0.69764  0.84433  0.37561  1.0000
  Fe  Fe267     1.0  0.65743  0.86297  0.32704  1.0000
  S   S542      1.0  0.63222  0.84799  0.33428  1.0000
  H   H1588     1.0  0.58935  0.77127  0.53936  1.0000
  S   S543      1.0  0.68677  0.84653  0.32549  1.0000
  S   S544      1.0  0.70034  0.88487  0.32823  1.0000
  C   C1577     1.0  0.62737  0.71601  0.52706  1.0000
  H   H1589     1.0  0.61470  0.78995  0.52444  1.0000
  C   C1578     1.0  0.68769  0.90153  0.41393  1.0000
  C   C1579     1.0  0.62706  0.83409  0.32003  1.0000
  C   C1580     1.0  0.61347  0.82257  0.32761  1.0000
  H   H1590     1.0  0.69256  0.91456  0.40733  1.0000
  H   H1591     1.0  0.60704  0.82170  0.34222  1.0000
  C   C1581     1.0  0.50348  0.75417  0.52735  1.0000
  N   N131      1.0  0.56768  0.84807  0.30086  1.0000
  H   H1592     1.0  0.51311  0.72519  0.52442  1.0000
  N   N132      1.0  0.62411  0.73634  0.52633  1.0000
  C   C1582     1.0  0.67901  0.89260  0.40419  1.0000
  H   H1593     1.0  0.59703  0.80398  0.32221  1.0000
  C   C1583     1.0  0.61735  0.77488  0.52511  1.0000
  C   C1584     1.0  0.59095  0.77320  0.39758  1.0000
  C   C1585     1.0  0.58892  0.78367  0.37977  1.0000
  C   C1586     1.0  0.58088  0.77690  0.36744  1.0000
  C   C1587     1.0  0.57466  0.75967  0.37292  1.0000
  C   C1588     1.0  0.57628  0.74947  0.39090  1.0000
  C   C1589     1.0  0.58444  0.75614  0.40314  1.0000
  H   H1594     1.0  0.59383  0.79692  0.37536  1.0000
  H   H1595     1.0  0.57967  0.78490  0.35365  1.0000
  H   H1596     1.0  0.57138  0.73620  0.39529  1.0000
  H   H1597     1.0  0.58569  0.74805  0.41687  1.0000
  C   C1590     1.0  0.66984  0.68441  0.44883  1.0000
  C   C1591     1.0  0.68346  0.67237  0.43853  1.0000
  C   C1592     1.0  0.69671  0.65863  0.44730  1.0000
  C   C1593     1.0  0.69620  0.65660  0.46656  1.0000
  C   C1594     1.0  0.68258  0.66866  0.47683  1.0000
  C   C1595     1.0  0.66960  0.68261  0.46801  1.0000
  H   H1598     1.0  0.68373  0.67362  0.42370  1.0000
  H   H1599     1.0  0.70704  0.64939  0.43924  1.0000
  H   H1600     1.0  0.68203  0.66715  0.49174  1.0000
  H   H1601     1.0  0.65914  0.69168  0.47612  1.0000
  H   H1602     1.0  0.61656  0.71222  0.52078  1.0000
  Fe  Fe268     1.0  0.54143  0.78691  0.29837  1.0000
  C   C1596     1.0  0.71268  0.84199  0.40687  1.0000
  C   C1597     1.0  0.71059  0.85223  0.38902  1.0000
  H   H1603     1.0  0.70354  0.57305  0.48279  1.0000
  C   C1598     1.0  0.71881  0.57187  0.53912  1.0000
  C   C1599     1.0  0.72184  0.84835  0.41851  1.0000
  H   H1604     1.0  0.70702  0.82918  0.41185  1.0000
  S   S545      1.0  0.58967  0.75596  0.30516  1.0000
  H   H1605     1.0  0.72282  0.94066  0.31517  1.0000
  C   C1600     1.0  0.67193  0.82493  0.48558  1.0000
  C   C1601     1.0  0.68682  0.81015  0.48274  1.0000
  C   C1602     1.0  0.68372  0.79375  0.47815  1.0000
  C   C1603     1.0  0.66572  0.79191  0.47631  1.0000
  C   C1604     1.0  0.65073  0.80668  0.47905  1.0000
  C   C1605     1.0  0.65383  0.82312  0.48377  1.0000
  H   H1606     1.0  0.70071  0.81116  0.48442  1.0000
  H   H1607     1.0  0.69536  0.78232  0.47621  1.0000
  H   H1608     1.0  0.63676  0.80537  0.47780  1.0000
  H   H1609     1.0  0.64221  0.83449  0.48604  1.0000
  S   S546      1.0  0.66490  0.92877  0.33501  1.0000
  H   H1610     1.0  0.66839  0.84181  0.42875  1.0000
  C   C1606     1.0  0.63498  0.76585  0.51751  1.0000
  C   C1607     1.0  0.63278  0.82140  0.38125  1.0000
  C   C1608     1.0  0.53700  0.75945  0.54893  1.0000
  C   C1609     1.0  0.54068  0.74005  0.54970  1.0000
  C   C1610     1.0  0.55450  0.73197  0.53604  1.0000
  C   C1611     1.0  0.56474  0.74315  0.52137  1.0000
  C   C1612     1.0  0.56097  0.76257  0.52051  1.0000
  C   C1613     1.0  0.54725  0.77064  0.53426  1.0000
  H   H1611     1.0  0.53293  0.73124  0.56087  1.0000
  H   H1612     1.0  0.55735  0.71692  0.53690  1.0000
  H   H1613     1.0  0.56872  0.77136  0.50932  1.0000
  H   H1614     1.0  0.54448  0.78568  0.53348  1.0000
  Fe  Fe269     1.0  0.67031  0.89916  0.32916  1.0000
  H   H1615     1.0  0.70455  0.92717  0.32643  1.0000
  H   H1616     1.0  0.62651  0.70866  0.54179  1.0000
  C   C1614     1.0  0.67357  0.87540  0.41267  1.0000
  C   C1615     1.0  0.69053  0.89336  0.43206  1.0000
  H   H1617     1.0  0.71223  0.61674  0.51581  1.0000
  C   C1616     1.0  0.60775  0.81253  0.31631  1.0000
  H   H1618     1.0  0.57004  0.87006  0.31408  1.0000
  N   N133      1.0  0.64495  0.81418  0.39535  1.0000
  C   C1617     1.0  0.66382  0.81449  0.39044  1.0000
  C   C1618     1.0  0.63732  0.80790  0.41348  1.0000
  C   C1619     1.0  0.67569  0.80762  0.40367  1.0000
  C   C1620     1.0  0.64878  0.80101  0.42708  1.0000
  C   C1621     1.0  0.66811  0.80070  0.42208  1.0000
  H   H1619     1.0  0.66983  0.82005  0.37619  1.0000
  H   H1620     1.0  0.62231  0.80802  0.41752  1.0000
  H   H1621     1.0  0.69069  0.80773  0.39960  1.0000
  H   H1622     1.0  0.64276  0.79570  0.44137  1.0000
  H   H1623     1.0  0.67714  0.79508  0.43249  1.0000
  H   H1624     1.0  0.61966  0.81529  0.38509  1.0000
  H   H1625     1.0  0.59572  0.73702  0.54035  1.0000
  N   N134      1.0  0.62546  0.73704  0.38082  1.0000
  C   C1622     1.0  0.63163  0.75371  0.37383  1.0000
  C   C1623     1.0  0.61747  0.72911  0.37006  1.0000
  C   C1624     1.0  0.62948  0.76311  0.35576  1.0000
  C   C1625     1.0  0.61504  0.73815  0.35197  1.0000
  C   C1626     1.0  0.62104  0.75529  0.34482  1.0000
  C   C1627     1.0  0.62789  0.72747  0.39978  1.0000
  H   H1626     1.0  0.63774  0.76007  0.38248  1.0000
  H   H1627     1.0  0.61232  0.71604  0.37565  1.0000
  H   H1628     1.0  0.63382  0.77661  0.35045  1.0000
  H   H1629     1.0  0.60783  0.73228  0.34385  1.0000
  H   H1630     1.0  0.61870  0.76270  0.33103  1.0000
  H   H1631     1.0  0.61764  0.71783  0.40585  1.0000
  H   H1632     1.0  0.64234  0.71927  0.39967  1.0000
  H   H1633     1.0  0.62549  0.73774  0.40936  1.0000
  N   N135      1.0  0.71261  0.57317  0.50832  1.0000
  C   C1628     1.0  0.57708  0.85556  0.31249  1.0000
  C   C1629     1.0  0.71549  0.92952  0.31379  1.0000
  H   H1634     1.0  0.62900  0.83691  0.37963  1.0000
  C   C1630     1.0  0.71328  0.60161  0.51868  1.0000
  C   C1631     1.0  0.65568  0.96636  0.32247  1.0000
  H   H1635     1.0  0.64611  0.77382  0.51091  1.0000
  C   C1632     1.0  0.71817  0.86867  0.38268  1.0000
  C   C1633     1.0  0.71666  0.56295  0.52504  1.0000
  H   H1636     1.0  0.51690  0.75814  0.52047  1.0000
  H   H1637     1.0  0.72320  0.84040  0.43225  1.0000
  H   H1638     1.0  0.71672  0.87662  0.36892  1.0000
  C   C1634     1.0  0.60686  0.74505  0.53403  1.0000
  C   C1635     1.0  0.60318  0.76443  0.53348  1.0000
  C   C1636     1.0  0.50139  0.73549  0.52945  1.0000
  C   C1637     1.0  0.71095  0.56344  0.49363  1.0000
  Fe  Fe270     1.0  0.49764  0.75776  0.58883  1.0000
  C   C1638     1.0  0.63527  0.83513  0.30115  1.0000
  C   C1639     1.0  0.68473  0.87625  0.44018  1.0000
  H   H1639     1.0  0.50634  0.78820  0.52817  1.0000
  C   C1640     1.0  0.64933  0.94616  0.30369  1.0000
  C   C1641     1.0  0.49289  0.77750  0.30175  1.0000
  C   C1642     1.0  0.54004  0.83857  0.29629  1.0000
  H   H1640     1.0  0.50342  0.77004  0.31002  1.0000
  C   C1643     1.0  0.54940  0.84566  0.30708  1.0000
  H   H1641     1.0  0.72305  0.58918  0.37797  1.0000
  H   H1642     1.0  0.71876  0.54777  0.52739  1.0000
  Fe  Fe271     1.0  0.69518  0.87195  0.30527  1.0000
  C   C1644     1.0  0.49132  0.78661  0.53238  1.0000
  H   H1643     1.0  0.70297  0.55180  0.49962  1.0000
  H   H1644     1.0  0.72604  0.91643  0.31329  1.0000
  H   H1645     1.0  0.48322  0.79574  0.52186  1.0000
  H   H1646     1.0  0.64935  0.93229  0.30121  1.0000
  N   N136      1.0  0.48899  0.76712  0.53427  1.0000
  H   H1647     1.0  0.72521  0.55759  0.48670  1.0000
  S   S547      1.0  0.72886  0.83449  0.47078  1.0000
  C   C1645     1.0  0.72766  0.87484  0.39422  1.0000
  H   H1648     1.0  0.54203  0.84899  0.32055  1.0000
  H   H1649     1.0  0.66059  0.96808  0.33463  1.0000
  C   C1646     1.0  0.61561  0.81395  0.29731  1.0000
  H   H1650     1.0  0.48634  0.79140  0.54611  1.0000
  S   S548      1.0  0.48340  0.73406  0.58807  1.0000
  N   N137      1.0  0.70669  0.93493  0.29705  1.0000
  H   H1651     1.0  0.52565  0.83631  0.30136  1.0000
  H   H1652     1.0  0.72624  0.88638  0.54771  1.0000
  H   H1653     1.0  0.72687  0.89942  0.57577  1.0000
  Fe  Fe272     1.0  0.48395  0.72625  0.61917  1.0000
  H   H1654     1.0  0.69644  0.96299  0.30173  1.0000
  H   H1655     1.0  0.48239  0.71573  0.54020  1.0000
  C   C1647     1.0  0.48419  0.73020  0.53827  1.0000
  C   C1648     1.0  0.72933  0.86484  0.41228  1.0000
  C   C1649     1.0  0.71624  0.54378  0.92905  1.0000
  S   S549      1.0  0.61755  0.95351  0.73884  1.0000
  C   C1650     1.0  0.52840  0.72127  0.80577  1.0000
  Fe  Fe273     1.0  0.50029  0.87899  0.72056  1.0000
  H   H1656     1.0  0.58264  0.56199  0.77209  1.0000
  C   C1651     1.0  0.48589  0.74899  0.78679  1.0000
  S   S550      1.0  0.56540  0.94281  0.75374  1.0000
  H   H1657     1.0  0.69528  0.53553  0.84569  1.0000
  C   C1652     1.0  0.57003  0.55755  0.78070  1.0000
  C   C1653     1.0  0.49462  0.81672  0.67150  1.0000
  H   H1658     1.0  0.51158  0.76756  0.86604  1.0000
  S   S551      1.0  0.63680  0.96269  0.68485  1.0000
  H   H1659     1.0  0.69726  0.69008  0.94230  1.0000
  H   H1660     1.0  0.53005  0.73253  0.81282  1.0000
  C   C1654     1.0  0.49164  0.71726  0.67513  1.0000
  S   S552      1.0  0.57897  0.73792  0.93911  1.0000
  H   H1661     1.0  0.61612  0.47644  0.68973  1.0000
  H   H1662     1.0  0.66325  0.95565  0.65174  1.0000
  S   S553      1.0  0.51458  0.72198  0.85818  1.0000
  Fe  Fe274     1.0  0.49649  0.72400  0.88632  1.0000
  S   S554      1.0  0.50537  0.72391  0.91433  1.0000
  S   S555      1.0  0.50673  0.67892  0.83979  1.0000
  H   H1663     1.0  0.55394  0.51872  0.80485  1.0000
  N   N138      1.0  0.51064  0.72593  0.79863  1.0000
  H   H1664     1.0  0.54447  0.77283  0.85588  1.0000
  H   H1665     1.0  0.54040  0.71926  0.79412  1.0000
  C   C1655     1.0  0.72770  0.90760  0.93074  1.0000
  S   S556      1.0  0.52477  0.58643  0.74568  1.0000
  H   H1666     1.0  0.61543  0.96155  0.81305  1.0000
  S   S557      1.0  0.69983  0.48444  0.88175  1.0000
  C   C1656     1.0  0.61055  0.95305  0.80544  1.0000
  S   S558      1.0  0.52201  0.89882  0.71470  1.0000
  S   S559      1.0  0.50690  0.83142  0.67851  1.0000
  S   S560      1.0  0.50703  0.84727  0.72662  1.0000
  C   C1657     1.0  0.55404  0.53342  0.79906  1.0000
  H   H1667     1.0  0.51058  0.75532  0.79325  1.0000
  S   S561      1.0  0.64455  0.48838  0.70244  1.0000
  Fe  Fe275     1.0  0.59275  0.48412  0.75845  1.0000
  C   C1658     1.0  0.50610  0.79756  0.79652  1.0000
  S   S562      1.0  0.56314  0.50086  0.76618  1.0000
  C   C1659     1.0  0.49286  0.79740  0.64913  1.0000
  Fe  Fe276     1.0  0.49496  0.70432  0.85387  1.0000
  S   S563      1.0  0.62052  0.49364  0.75517  1.0000
  H   H1668     1.0  0.70109  0.54514  0.93190  1.0000
  Fe  Fe277     1.0  0.71044  0.49124  0.85083  1.0000
  S   S564      1.0  0.69162  0.50463  0.82926  1.0000
  C   C1660     1.0  0.50193  0.71191  0.79711  1.0000
  C   C1661     1.0  0.65887  0.49004  0.79867  1.0000
  C   C1662     1.0  0.66929  0.50005  0.80573  1.0000
  C   C1663     1.0  0.67905  0.49139  0.82050  1.0000
  H   H1669     1.0  0.65146  0.49685  0.78729  1.0000
  H   H1670     1.0  0.66983  0.51457  0.79967  1.0000
  H   H1671     1.0  0.52436  0.54153  0.80901  1.0000
  H   H1672     1.0  0.55311  0.58508  0.77546  1.0000
  H   H1673     1.0  0.68958  0.55577  0.89657  1.0000
  C   C1664     1.0  0.49100  0.65138  0.80522  1.0000
  H   H1674     1.0  0.66503  0.49734  0.66529  1.0000
  H   H1675     1.0  0.48201  0.74376  0.65862  1.0000
  H   H1676     1.0  0.67297  0.96140  0.78843  1.0000
  H   H1677     1.0  0.52115  0.79602  0.79550  1.0000
  C   C1665     1.0  0.50269  0.80838  0.65565  1.0000
  H   H1678     1.0  0.51652  0.81061  0.64821  1.0000
  C   C1666     1.0  0.53441  0.56203  0.74907  1.0000
  C   C1667     1.0  0.55360  0.55629  0.74218  1.0000
  C   C1668     1.0  0.56245  0.53744  0.74640  1.0000
  C   C1669     1.0  0.55222  0.52409  0.75777  1.0000
  C   C1670     1.0  0.53288  0.52971  0.76411  1.0000
  C   C1671     1.0  0.52399  0.54851  0.75974  1.0000
  H   H1679     1.0  0.56178  0.56658  0.73383  1.0000
  H   H1680     1.0  0.57727  0.53338  0.74125  1.0000
  H   H1681     1.0  0.52479  0.51952  0.77286  1.0000
  H   H1682     1.0  0.50924  0.55265  0.76514  1.0000
  H   H1683     1.0  0.59350  0.92430  0.77661  1.0000
  H   H1684     1.0  0.62583  0.91585  0.78366  1.0000
  H   H1685     1.0  0.69215  0.96841  0.63573  1.0000
  C   C1672     1.0  0.49593  0.78602  0.81081  1.0000
  Fe  Fe278     1.0  0.49420  0.60172  0.75083  1.0000
  C   C1673     1.0  0.70605  0.96239  0.95623  1.0000
  C   C1674     1.0  0.50133  0.65715  0.81627  1.0000
  C   C1675     1.0  0.48499  0.65881  0.68094  1.0000
  H   H1686     1.0  0.54414  0.77198  0.92987  1.0000
  H   H1687     1.0  0.51597  0.65098  0.81616  1.0000
  H   H1688     1.0  0.69513  0.48217  0.64812  1.0000
  C   C1676     1.0  0.55877  0.73246  0.93298  1.0000
  C   C1677     1.0  0.55922  0.73090  0.91427  1.0000
  C   C1678     1.0  0.54322  0.72799  0.90834  1.0000
  C   C1679     1.0  0.52644  0.72658  0.92108  1.0000
  C   C1680     1.0  0.52604  0.72798  0.93982  1.0000
  C   C1681     1.0  0.54203  0.73092  0.94574  1.0000
  H   H1689     1.0  0.57204  0.73206  0.90423  1.0000
  H   H1690     1.0  0.54386  0.72690  0.89391  1.0000
  H   H1691     1.0  0.51319  0.72691  0.94984  1.0000
  S   S565      1.0  0.48896  0.63362  0.74457  1.0000
  N   N139      1.0  0.69384  0.54687  0.87026  1.0000
  C   C1682     1.0  0.71166  0.55387  0.86365  1.0000
  H   H1692     1.0  0.66055  0.54247  0.90915  1.0000
  S   S566      1.0  0.71497  0.51847  0.90697  1.0000
  H   H1693     1.0  0.71645  0.56361  0.94673  1.0000
  C   C1683     1.0  0.66675  0.47799  0.69122  1.0000
  H   H1694     1.0  0.49766  0.64079  0.79673  1.0000
  C   C1684     1.0  0.67331  0.48520  0.67241  1.0000
  H   H1695     1.0  0.50483  0.82016  0.77277  1.0000
  C   C1685     1.0  0.51081  0.76953  0.89478  1.0000
  Fe  Fe279     1.0  0.49340  0.84786  0.70198  1.0000
  C   C1686     1.0  0.49691  0.81121  0.78359  1.0000
  C   C1687     1.0  0.70606  0.94018  0.91392  1.0000
  C   C1688     1.0  0.69907  0.93046  0.93168  1.0000
  C   C1689     1.0  0.70990  0.91424  0.94033  1.0000
  S   S567      1.0  0.68969  0.63806  0.96188  1.0000
  H   H1696     1.0  0.59332  0.52650  0.77064  1.0000
  H   H1697     1.0  0.69765  0.95274  0.90763  1.0000
  H   H1698     1.0  0.68528  0.93571  0.93894  1.0000
  Fe  Fe280     1.0  0.58629  0.96326  0.74153  1.0000
  H   H1699     1.0  0.54946  0.89787  0.67690  1.0000
  C   C1690     1.0  0.55344  0.93074  0.74256  1.0000
  C   C1691     1.0  0.55608  0.93229  0.72309  1.0000
  C   C1692     1.0  0.54632  0.92248  0.71494  1.0000
  C   C1693     1.0  0.53373  0.91096  0.72604  1.0000
  C   C1694     1.0  0.53115  0.90932  0.74552  1.0000
  C   C1695     1.0  0.54093  0.91913  0.75367  1.0000
  H   H1700     1.0  0.56560  0.94112  0.71429  1.0000
  H   H1701     1.0  0.54845  0.92397  0.69988  1.0000
  H   H1702     1.0  0.52157  0.90056  0.75432  1.0000
  H   H1703     1.0  0.53870  0.91776  0.76873  1.0000
  H   H1704     1.0  0.51444  0.77158  0.92214  1.0000
  S   S568      1.0  0.48873  0.87918  0.69464  1.0000
  N   N140      1.0  0.53926  0.77499  0.90189  1.0000
  C   C1696     1.0  0.67107  0.52985  0.86621  1.0000
  C   C1697     1.0  0.72057  0.94705  0.95800  1.0000
  C   C1698     1.0  0.54966  0.77832  0.91531  1.0000
  N   N141      1.0  0.62228  0.93780  0.79930  1.0000
  C   C1699     1.0  0.49403  0.66935  0.66476  1.0000
  H   H1705     1.0  0.56471  0.77164  0.91244  1.0000
  C   C1700     1.0  0.72492  0.55431  0.93751  1.0000
  C   C1701     1.0  0.68750  0.53749  0.85948  1.0000
  H   H1706     1.0  0.50554  0.71541  0.66658  1.0000
  H   H1707     1.0  0.52877  0.70823  0.81646  1.0000
  H   H1708     1.0  0.49659  0.76668  0.89948  1.0000
  Fe  Fe281     1.0  0.72309  0.49823  0.88560  1.0000
  C   C1702     1.0  0.66819  0.96531  0.65788  1.0000
  H   H1709     1.0  0.49305  0.64715  0.68892  1.0000
  S   S569      1.0  0.49589  0.69760  0.63424  1.0000
  Fe  Fe282     1.0  0.62983  0.47694  0.73152  1.0000
  H   H1710     1.0  0.54874  0.79358  0.91458  1.0000
  H   H1711     1.0  0.58532  0.51093  0.79113  1.0000
  Fe  Fe283     1.0  0.49391  0.74636  0.84678  1.0000
  H   H1712     1.0  0.49699  0.69120  0.69378  1.0000
  H   H1713     1.0  0.50907  0.66574  0.66040  1.0000
  H   H1714     1.0  0.54133  0.73216  0.96014  1.0000
  C   C1703     1.0  0.64146  0.93241  0.80335  1.0000
  C   C1704     1.0  0.58761  0.52561  0.78584  1.0000
  C   C1705     1.0  0.52102  0.77227  0.90756  1.0000
  C   C1706     1.0  0.65798  0.47129  0.80648  1.0000
  C   C1707     1.0  0.53781  0.77272  0.87039  1.0000
  H   H1715     1.0  0.66628  0.52216  0.85770  1.0000
  C   C1708     1.0  0.66124  0.53170  0.88413  1.0000
  C   C1709     1.0  0.59814  0.93229  0.78496  1.0000
  C   C1710     1.0  0.53695  0.56498  0.79309  1.0000
  C   C1711     1.0  0.55344  0.57071  0.78269  1.0000
  H   H1716     1.0  0.64390  0.91760  0.81049  1.0000
  S   S570      1.0  0.50808  0.76886  0.82656  1.0000
  H   H1717     1.0  0.64422  0.94127  0.81251  1.0000
  N   N142      1.0  0.54852  0.86854  0.68531  1.0000
  C   C1712     1.0  0.55710  0.86737  0.70027  1.0000
  C   C1713     1.0  0.54377  0.85294  0.68175  1.0000
  C   C1714     1.0  0.56105  0.85026  0.71214  1.0000
  C   C1715     1.0  0.54770  0.83556  0.69321  1.0000
  C   C1716     1.0  0.55633  0.83426  0.70854  1.0000
  C   C1717     1.0  0.54373  0.88662  0.67330  1.0000
  H   H1718     1.0  0.72165  0.65617  0.94440  1.0000
  H   H1719     1.0  0.71002  0.56846  0.86604  1.0000
  H   H1720     1.0  0.56738  0.84955  0.72425  1.0000
  H   H1721     1.0  0.54356  0.82331  0.69047  1.0000
  H   H1722     1.0  0.55903  0.82094  0.71779  1.0000
  H   H1723     1.0  0.52819  0.89095  0.67530  1.0000
  C   C1718     1.0  0.61637  0.92759  0.78900  1.0000
  H   H1724     1.0  0.54933  0.88562  0.65838  1.0000
  C   C1719     1.0  0.49289  0.67099  0.82727  1.0000
  H   H1725     1.0  0.56209  0.77753  0.87907  1.0000
  H   H1726     1.0  0.56039  0.87983  0.70346  1.0000
  H   H1727     1.0  0.64878  0.52540  0.88967  1.0000
  C   C1720     1.0  0.68414  0.54897  0.88776  1.0000
  H   H1728     1.0  0.71675  0.55374  0.84847  1.0000
  H   H1729     1.0  0.52384  0.57491  0.79398  1.0000
  H   H1730     1.0  0.53658  0.85392  0.67015  1.0000
  C   C1721     1.0  0.54765  0.77537  0.88356  1.0000
  H   H1731     1.0  0.59819  0.52840  0.79306  1.0000
  H   H1732     1.0  0.65174  0.93417  0.79007  1.0000
  C   C1722     1.0  0.66777  0.54134  0.89501  1.0000
  C   C1723     1.0  0.58602  0.94766  0.79133  1.0000
  N   N143      1.0  0.57013  0.53915  0.78870  1.0000
  H   H1733     1.0  0.65987  0.66766  0.95193  1.0000
  C   C1724     1.0  0.53724  0.54624  0.80145  1.0000
  C   C1725     1.0  0.72402  0.93375  0.90450  1.0000
  C   C1726     1.0  0.59226  0.95821  0.80155  1.0000
  C   C1727     1.0  0.51928  0.76978  0.87609  1.0000
  H   H1734     1.0  0.49908  0.79130  0.63673  1.0000
  C   C1728     1.0  0.72693  0.53149  0.91704  1.0000
  C   C1729     1.0  0.48378  0.68454  0.65420  1.0000
  H   H1735     1.0  0.72258  0.54487  0.87143  1.0000
  C   C1730     1.0  0.69039  0.47666  0.66265  1.0000
  H   H1736     1.0  0.57193  0.95159  0.78800  1.0000
  C   C1731     1.0  0.48664  0.70355  0.69044  1.0000
  C   C1732     1.0  0.69981  0.68856  0.95645  1.0000
  C   C1733     1.0  0.72850  0.66638  0.94841  1.0000
  H   H1737     1.0  0.50825  0.69739  0.80089  1.0000
  C   C1734     1.0  0.67829  0.47260  0.82819  1.0000
  C   C1735     1.0  0.50322  0.74425  0.79289  1.0000
  C   C1736     1.0  0.48463  0.71609  0.79098  1.0000
  N   N144      1.0  0.71517  0.67655  0.96201  1.0000
  S   S571      1.0  0.95171  0.31950  0.21325  1.0000
  C   C1737     1.0  0.73376  0.21959  0.00393  1.0000
  Fe  Fe284     1.0  0.94332  0.34935  0.21840  1.0000
  S   S572      1.0  0.91591  0.36494  0.23273  1.0000
  H   H1738     1.0  0.76090  0.19227  0.10053  1.0000
  S   S573      1.0  0.94741  0.07150  0.24928  1.0000
  Fe  Fe285     1.0  0.95938  0.11724  0.21611  1.0000
  S   S574      1.0  0.93275  0.11576  0.23668  1.0000
  C   C1738     1.0  0.75134  0.01766  0.19892  1.0000
  Fe  Fe286     1.0  0.95082  0.09861  0.25691  1.0000
  C   C1739     1.0  0.96406  0.30310  0.15240  1.0000
  Fe  Fe287     1.0  0.93139  0.08938  0.22705  1.0000
  S   S575      1.0  0.90221  0.09119  0.21975  1.0000
  S   S576      1.0  0.95716  0.09208  0.20499  1.0000
  Fe  Fe288     1.0  0.93441  0.22946  0.08072  1.0000
  S   S577      1.0  0.96135  0.21012  0.07192  1.0000
  S   S578      1.0  0.90804  0.23619  0.06713  1.0000
  Fe  Fe289     1.0  0.95021  0.24071  0.11150  1.0000
  S   S579      1.0  0.94141  0.25605  0.13663  1.0000
  Fe  Fe290     1.0  0.96090  0.20087  0.10288  1.0000
  H   H1739     1.0  0.73807  0.42671  0.19535  1.0000
  S   S580      1.0  0.94951  0.25302  0.08119  1.0000
  S   S581      1.0  0.93315  0.21870  0.11150  1.0000
  Fe  Fe291     1.0  0.80689  0.37546  0.24779  1.0000
  S   S582      1.0  0.81140  0.38989  0.26968  1.0000
  S   S583      1.0  0.83168  0.35845  0.23126  1.0000
  Fe  Fe292     1.0  0.76372  0.38533  0.25759  1.0000
  S   S584      1.0  0.76557  0.40030  0.28055  1.0000
  H   H1740     1.0  0.75947  0.97530  0.10440  1.0000
  Fe  Fe293     1.0  0.78850  0.41281  0.26016  1.0000
  S   S585      1.0  0.79094  0.44366  0.25389  1.0000
  S   S586      1.0  0.78548  0.39940  0.23655  1.0000
  S   S587      1.0  0.78475  0.36009  0.26683  1.0000
  Fe  Fe294     1.0  0.78047  0.20132  0.05606  1.0000
  S   S588      1.0  0.80502  0.20868  0.03397  1.0000
  S   S589      1.0  0.75699  0.22341  0.06716  1.0000
  Fe  Fe295     1.0  0.79539  0.15965  0.05966  1.0000
  S   S590      1.0  0.82047  0.16364  0.03705  1.0000
  S   S591      1.0  0.78978  0.13080  0.07414  1.0000
  Fe  Fe296     1.0  0.82333  0.18667  0.05153  1.0000
  S   S592      1.0  0.85164  0.18330  0.06126  1.0000
  Fe  Fe297     1.0  0.80021  0.18512  0.02146  1.0000
  S   S593      1.0  0.79738  0.19171  0.99063  1.0000
  S   S594      1.0  0.79892  0.18146  0.07475  1.0000
  S   S595      1.0  0.77493  0.17901  0.04284  1.0000
  Fe  Fe298     1.0  0.82823  0.04272  0.19108  1.0000
  S   S596      1.0  0.80733  0.06628  0.20186  1.0000
  S   S597      1.0  0.85825  0.03571  0.19728  1.0000
  Fe  Fe299     1.0  0.79937  0.03141  0.17263  1.0000
  S   S598      1.0  0.77687  0.05513  0.18147  1.0000
  S   S599      1.0  0.78792  0.01389  0.15712  1.0000
  Fe  Fe300     1.0  0.79959  0.07262  0.17314  1.0000
  S   S600      1.0  0.79657  0.10318  0.15968  1.0000
  Fe  Fe301     1.0  0.78646  0.04665  0.20911  1.0000
  S   S601      1.0  0.76692  0.04130  0.23694  1.0000
  S   S602      1.0  0.82153  0.04992  0.16181  1.0000
  S   S603      1.0  0.80798  0.02213  0.20083  1.0000
  C   C1740     1.0  0.84404  0.12912  0.11457  1.0000
  C   C1741     1.0  0.78996  0.98915  0.16109  1.0000
  C   C1742     1.0  0.84031  0.13712  0.08220  1.0000
  H   H1741     1.0  0.76290  0.16220  0.09121  1.0000
  H   H1742     1.0  0.73875  0.20641  0.10668  1.0000
  C   C1743     1.0  0.78856  0.45687  0.27177  1.0000
  C   C1744     1.0  0.79090  0.12338  0.09814  1.0000
  C   C1745     1.0  0.79317  0.13569  0.10908  1.0000
  C   C1746     1.0  0.79446  0.12935  0.12803  1.0000
  C   C1747     1.0  0.79375  0.11060  0.13615  1.0000
  C   C1748     1.0  0.79155  0.09821  0.12526  1.0000
  C   C1749     1.0  0.78997  0.10464  0.10632  1.0000
  H   H1743     1.0  0.79408  0.15006  0.10300  1.0000
  H   H1744     1.0  0.79626  0.13897  0.13639  1.0000
  H   H1745     1.0  0.79098  0.08371  0.13143  1.0000
  H   H1746     1.0  0.78822  0.09502  0.09794  1.0000
  Fe  Fe302     1.0  0.97358  0.07546  0.22757  1.0000
  C   C1750     1.0  0.79040  0.17670  0.97864  1.0000
  C   C1751     1.0  0.79139  0.15752  0.98548  1.0000
  C   C1752     1.0  0.97723  0.27006  0.21106  1.0000
  H   H1747     1.0  0.79534  0.15171  0.99902  1.0000
  H   H1748     1.0  0.86966  0.05515  0.24578  1.0000
  H   H1749     1.0  0.93088  0.27503  0.16817  1.0000
  S   S604      1.0  0.96851  0.16999  0.11397  1.0000
  H   H1750     1.0  0.97792  0.18688  0.27107  1.0000
  H   H1751     1.0  0.73632  0.36147  0.19742  1.0000
  C   C1753     1.0  0.83684  0.11915  0.08315  1.0000
  H   H1752     1.0  0.76628  0.01221  0.19584  1.0000
  H   H1753     1.0  0.89115  0.33132  0.26154  1.0000
  H   H1754     1.0  0.83833  0.01048  0.23637  1.0000
  S   S605      1.0  0.97341  0.32096  0.15819  1.0000
  H   H1755     1.0  0.86096  0.32129  0.26260  1.0000
  H   H1756     1.0  0.89189  0.35633  0.27871  1.0000
  C   C1754     1.0  0.73541  0.37194  0.22270  1.0000
  H   H1757     1.0  0.74940  0.03000  0.17029  1.0000
  C   C1755     1.0  0.97285  0.15787  0.24335  1.0000
  H   H1758     1.0  0.75577  0.24328  0.02482  1.0000
  H   H1759     1.0  0.75054  0.37000  0.22131  1.0000
  H   H1760     1.0  0.86174  0.02780  0.24065  1.0000
  C   C1756     1.0  0.97211  0.29636  0.13560  1.0000
  N   N145      1.0  0.84055  0.11152  0.11541  1.0000
  S   S606      1.0  0.73325  0.38477  0.25596  1.0000
  H   H1761     1.0  0.95256  0.30225  0.26048  1.0000
  H   H1762     1.0  0.85227  0.07586  0.24559  1.0000
  H   H1763     1.0  0.76438  0.99034  0.15096  1.0000
  C   C1757     1.0  0.97662  0.25696  0.28938  1.0000
  C   C1758     1.0  0.89235  0.22127  0.06597  1.0000
  C   C1759     1.0  0.89558  0.20199  0.07271  1.0000
  C   C1760     1.0  0.88294  0.19071  0.07117  1.0000
  C   C1761     1.0  0.86682  0.19849  0.06301  1.0000
  C   C1762     1.0  0.86348  0.21781  0.05646  1.0000
  C   C1763     1.0  0.87619  0.22908  0.05789  1.0000
  H   H1764     1.0  0.90793  0.19572  0.07889  1.0000
  H   H1765     1.0  0.88575  0.17579  0.07622  1.0000
  H   H1766     1.0  0.85122  0.22405  0.05011  1.0000
  H   H1767     1.0  0.87353  0.24395  0.05256  1.0000
  C   C1764     1.0  0.89091  0.07564  0.21246  1.0000
  C   C1765     1.0  0.87283  0.08230  0.20791  1.0000
  C   C1766     1.0  0.86278  0.07038  0.20298  1.0000
  C   C1767     1.0  0.87074  0.05160  0.20241  1.0000
  C   C1768     1.0  0.88890  0.04498  0.20674  1.0000
  C   C1769     1.0  0.89894  0.05690  0.21173  1.0000
  H   H1768     1.0  0.86645  0.09676  0.20843  1.0000
  H   H1769     1.0  0.84884  0.07570  0.19973  1.0000
  H   H1770     1.0  0.89522  0.03048  0.20633  1.0000
  H   H1771     1.0  0.91281  0.05153  0.21519  1.0000
  C   C1770     1.0  0.89216  0.26647  0.11568  1.0000
  C   C1771     1.0  0.74162  0.01502  0.21726  1.0000
  C   C1772     1.0  0.87841  0.33729  0.27013  1.0000
  C   C1773     1.0  0.96386  0.15314  0.17747  1.0000
  C   C1774     1.0  0.78806  0.14566  0.97440  1.0000
  C   C1775     1.0  0.96189  0.17742  0.14981  1.0000
  C   C1776     1.0  0.73609  0.06372  0.22349  1.0000
  H   H1772     1.0  0.77589  0.43722  0.29396  1.0000
  H   H1773     1.0  0.89907  0.27691  0.06825  1.0000
  H   H1774     1.0  0.88213  0.25693  0.09465  1.0000
  C   C1777     1.0  0.89282  0.36404  0.23018  1.0000
  C   C1778     1.0  0.88896  0.35030  0.22188  1.0000
  C   C1779     1.0  0.87016  0.34900  0.22192  1.0000
  C   C1780     1.0  0.85512  0.36138  0.23024  1.0000
  C   C1781     1.0  0.85905  0.37535  0.23815  1.0000
  C   C1782     1.0  0.87779  0.37667  0.23808  1.0000
  H   H1775     1.0  0.90040  0.34048  0.21575  1.0000
  H   H1776     1.0  0.86726  0.33822  0.21566  1.0000
  H   H1777     1.0  0.84768  0.38514  0.24435  1.0000
  H   H1778     1.0  0.88062  0.38739  0.24448  1.0000
  Fe  Fe303     1.0  0.97640  0.23254  0.07474  1.0000
  C   C1783     1.0  0.94920  0.29525  0.16413  1.0000
  C   C1784     1.0  0.94248  0.28088  0.15905  1.0000
  C   C1785     1.0  0.95068  0.27400  0.14235  1.0000
  H   H1779     1.0  0.94282  0.30031  0.17707  1.0000
  C   C1786     1.0  0.74796  0.16590  0.09093  1.0000
  C   C1787     1.0  0.94909  0.28049  0.28475  1.0000
  H   H1780     1.0  0.82476  0.33454  0.26738  1.0000
  C   C1788     1.0  0.74837  0.22461  0.00995  1.0000
  C   C1789     1.0  0.82756  0.33313  0.28180  1.0000
  H   H1781     1.0  0.95651  0.39212  0.21291  1.0000
  C   C1790     1.0  0.73335  0.22377  0.06573  1.0000
  H   H1782     1.0  0.78936  0.13076  0.97959  1.0000
  C   C1791     1.0  0.89040  0.26623  0.09741  1.0000
  H   H1783     1.0  0.93018  0.16301  0.27141  1.0000
  Fe  Fe304     1.0  0.97732  0.31945  0.22507  1.0000
  H   H1784     1.0  0.95592  0.18272  0.17812  1.0000
  C   C1792     1.0  0.81463  0.03118  0.24505  1.0000
  H   H1785     1.0  0.80425  0.02365  0.24318  1.0000
  C   C1793     1.0  0.97111  0.17838  0.26523  1.0000
  H   H1786     1.0  0.73663  0.20799  0.99632  1.0000
  C   C1794     1.0  0.96560  0.28180  0.13066  1.0000
  H   H1787     1.0  0.78693  0.98265  0.11391  1.0000
  S   S607      1.0  0.96778  0.34810  0.23268  1.0000
  C   C1795     1.0  0.73978  0.15528  0.08242  1.0000
  C   C1796     1.0  0.82256  0.05825  0.25280  1.0000
  H   H1788     1.0  0.94303  0.38766  0.23613  1.0000
  C   C1797     1.0  0.74273  0.05077  0.23825  1.0000
  N   N146      1.0  0.95294  0.17614  0.27253  1.0000
  H   H1789     1.0  0.97245  0.12486  0.17221  1.0000
  C   C1798     1.0  0.85515  0.06089  0.25223  1.0000
  C   C1799     1.0  0.97253  0.12559  0.28571  1.0000
  C   C1800     1.0  0.80897  0.04859  0.25072  1.0000
  C   C1801     1.0  0.95929  0.28962  0.26845  1.0000
  H   H1790     1.0  0.81805  0.07183  0.25709  1.0000
  C   C1802     1.0  0.86131  0.33169  0.27079  1.0000
  C   C1803     1.0  0.83372  0.02368  0.24147  1.0000
  H   H1791     1.0  0.94771  0.14673  0.24545  1.0000
  H   H1792     1.0  0.88521  0.25739  0.12730  1.0000
  H   H1793     1.0  0.79412  0.05462  0.25321  1.0000
  H   H1794     1.0  0.93449  0.28615  0.28929  1.0000
  H   H1795     1.0  0.74906  0.00785  0.22859  1.0000
  H   H1796     1.0  0.82870  0.15384  0.96440  1.0000
  C   C1804     1.0  0.83712  0.10640  0.09995  1.0000
  C   C1805     1.0  0.77646  0.98127  0.15596  1.0000
  H   H1797     1.0  0.85604  0.09021  0.13296  1.0000
  N   N147      1.0  0.84514  0.33963  0.28112  1.0000
  H   H1798     1.0  0.83343  0.11531  0.07108  1.0000
  C   C1806     1.0  0.96859  0.25851  0.20424  1.0000
  H   H1799     1.0  0.81534  0.34141  0.28973  1.0000
  N   N148      1.0  0.96540  0.40300  0.23313  1.0000
  H   H1800     1.0  0.81504  0.97176  0.12668  1.0000
  H   H1801     1.0  0.95760  0.25161  0.21335  1.0000
  H   H1802     1.0  0.76261  0.21687  0.00716  1.0000
  C   C1807     1.0  0.84692  0.03363  0.24383  1.0000
  H   H1803     1.0  0.85479  0.05995  0.26741  1.0000
  S   S608      1.0  0.94288  0.10785  0.28551  1.0000
  H   H1804     1.0  0.74585  0.06855  0.21127  1.0000
  H   H1805     1.0  0.81608  0.98313  0.17139  1.0000
  H   H1806     1.0  0.74838  0.14362  0.07616  1.0000
  C   C1808     1.0  0.95043  0.39812  0.22584  1.0000
  N   N149      1.0  0.84126  0.05074  0.24933  1.0000
  H   H1807     1.0  0.83409  0.09255  0.10065  1.0000
  C   C1809     1.0  0.95430  0.15579  0.25080  1.0000
  C   C1810     1.0  0.94447  0.16509  0.26545  1.0000
  H   H1808     1.0  0.84656  0.15624  0.09723  1.0000
  H   H1809     1.0  0.93965  0.41062  0.22250  1.0000
  C   C1811     1.0  0.84143  0.09779  0.13272  1.0000
  H   H1810     1.0  0.97316  0.27210  0.22553  1.0000
  N   N150      1.0  0.91758  0.14033  0.17894  1.0000
  C   C1812     1.0  0.91913  0.15547  0.16490  1.0000
  C   C1813     1.0  0.92318  0.12253  0.17511  1.0000
  C   C1814     1.0  0.92580  0.15301  0.14634  1.0000
  C   C1815     1.0  0.93019  0.11955  0.15674  1.0000
  C   C1816     1.0  0.93144  0.13492  0.14228  1.0000
  C   C1817     1.0  0.91071  0.14333  0.19828  1.0000
  H   H1811     1.0  0.91554  0.16956  0.16805  1.0000
  H   H1812     1.0  0.92238  0.11051  0.18628  1.0000
  H   H1813     1.0  0.92739  0.16503  0.13526  1.0000
  H   H1814     1.0  0.93488  0.10541  0.15383  1.0000
  H   H1815     1.0  0.93730  0.13289  0.12801  1.0000
  H   H1816     1.0  0.90595  0.13067  0.20744  1.0000
  H   H1817     1.0  0.92213  0.14673  0.20391  1.0000
  H   H1818     1.0  0.89854  0.15499  0.19903  1.0000
  N   N151      1.0  0.91273  0.28910  0.10416  1.0000
  C   C1818     1.0  0.91116  0.28887  0.08618  1.0000
  C   C1819     1.0  0.90340  0.27811  0.11884  1.0000
  C   C1820     1.0  0.97218  0.41915  0.22501  1.0000
  H   H1819     1.0  0.73887  0.19980  0.05209  1.0000
  H   H1820     1.0  0.95877  0.19206  0.14367  1.0000
  C   C1821     1.0  0.92542  0.30036  0.10748  1.0000
  H   H1821     1.0  0.91901  0.29712  0.07450  1.0000
  H   H1822     1.0  0.90501  0.27789  0.13308  1.0000
  H   H1823     1.0  0.96827  0.37790  0.25331  1.0000
  C   C1822     1.0  0.84542  0.35330  0.29088  1.0000
  Fe  Fe305     1.0  0.96839  0.33159  0.18599  1.0000
  H   H1824     1.0  0.94023  0.29342  0.10368  1.0000
  H   H1825     1.0  0.92333  0.31465  0.09902  1.0000
  H   H1826     1.0  0.92307  0.30190  0.12243  1.0000
  H   H1827     1.0  0.84009  0.14717  0.06929  1.0000
  C   C1823     1.0  0.96753  0.16379  0.13835  1.0000
  C   C1824     1.0  0.96947  0.13949  0.16602  1.0000
  C   C1825     1.0  0.89990  0.27753  0.08254  1.0000
  H   H1828     1.0  0.83643  0.10471  0.14524  1.0000
  H   H1829     1.0  0.83205  0.08746  0.13411  1.0000
  C   C1826     1.0  0.74616  0.19162  0.10764  1.0000
  H   H1830     1.0  0.84678  0.13319  0.12680  1.0000
  S   S609      1.0  0.97786  0.22171  0.10527  1.0000
  C   C1827     1.0  0.94224  0.18632  0.28744  1.0000
  H   H1831     1.0  0.96661  0.42820  0.21323  1.0000
  H   H1832     1.0  0.97591  0.13425  0.13765  1.0000
  H   H1833     1.0  0.96737  0.24718  0.18007  1.0000
  C   C1828     1.0  0.97824  0.28252  0.26266  1.0000
  C   C1829     1.0  0.80551  0.97727  0.16753  1.0000
  S   S610      1.0  0.95816  0.36161  0.19021  1.0000
  C   C1830     1.0  0.84393  0.14220  0.09796  1.0000
  C   C1831     1.0  0.96021  0.17210  0.16931  1.0000
  S   S611      1.0  0.96114  0.14711  0.20199  1.0000
  Fe  Fe306     1.0  0.78816  0.37601  0.28803  1.0000
  C   C1832     1.0  0.97412  0.25596  0.18564  1.0000
  C   C1833     1.0  0.97151  0.14484  0.14647  1.0000
  H   H1834     1.0  0.73708  0.34536  0.28046  1.0000
  C   C1834     1.0  0.95417  0.12281  0.29360  1.0000
  C   C1835     1.0  0.74184  0.02768  0.18456  1.0000
  H   H1835     1.0  0.97204  0.27671  0.11774  1.0000
  H   H1836     1.0  0.74606  0.18515  0.12256  1.0000
  H   H1837     1.0  0.73490  0.03487  0.26567  1.0000
  C   C1836     1.0  0.87881  0.35138  0.27980  1.0000
  C   C1837     1.0  0.78008  0.45084  0.29015  1.0000
  S   S612      1.0  0.97781  0.10133  0.23674  1.0000
  N   N152      1.0  0.73735  0.18082  0.09858  1.0000
  H   H1838     1.0  0.93506  0.20026  0.28131  1.0000
  C   C1838     1.0  0.97323  0.39097  0.24723  1.0000
  C   C1839     1.0  0.86222  0.35948  0.29024  1.0000
  H   H1839     1.0  0.82846  0.31826  0.28874  1.0000
  C   C1840     1.0  0.74457  0.23954  0.01969  1.0000
  H   H1840     1.0  0.73860  0.37465  0.29520  1.0000
  C   C1841     1.0  0.95773  0.26419  0.29531  1.0000
  S   S613      1.0  0.95519  0.22427  0.36386  1.0000
  S   S614      1.0  0.94165  0.20257  0.33528  1.0000
  Fe  Fe307     1.0  0.94131  0.19945  0.36604  1.0000
  S   S615      1.0  0.91474  0.19668  0.38771  1.0000
  H   H1841     1.0  0.76213  0.18581  0.37456  1.0000
  C   C1842     1.0  0.81911  0.30685  0.61920  1.0000
  C   C1843     1.0  0.84969  0.29311  0.59367  1.0000
  H   H1842     1.0  0.77969  0.20572  0.34874  1.0000
  Fe  Fe308     1.0  0.75930  0.43969  0.59556  1.0000
  S   S616      1.0  0.76616  0.41789  0.57639  1.0000
  H   H1843     1.0  0.79286  0.39215  0.59753  1.0000
  N   N153      1.0  0.81086  0.24733  0.59878  1.0000
  Fe  Fe309     1.0  0.77246  0.26844  0.38295  1.0000
  S   S617      1.0  0.77997  0.24074  0.37312  1.0000
  S   S618      1.0  0.75947  0.29135  0.36161  1.0000
  Fe  Fe310     1.0  0.78520  0.25161  0.42030  1.0000
  S   S619      1.0  0.79401  0.22291  0.41242  1.0000
  S   S620      1.0  0.78989  0.24933  0.44996  1.0000
  Fe  Fe311     1.0  0.80659  0.23753  0.38451  1.0000
  S   S621      1.0  0.83398  0.22868  0.36531  1.0000
  Fe  Fe312     1.0  0.76659  0.22881  0.40197  1.0000
  S   S622      1.0  0.74868  0.20585  0.41160  1.0000
  S   S623      1.0  0.79984  0.26596  0.39282  1.0000
  S   S624      1.0  0.75706  0.25667  0.41130  1.0000
  H   H1844     1.0  0.94506  0.15150  0.32639  1.0000
  S   S625      1.0  0.79264  0.36304  0.31752  1.0000
  Fe  Fe313     1.0  0.79843  0.29315  0.56342  1.0000
  S   S626      1.0  0.77402  0.28929  0.58664  1.0000
  S   S627      1.0  0.82805  0.28900  0.56932  1.0000
  Fe  Fe314     1.0  0.77356  0.30184  0.53334  1.0000
  C   C1844     1.0  0.73440  0.05112  0.56065  1.0000
  S   S628      1.0  0.77047  0.31074  0.50281  1.0000
  Fe  Fe315     1.0  0.75923  0.31544  0.57069  1.0000
  H   H1845     1.0  0.93033  0.12989  0.31481  1.0000
  Fe  Fe316     1.0  0.76475  0.27341  0.56838  1.0000
  S   S629      1.0  0.78413  0.32006  0.54823  1.0000
  S   S630      1.0  0.79050  0.27532  0.54619  1.0000
  H   H1846     1.0  0.78148  0.37761  0.51163  1.0000
  C   C1845     1.0  0.74270  0.23434  0.57054  1.0000
  C   C1846     1.0  0.78391  0.26678  0.46425  1.0000
  C   C1847     1.0  0.77662  0.28542  0.45764  1.0000
  C   C1848     1.0  0.77246  0.29878  0.46960  1.0000
  C   C1849     1.0  0.77538  0.29357  0.48824  1.0000
  C   C1850     1.0  0.78232  0.27485  0.49489  1.0000
  C   C1851     1.0  0.78665  0.26156  0.48292  1.0000
  H   H1847     1.0  0.77444  0.28959  0.44329  1.0000
  H   H1848     1.0  0.76707  0.31324  0.46435  1.0000
  H   H1849     1.0  0.78464  0.27064  0.50917  1.0000
  H   H1850     1.0  0.79236  0.24719  0.48812  1.0000
  C   C1852     1.0  0.77235  0.30870  0.34845  1.0000
  C   C1853     1.0  0.78138  0.31831  0.35722  1.0000
  C   C1854     1.0  0.78825  0.33455  0.34730  1.0000
  C   C1855     1.0  0.78624  0.34122  0.32856  1.0000
  C   C1856     1.0  0.77819  0.33101  0.31947  1.0000
  C   C1857     1.0  0.77118  0.31485  0.32944  1.0000
  H   H1851     1.0  0.78217  0.31381  0.37191  1.0000
  H   H1852     1.0  0.79451  0.34237  0.35441  1.0000
  C   C1858     1.0  0.74974  0.22785  0.47622  1.0000
  H   H1853     1.0  0.76418  0.30747  0.32260  1.0000
  H   H1854     1.0  0.76815  0.04263  0.53126  1.0000
  H   H1855     1.0  0.92818  0.34867  0.61763  1.0000
  N   N154      1.0  0.78426  0.03966  0.55277  1.0000
  H   H1856     1.0  0.73104  0.38386  0.55246  1.0000
  H   H1857     1.0  0.80211  0.30533  0.59940  1.0000
  H   H1858     1.0  0.77434  0.16876  0.41847  1.0000
  H   H1859     1.0  0.82753  0.19006  0.37655  1.0000
  C   C1859     1.0  0.76011  0.39524  0.58134  1.0000
  C   C1860     1.0  0.77191  0.38117  0.57219  1.0000
  C   C1861     1.0  0.74967  0.35981  0.58503  1.0000
  S   S631      1.0  0.73372  0.11180  0.56586  1.0000
  H   H1860     1.0  0.73004  0.32920  0.35410  1.0000
  C   C1862     1.0  0.78648  0.19761  0.36021  1.0000
  C   C1863     1.0  0.85263  0.29711  0.61047  1.0000
  C   C1864     1.0  0.77754  0.05018  0.53569  1.0000
  H   H1861     1.0  0.80472  0.01181  0.59633  1.0000
  H   H1862     1.0  0.80955  0.17021  0.40217  1.0000
  H   H1863     1.0  0.81265  0.20788  0.34967  1.0000
  H   H1864     1.0  0.86158  0.28762  0.58387  1.0000
  C   C1865     1.0  0.77476  0.16444  0.40490  1.0000
  C   C1866     1.0  0.89222  0.20489  0.38139  1.0000
  C   C1867     1.0  0.87610  0.20573  0.39541  1.0000
  C   C1868     1.0  0.85809  0.21289  0.39079  1.0000
  C   C1869     1.0  0.85609  0.21910  0.37206  1.0000
  C   C1870     1.0  0.87215  0.21795  0.35807  1.0000
  C   C1871     1.0  0.89012  0.21105  0.36269  1.0000
  H   H1865     1.0  0.87759  0.20096  0.40992  1.0000
  H   H1866     1.0  0.84581  0.21361  0.40171  1.0000
  H   H1867     1.0  0.87074  0.22267  0.34354  1.0000
  H   H1868     1.0  0.90233  0.21053  0.35177  1.0000
  C   C1872     1.0  0.83146  0.29592  0.58961  1.0000
  H   H1869     1.0  0.97905  0.33632  0.61695  1.0000
  S   S632      1.0  0.74977  0.00394  0.60640  1.0000
  H   H1870     1.0  0.76911  0.06408  0.53799  1.0000
  C   C1873     1.0  0.95280  0.14433  0.31509  1.0000
  Fe  Fe317     1.0  0.76977  0.97721  0.60318  1.0000
  C   C1874     1.0  0.79576  0.03922  0.58088  1.0000
  H   H1871     1.0  0.95163  0.18834  0.29650  1.0000
  H   H1872     1.0  0.82031  0.25091  0.56941  1.0000
  H   H1873     1.0  0.78965  0.05225  0.52421  1.0000
  H   H1874     1.0  0.77661  0.33597  0.30503  1.0000
  H   H1875     1.0  0.82125  0.46919  0.58983  1.0000
  C   C1875     1.0  0.74009  0.37628  0.54195  1.0000
  H   H1876     1.0  0.73048  0.19185  0.57188  1.0000
  H   H1877     1.0  0.79730  0.99503  0.57403  1.0000
  Fe  Fe318     1.0  0.74243  0.00250  0.57911  1.0000
  C   C1876     1.0  0.73015  0.20485  0.40029  1.0000
  C   C1877     1.0  0.74751  0.35053  0.52574  1.0000
  H   H1878     1.0  0.86671  0.29474  0.61354  1.0000
  C   C1878     1.0  0.76401  0.35668  0.51572  1.0000
  H   H1879     1.0  0.75990  0.16564  0.40328  1.0000
  C   C1879     1.0  0.80192  0.38596  0.60777  1.0000
  C   C1880     1.0  0.79379  0.24874  0.61044  1.0000
  H   H1880     1.0  0.96014  0.33477  0.60619  1.0000
  C   C1881     1.0  0.76855  0.37288  0.51906  1.0000
  H   H1881     1.0  0.75381  0.22438  0.44737  1.0000
  H   H1882     1.0  0.73407  0.40204  0.59996  1.0000
  H   H1883     1.0  0.73182  0.24126  0.51239  1.0000
  C   C1882     1.0  0.73139  0.33957  0.34137  1.0000
  H   H1884     1.0  0.96833  0.35686  0.60241  1.0000
  H   H1885     1.0  0.74418  0.33782  0.52314  1.0000
  C   C1883     1.0  0.73807  0.37372  0.59457  1.0000
  H   H1886     1.0  0.78374  0.01302  0.54638  1.0000
  N   N155      1.0  0.87155  0.25691  0.37933  1.0000
  C   C1884     1.0  0.88615  0.24951  0.38884  1.0000
  C   C1885     1.0  0.87492  0.26214  0.36028  1.0000
  C   C1886     1.0  0.90468  0.24693  0.37922  1.0000
  C   C1887     1.0  0.89330  0.25981  0.35024  1.0000
  C   C1888     1.0  0.90822  0.25219  0.35982  1.0000
  C   C1889     1.0  0.85226  0.26007  0.38968  1.0000
  H   H1887     1.0  0.88352  0.24511  0.40389  1.0000
  H   H1888     1.0  0.86333  0.26783  0.35274  1.0000
  H   H1889     1.0  0.91618  0.24043  0.38671  1.0000
  H   H1890     1.0  0.89608  0.26364  0.33510  1.0000
  H   H1891     1.0  0.92249  0.25020  0.35216  1.0000
  H   H1892     1.0  0.84876  0.27427  0.39346  1.0000
  H   H1893     1.0  0.84206  0.25875  0.38117  1.0000
  H   H1894     1.0  0.85038  0.24949  0.40266  1.0000
  C   C1890     1.0  0.73921  0.35530  0.34077  1.0000
  H   H1895     1.0  0.79934  0.24093  0.57711  1.0000
  H   H1896     1.0  0.77598  0.35294  0.56685  1.0000
  C   C1891     1.0  0.80494  0.19884  0.36073  1.0000
  C   C1892     1.0  0.78725  0.02050  0.55593  1.0000
  C   C1893     1.0  0.79474  0.01024  0.57158  1.0000
  Fe  Fe319     1.0  0.96990  0.18402  0.33427  1.0000
  C   C1894     1.0  0.73823  0.20420  0.46601  1.0000
  C   C1895     1.0  0.81620  0.30305  0.60235  1.0000
  S   S633      1.0  0.78061  0.45898  0.58866  1.0000
  H   H1897     1.0  0.79896  0.04667  0.59062  1.0000
  C   C1896     1.0  0.74138  0.07368  0.57654  1.0000
  C   C1897     1.0  0.73309  0.08858  0.56411  1.0000
  H   H1898     1.0  0.75192  0.20620  0.58416  1.0000
  C   C1898     1.0  0.73650  0.36479  0.30817  1.0000
  C   C1899     1.0  0.80861  0.39742  0.61661  1.0000
  S   S634      1.0  0.73441  0.46289  0.60088  1.0000
  H   H1899     1.0  0.83951  0.25072  0.59444  1.0000
  C   C1900     1.0  0.81312  0.24113  0.58081  1.0000
  S   S635      1.0  0.79881  0.97152  0.61139  1.0000
  C   C1901     1.0  0.81329  0.18887  0.37588  1.0000
  H   H1900     1.0  0.78613  0.06426  0.56244  1.0000
  C   C1902     1.0  0.74455  0.23060  0.50934  1.0000
  S   S636      1.0  0.74728  0.29921  0.55475  1.0000
  C   C1903     1.0  0.78853  0.04906  0.56493  1.0000
  C   C1904     1.0  0.94445  0.13210  0.30846  1.0000
  H   H1901     1.0  0.82157  0.22684  0.58134  1.0000
  H   H1902     1.0  0.77334  0.34871  0.50564  1.0000
  H   H1903     1.0  0.78170  0.24544  0.60643  1.0000
  H   H1904     1.0  0.78492  0.38407  0.56321  1.0000
  C   C1905     1.0  0.80704  0.36655  0.61208  1.0000
  C   C1906     1.0  0.83730  0.30380  0.62339  1.0000
  C   C1907     1.0  0.76685  0.36348  0.57420  1.0000
  S   S637      1.0  0.75788  0.24415  0.57997  1.0000
  C   C1908     1.0  0.82607  0.25143  0.60388  1.0000
  C   C1909     1.0  0.74185  0.05500  0.57496  1.0000
  C   C1910     1.0  0.74333  0.39131  0.59289  1.0000
  C   C1911     1.0  0.79147  0.25514  0.62737  1.0000
  Fe  Fe320     1.0  0.95701  0.22629  0.33286  1.0000
  S   S638      1.0  0.94446  0.25335  0.31582  1.0000
  H   H1905     1.0  0.78168  0.14959  0.40533  1.0000
  H   H1906     1.0  0.75700  0.23973  0.47279  1.0000
  C   C1912     1.0  0.73290  0.20671  0.49871  1.0000
  S   S639      1.0  0.96869  0.17877  0.36557  1.0000
  H   H1907     1.0  0.73314  0.22996  0.38006  1.0000
  C   C1913     1.0  0.79895  0.01968  0.58413  1.0000
  H   H1908     1.0  0.83259  0.35967  0.29904  1.0000
  H   H1909     1.0  0.80481  0.41253  0.61320  1.0000
  C   C1914     1.0  0.74783  0.21931  0.46177  1.0000
  H   H1910     1.0  0.74632  0.22033  0.52239  1.0000
  H   H1911     1.0  0.74393  0.35725  0.35301  1.0000
  N   N156      1.0  0.78498  0.17651  0.38965  1.0000
  C   C1915     1.0  0.80303  0.17773  0.39032  1.0000
  C   C1916     1.0  0.77662  0.18633  0.37488  1.0000
  N   N157      1.0  0.74262  0.22130  0.49442  1.0000
  C   C1917     1.0  0.75646  0.38286  0.53215  1.0000
  C   C1918     1.0  0.74255  0.21495  0.57518  1.0000
  S   S640      1.0  0.74156  0.33875  0.58573  1.0000
  S   S641      1.0  0.73631  0.02799  0.55696  1.0000
  H   H1912     1.0  0.97438  0.29182  0.60976  1.0000
  C   C1919     1.0  0.97109  0.14721  0.30707  1.0000
  H   H1913     1.0  0.74845  0.04364  0.58446  1.0000
  H   H1914     1.0  0.74754  0.07664  0.58736  1.0000
  H   H1915     1.0  0.74838  0.38001  0.32334  1.0000
  C   C1920     1.0  0.97531  0.29581  0.62270  1.0000
  S   S642      1.0  0.93680  0.30446  0.62781  1.0000
  C   C1921     1.0  0.96556  0.34421  0.61284  1.0000
  S   S643      1.0  0.76257  0.43166  0.62558  1.0000
  S   S644      1.0  0.76450  0.97705  0.57423  1.0000
  H   H1916     1.0  0.75993  0.39536  0.53509  1.0000
  Fe  Fe321     1.0  0.78191  0.45245  0.61921  1.0000
  H   H1917     1.0  0.83628  0.26146  0.62451  1.0000
  N   N158      1.0  0.73594  0.36016  0.53884  1.0000
  C   C1922     1.0  0.73046  0.24550  0.55897  1.0000
  H   H1918     1.0  0.73670  0.19748  0.45487  1.0000
  C   C1923     1.0  0.81881  0.35887  0.62529  1.0000
  C   C1924     1.0  0.74176  0.36804  0.32409  1.0000
  C   C1925     1.0  0.82433  0.25759  0.62083  1.0000
  H   H1919     1.0  0.86230  0.37064  0.29759  1.0000
  H   H1920     1.0  0.93163  0.17836  0.29676  1.0000
  H   H1921     1.0  0.75706  0.23766  0.50537  1.0000
  H   H1922     1.0  0.76981  0.45802  0.31766  1.0000
  H   H1923     1.0  0.80199  0.35751  0.60518  1.0000
  H   H1924     1.0  0.82288  0.34378  0.62841  1.0000
  C   C1926     1.0  0.73061  0.19788  0.48459  1.0000
  C   C1927     1.0  0.77659  0.46267  0.30353  1.0000
  H   H1925     1.0  0.73032  0.26043  0.55539  1.0000
  C   C1928     1.0  0.73036  0.20678  0.56827  1.0000
  C   C1929     1.0  0.80495  0.98123  0.62878  1.0000
  Fe  Fe322     1.0  0.84351  0.99642  0.69326  1.0000
  S   S645      1.0  0.82123  0.00571  0.67423  1.0000
  Fe  Fe323     1.0  0.86143  0.01526  0.71785  1.0000
  S   S646      1.0  0.87218  0.98730  0.73427  1.0000
  S   S647      1.0  0.85794  0.04376  0.72708  1.0000
  C   C1930     1.0  0.81946  0.18502  0.90716  1.0000
  H   H1926     1.0  0.79192  0.42864  0.67352  1.0000
  S   S648      1.0  0.87144  0.00581  0.68983  1.0000
  S   S649      1.0  0.83291  0.00805  0.71991  1.0000
  C   C1931     1.0  0.83130  0.45184  0.65132  1.0000
  H   H1927     1.0  0.83725  0.34693  0.65295  1.0000
  C   C1932     1.0  0.79332  0.99639  0.63617  1.0000
  C   C1933     1.0  0.77331  0.43243  0.83496  1.0000
  Fe  Fe324     1.0  0.87161  0.45376  0.71870  1.0000
  S   S650      1.0  0.88543  0.42295  0.72086  1.0000
  C   C1934     1.0  0.96836  0.15275  0.78801  1.0000
  H   H1928     1.0  0.82744  0.13735  0.93987  1.0000
  S   S651      1.0  0.74328  0.14043  0.91051  1.0000
  C   C1935     1.0  0.82727  0.98084  0.64916  1.0000
  C   C1936     1.0  0.76809  0.45095  0.67704  1.0000
  Fe  Fe325     1.0  0.88178  0.33516  0.67176  1.0000
  C   C1937     1.0  0.74722  0.08685  0.87311  1.0000
  S   S652      1.0  0.87211  0.36651  0.67238  1.0000
  Fe  Fe326     1.0  0.88941  0.29253  0.68675  1.0000
  S   S653      1.0  0.89243  0.28480  0.65849  1.0000
  S   S654      1.0  0.89552  0.26996  0.71176  1.0000
  Fe  Fe327     1.0  0.90976  0.30781  0.64894  1.0000
  S   S655      1.0  0.84103  0.46239  0.71670  1.0000
  Fe  Fe328     1.0  0.73382  0.99965  0.82781  1.0000
  H   H1929     1.0  0.77936  0.43628  0.86735  1.0000
  S   S656      1.0  0.90802  0.31464  0.67733  1.0000
  S   S657      1.0  0.86297  0.31374  0.68390  1.0000
  Fe  Fe329     1.0  0.90675  0.12244  0.74980  1.0000
  S   S658      1.0  0.87865  0.13853  0.76072  1.0000
  S   S659      1.0  0.91266  0.09618  0.73631  1.0000
  Fe  Fe330     1.0  0.92832  0.14984  0.75978  1.0000
  S   S660      1.0  0.90165  0.16752  0.77190  1.0000
  H   H1930     1.0  0.74236  0.41019  0.86704  1.0000
  Fe  Fe331     1.0  0.89203  0.14004  0.78475  1.0000
  S   S661      1.0  0.87780  0.13151  0.81460  1.0000
  Fe  Fe332     1.0  0.89070  0.16464  0.74681  1.0000
  S   S662      1.0  0.87375  0.18868  0.72966  1.0000
  S   S663      1.0  0.91972  0.12242  0.77468  1.0000
  S   S664      1.0  0.91770  0.14848  0.73385  1.0000
  Fe  Fe333     1.0  0.75935  0.13000  0.88414  1.0000
  S   S665      1.0  0.75474  0.15873  0.86654  1.0000
  C   C1938     1.0  0.97130  0.16098  0.76912  1.0000
  Fe  Fe334     1.0  0.77096  0.14606  0.91449  1.0000
  S   S666      1.0  0.76764  0.17557  0.89871  1.0000
  H   H1931     1.0  0.74420  0.05095  0.85177  1.0000
  H   H1932     1.0  0.87933  0.06853  0.68421  1.0000
  Fe  Fe335     1.0  0.78158  0.16261  0.87338  1.0000
  S   S667      1.0  0.80077  0.17756  0.84977  1.0000
  Fe  Fe336     1.0  0.86737  0.30761  0.65466  1.0000
  S   S668      1.0  0.78734  0.13350  0.88941  1.0000
  C   C1939     1.0  0.78170  0.17217  0.95003  1.0000
  N   N159      1.0  0.81314  0.10697  0.84088  1.0000
  H   H1933     1.0  0.77810  0.17792  0.93636  1.0000
  H   H1934     1.0  0.91139  0.07548  0.68152  1.0000
  C   C1940     1.0  0.83321  0.01632  0.76654  1.0000
  H   H1935     1.0  0.84946  0.23940  0.75652  1.0000
  C   C1941     1.0  0.74923  0.42681  0.82040  1.0000
  S   S669      1.0  0.88496  0.32985  0.64238  1.0000
  H   H1936     1.0  0.95624  0.14604  0.79378  1.0000
  C   C1942     1.0  0.85698  0.14507  0.82450  1.0000
  C   C1943     1.0  0.84907  0.16211  0.81465  1.0000
  C   C1944     1.0  0.83197  0.17215  0.82269  1.0000
  C   C1945     1.0  0.82254  0.16502  0.84041  1.0000
  C   C1946     1.0  0.83047  0.14799  0.85025  1.0000
  C   C1947     1.0  0.84772  0.13815  0.84237  1.0000
  H   H1937     1.0  0.85607  0.16741  0.80081  1.0000
  H   H1938     1.0  0.82588  0.18532  0.81504  1.0000
  H   H1939     1.0  0.82339  0.14243  0.86393  1.0000
  H   H1940     1.0  0.85381  0.12497  0.85002  1.0000
  C   C1948     1.0  0.89095  0.24694  0.71409  1.0000
  C   C1949     1.0  0.90173  0.23195  0.72433  1.0000
  C   C1950     1.0  0.89692  0.21394  0.72874  1.0000
  C   C1951     1.0  0.88117  0.21075  0.72302  1.0000
  C   C1952     1.0  0.87060  0.22563  0.71246  1.0000
  C   C1953     1.0  0.87551  0.24363  0.70792  1.0000
  H   H1941     1.0  0.91375  0.23436  0.72908  1.0000
  H   H1942     1.0  0.90530  0.20259  0.73672  1.0000
  H   H1943     1.0  0.85843  0.22330  0.70792  1.0000
  H   H1944     1.0  0.86701  0.25507  0.70014  1.0000
  H   H1945     1.0  0.91526  0.10386  0.69182  1.0000
  C   C1954     1.0  0.96013  0.30675  0.65157  1.0000
  C   C1955     1.0  0.88801  0.12994  0.70580  1.0000
  H   H1946     1.0  0.94754  0.31130  0.66103  1.0000
  H   H1947     1.0  0.82080  0.08309  0.86149  1.0000
  N   N160      1.0  0.82775  0.16665  0.93596  1.0000
  H   H1948     1.0  0.85153  0.09046  0.69658  1.0000
  C   C1956     1.0  0.75087  0.07502  0.85969  1.0000
  C   C1957     1.0  0.78607  0.44126  0.67943  1.0000
  H   H1949     1.0  0.84500  0.02231  0.76872  1.0000
  C   C1958     1.0  0.79668  0.44828  0.68898  1.0000
  H   H1950     1.0  0.80133  0.03923  0.77702  1.0000
  C   C1959     1.0  0.75819  0.97077  0.66164  1.0000
  S   S670      1.0  0.74218  0.99518  0.85603  1.0000
  H   H1951     1.0  0.85245  0.36339  0.64090  1.0000
  H   H1952     1.0  0.78609  0.43794  0.83368  1.0000
  C   C1960     1.0  0.77007  0.98044  0.68535  1.0000
  C   C1961     1.0  0.94553  0.35932  0.65914  1.0000
  H   H1953     1.0  0.75991  0.44544  0.66955  1.0000
  H   H1954     1.0  0.82655  0.02594  0.75519  1.0000
  C   C1962     1.0  0.80531  0.97660  0.77114  1.0000
  C   C1963     1.0  0.88124  0.40733  0.70757  1.0000
  C   C1964     1.0  0.88925  0.38823  0.71112  1.0000
  C   C1965     1.0  0.88643  0.37545  0.70072  1.0000
  C   C1966     1.0  0.87567  0.38170  0.68649  1.0000
  C   C1967     1.0  0.86764  0.40079  0.68295  1.0000
  C   C1968     1.0  0.87034  0.41353  0.69344  1.0000
  H   H1955     1.0  0.89765  0.38329  0.72206  1.0000
  H   H1956     1.0  0.89258  0.36080  0.70373  1.0000
  H   H1957     1.0  0.85932  0.40582  0.67197  1.0000
  H   H1958     1.0  0.86413  0.42816  0.69051  1.0000
  H   H1959     1.0  0.83986  0.09081  0.83189  1.0000
  H   H1960     1.0  0.86798  0.19857  0.78955  1.0000
  C   C1969     1.0  0.83437  0.11649  0.81278  1.0000
  C   C1970     1.0  0.73796  0.23943  0.84275  1.0000
  C   C1971     1.0  0.74126  0.05983  0.86224  1.0000
  S   S671      1.0  0.78145  0.13713  0.94232  1.0000
  C   C1972     1.0  0.80823  0.09302  0.85744  1.0000
  C   C1973     1.0  0.75844  0.20864  0.84679  1.0000
  H   H1961     1.0  0.84962  0.16275  0.95161  1.0000
  H   H1962     1.0  0.83898  0.00285  0.76143  1.0000
  C   C1974     1.0  0.87368  0.05674  0.73170  1.0000
  C   C1975     1.0  0.86615  0.07311  0.73945  1.0000
  C   C1976     1.0  0.87791  0.08488  0.74181  1.0000
  C   C1977     1.0  0.89739  0.08050  0.73629  1.0000
  C   C1978     1.0  0.90496  0.06386  0.72905  1.0000
  C   C1979     1.0  0.89321  0.05201  0.72682  1.0000
  H   H1963     1.0  0.85107  0.07691  0.74328  1.0000
  H   H1964     1.0  0.87186  0.09758  0.74741  1.0000
  H   H1965     1.0  0.92001  0.06031  0.72475  1.0000
  H   H1966     1.0  0.89923  0.03950  0.72085  1.0000
  S   S672      1.0  0.95694  0.15901  0.75351  1.0000
  C   C1980     1.0  0.81547  0.45793  0.64260  1.0000
  C   C1981     1.0  0.75596  0.98243  0.67474  1.0000
  C   C1982     1.0  0.77060  0.99519  0.78822  1.0000
  H   H1967     1.0  0.80127  0.09994  0.86965  1.0000
  H   H1968     1.0  0.95050  0.36204  0.67090  1.0000
  H   H1969     1.0  0.90511  0.36008  0.64399  1.0000
  S   S673      1.0  0.80923  0.44302  0.63025  1.0000
  C   C1983     1.0  0.81567  0.99605  0.65649  1.0000
  C   C1984     1.0  0.79874  0.00382  0.64982  1.0000
  C   C1985     1.0  0.82981  0.10351  0.82891  1.0000
  C   C1986     1.0  0.88114  0.08143  0.68780  1.0000
  C   C1987     1.0  0.82484  0.18363  0.92447  1.0000
  C   C1988     1.0  0.81028  0.99459  0.81369  1.0000
  H   H1970     1.0  0.81258  0.98167  0.82360  1.0000
  H   H1971     1.0  0.81688  0.19852  0.89818  1.0000
  H   H1972     1.0  0.91617  0.36652  0.67086  1.0000
  H   H1973     1.0  0.81296  0.16978  0.88826  1.0000
  C   C1989     1.0  0.74894  0.41689  0.85355  1.0000
  C   C1990     1.0  0.95830  0.35333  0.64384  1.0000
  H   H1974     1.0  0.75901  0.20237  0.86165  1.0000
  H   H1975     1.0  0.74341  0.99299  0.67649  1.0000
  H   H1976     1.0  0.80523  0.26511  0.64536  1.0000
  N   N161      1.0  0.87164  0.22427  0.77094  1.0000
  C   C1991     1.0  0.88889  0.22430  0.77495  1.0000
  C   C1992     1.0  0.86253  0.23978  0.76075  1.0000
  C   C1993     1.0  0.89711  0.24041  0.76933  1.0000
  C   C1994     1.0  0.87026  0.25616  0.75507  1.0000
  C   C1995     1.0  0.88766  0.25645  0.75939  1.0000
  C   C1996     1.0  0.86341  0.20717  0.77659  1.0000
  H   H1977     1.0  0.89654  0.21172  0.78222  1.0000
  H   H1978     1.0  0.91096  0.24030  0.77215  1.0000
  H   H1979     1.0  0.86340  0.26825  0.74640  1.0000
  H   H1980     1.0  0.89419  0.26881  0.75418  1.0000
  H   H1981     1.0  0.86784  0.19869  0.76524  1.0000
  H   H1982     1.0  0.84781  0.21048  0.77941  1.0000
  C   C1997     1.0  0.81724  0.16889  0.90159  1.0000
  H   H1983     1.0  0.74740  0.97230  0.65326  1.0000
  H   H1984     1.0  0.77776  0.25687  0.63624  1.0000
  H   H1985     1.0  0.79502  0.14949  0.81861  1.0000
  C   C1998     1.0  0.79412  0.00791  0.81712  1.0000
  H   H1986     1.0  0.85590  0.11912  0.70624  1.0000
  H   H1987     1.0  0.76835  0.98966  0.69538  1.0000
  S   S674      1.0  0.75012  0.00858  0.79896  1.0000
  C   C1999     1.0  0.78537  0.18397  0.96095  1.0000
  C   C2000     1.0  0.78335  0.15288  0.95657  1.0000
  C   C2001     1.0  0.82174  0.13307  0.80894  1.0000
  N   N162      1.0  0.81968  0.01346  0.78397  1.0000
  C   C2002     1.0  0.80406  0.02677  0.78737  1.0000
  C   C2003     1.0  0.82300  0.99762  0.79694  1.0000
  C   C2004     1.0  0.79099  0.02414  0.80393  1.0000
  C   C2005     1.0  0.83683  0.46372  0.66084  1.0000
  H   H1988     1.0  0.76079  0.42499  0.88131  1.0000
  C   C2006     1.0  0.73005  0.22217  0.89065  1.0000
  H   H1989     1.0  0.77234  0.97198  0.81110  1.0000
  H   H1990     1.0  0.84923  0.45904  0.66731  1.0000
  Fe  Fe337     1.0  0.84408  0.97984  0.73468  1.0000
  C   C2007     1.0  0.76565  0.43393  0.81891  1.0000
  H   H1991     1.0  0.78241  0.41094  0.87159  1.0000
  H   H1992     1.0  0.81079  0.44109  0.69067  1.0000
  H   H1993     1.0  0.74329  0.21276  0.89112  1.0000
  H   H1994     1.0  0.76107  0.19710  0.83862  1.0000
  N   N163      1.0  0.82508  0.37021  0.63412  1.0000
  H   H1995     1.0  0.84792  0.11404  0.80368  1.0000
  C   C2008     1.0  0.95877  0.30156  0.63492  1.0000
  H   H1996     1.0  0.90295  0.13182  0.70309  1.0000
  H   H1997     1.0  0.77011  0.21673  0.84144  1.0000
  N   N164      1.0  0.74000  0.22033  0.84527  1.0000
  H   H1998     1.0  0.78459  0.19879  0.95553  1.0000
  H   H1999     1.0  0.80306  0.99958  0.74819  1.0000
  Fe  Fe338     1.0  0.74105  0.16951  0.89313  1.0000
  H   H2000     1.0  0.81805  0.13907  0.90953  1.0000
  C   C2009     1.0  0.80475  0.13644  0.82117  1.0000
  C   C2010     1.0  0.86550  0.09377  0.69479  1.0000
  H   H2001     1.0  0.83938  0.43794  0.65067  1.0000
  H   H2002     1.0  0.81884  0.46432  0.82104  1.0000
  S   S675      1.0  0.76014  0.10561  0.86908  1.0000
  H   H2003     1.0  0.74990  0.24613  0.84184  1.0000
  C   C2011     1.0  0.92628  0.36180  0.65916  1.0000
  C   C2012     1.0  0.78930  0.46492  0.69587  1.0000
  H   H2004     1.0  0.82540  0.14350  0.79679  1.0000
  C   C2013     1.0  0.74092  0.41801  0.83779  1.0000
  H   H2005     1.0  0.97327  0.35137  0.64391  1.0000
  C   C2014     1.0  0.77896  0.97794  0.79732  1.0000
  C   C2015     1.0  0.92005  0.35814  0.64406  1.0000
  H   H2006     1.0  0.78372  0.00540  0.82967  1.0000
  C   C2016     1.0  0.86808  0.10985  0.70032  1.0000
  C   C2017     1.0  0.82199  0.97359  0.63526  1.0000
  Fe  Fe339     1.0  0.88055  0.97703  0.70661  1.0000
  C   C2018     1.0  0.77925  0.00272  0.77033  1.0000
  C   C2019     1.0  0.79650  0.99347  0.76183  1.0000
  H   H2007     1.0  0.78967  0.01560  0.65538  1.0000
  C   C2020     1.0  0.80060  0.12311  0.83711  1.0000
  C   C2021     1.0  0.89912  0.08532  0.68632  1.0000
  H   H2008     1.0  0.77279  0.01600  0.76316  1.0000
  N   N165      1.0  0.76090  0.46719  0.68395  1.0000
  H   H2009     1.0  0.79819  0.08504  0.85472  1.0000
  H   H2010     1.0  0.78017  0.00244  0.63136  1.0000
  H   H2011     1.0  0.82642  0.19623  0.92878  1.0000
  N   N166      1.0  0.76456  0.42463  0.85208  1.0000
  H   H2012     1.0  0.77812  0.03422  0.80622  1.0000
  N   N167      1.0  0.88577  0.11349  0.69897  1.0000
  S   S676      1.0  0.83988  0.30801  0.64522  1.0000
  C   C2022     1.0  0.73381  0.08322  0.88919  1.0000
  C   C2023     1.0  0.83776  0.36204  0.64760  1.0000
  C   C2024     1.0  0.90120  0.10146  0.69210  1.0000
  H   H2013     1.0  0.88320  0.12821  0.72119  1.0000
  H   H2014     1.0  0.76116  0.07766  0.84717  1.0000
  H   H2015     1.0  0.77227  0.44085  0.80550  1.0000
  H   H2016     1.0  0.78737  0.12587  0.84656  1.0000
  C   C2025     1.0  0.82564  0.15076  0.93059  1.0000
  C   C2026     1.0  0.77222  0.42408  0.86890  1.0000
  H   H2017     1.0  0.74293  0.42818  0.80813  1.0000
  H   H2018     1.0  0.74238  0.24710  0.88555  1.0000
  H   H2019     1.0  0.87974  0.14290  0.69895  1.0000
  C   C2027     1.0  0.82030  0.15165  0.91338  1.0000
  H   H2020     1.0  0.83517  0.98687  0.79401  1.0000
  H   H2021     1.0  0.83396  0.36925  0.65993  1.0000
  C   C2028     1.0  0.97784  0.30701  0.65555  1.0000
  H   H2022     1.0  0.73471  0.99841  0.91042  1.0000
  C   C2029     1.0  0.80685  0.25968  0.63252  1.0000
  H   H2023     1.0  0.82551  0.39834  0.63654  1.0000
  H   H2024     1.0  0.84039  0.97478  0.65405  1.0000
  Fe  Fe340     1.0  0.73931  0.45598  0.63093  1.0000
  S   S677      1.0  0.73048  0.46408  0.84935  1.0000
  H   H2025     1.0  0.83048  0.46925  0.78666  1.0000
  H   H2026     1.0  0.82853  0.17842  0.95969  1.0000
  C   C2030     1.0  0.83404  0.16534  0.95373  1.0000
  C   C2031     1.0  0.82029  0.38928  0.62981  1.0000
  H   H2027     1.0  0.73082  0.09211  0.89968  1.0000
  H   H2028     1.0  0.80029  0.97817  0.69935  1.0000
  H   H2029     1.0  0.97873  0.31163  0.66818  1.0000
  H   H2030     1.0  0.73141  0.46804  0.69037  1.0000
  H   H2031     1.0  0.97822  0.11214  0.76814  1.0000
  N   N168      1.0  0.95203  0.34962  0.62914  1.0000
  H   H2032     1.0  0.80716  0.31201  0.62913  1.0000
  C   C2032     1.0  0.93317  0.35192  0.62912  1.0000
  H   H2033     1.0  0.97964  0.14545  0.81367  1.0000
  H   H2034     1.0  0.97225  0.81344  0.16191  1.0000
  S   S678      1.0  0.87993  0.69290  0.99683  1.0000
  Fe  Fe341     1.0  0.83492  0.73048  0.00374  1.0000
  S   S679      1.0  0.83960  0.70297  0.02323  1.0000
  S   S680      1.0  0.80651  0.74757  0.01342  1.0000
  Fe  Fe342     1.0  0.86877  0.70863  0.02114  1.0000
  S   S681      1.0  0.87976  0.70212  0.04898  1.0000
  Fe  Fe343     1.0  0.84989  0.68995  0.99751  1.0000
  S   S682      1.0  0.84342  0.66189  0.99451  1.0000
  S   S683      1.0  0.86355  0.73685  0.00289  1.0000
  H   H2035     1.0  0.75449  0.85484  0.02938  1.0000
  C   C2033     1.0  0.75899  0.51735  0.25366  1.0000
  Fe  Fe344     1.0  0.75243  0.61814  0.98250  1.0000
  H   H2036     1.0  0.87808  0.65267  0.96343  1.0000
  Fe  Fe345     1.0  0.87286  0.72082  0.97862  1.0000
  H   H2037     1.0  0.94019  0.73752  0.07752  1.0000
  H   H2038     1.0  0.92902  0.66964  0.27357  1.0000
  S   S684      1.0  0.75783  0.58644  0.99037  1.0000
  Fe  Fe346     1.0  0.76645  0.56132  0.27723  1.0000
  S   S685      1.0  0.79319  0.54057  0.27959  1.0000
  S   S686      1.0  0.76064  0.57014  0.24737  1.0000
  C   C2034     1.0  0.75567  0.48691  0.25097  1.0000
  C   C2035     1.0  0.77218  0.94658  0.10294  1.0000
  H   H2039     1.0  0.81518  0.92640  0.11341  1.0000
  H   H2040     1.0  0.75645  0.52851  0.26176  1.0000
  H   H2041     1.0  0.93631  0.73209  0.10255  1.0000
  S   S687      1.0  0.90077  0.70448  0.27627  1.0000
  Fe  Fe347     1.0  0.90393  0.75321  0.12737  1.0000
  S   S688      1.0  0.88057  0.75564  0.15223  1.0000
  S   S689      1.0  0.89904  0.75559  0.09728  1.0000
  Fe  Fe348     1.0  0.93381  0.75638  0.14993  1.0000
  S   S690      1.0  0.91253  0.75933  0.17604  1.0000
  S   S691      1.0  0.96533  0.75241  0.14979  1.0000
  Fe  Fe349     1.0  0.90113  0.73633  0.16926  1.0000
  S   S692      1.0  0.89210  0.71226  0.19150  1.0000
  Fe  Fe350     1.0  0.89376  0.77840  0.15713  1.0000
  S   S693      1.0  0.87826  0.80578  0.16593  1.0000
  S   S694      1.0  0.92352  0.73197  0.14400  1.0000
  S   S695      1.0  0.91606  0.77741  0.13139  1.0000
  Fe  Fe351     1.0  0.76003  0.89619  0.12918  1.0000
  S   S696      1.0  0.75015  0.87278  0.15100  1.0000
  S   S697      1.0  0.75746  0.90275  0.09809  1.0000
  Fe  Fe352     1.0  0.78048  0.90776  0.15604  1.0000
  S   S698      1.0  0.77276  0.88444  0.17955  1.0000
  S   S699      1.0  0.80023  0.92603  0.15983  1.0000
  Fe  Fe353     1.0  0.77943  0.86631  0.15750  1.0000
  S   S700      1.0  0.79195  0.83545  0.16095  1.0000
  Fe  Fe354     1.0  0.74420  0.89273  0.17150  1.0000
  S   S701      1.0  0.78981  0.88857  0.13465  1.0000
  S   S702      1.0  0.75145  0.91717  0.14901  1.0000
  C   C2036     1.0  0.75785  0.83330  0.08529  1.0000
  C   C2037     1.0  0.79337  0.61810  0.25769  1.0000
  N   N169      1.0  0.82048  0.58690  0.25094  1.0000
  C   C2038     1.0  0.80316  0.93730  0.11106  1.0000
  H   H2042     1.0  0.95447  0.79182  0.15431  1.0000
  C   C2039     1.0  0.85449  0.81416  0.16353  1.0000
  C   C2040     1.0  0.84628  0.83250  0.16622  1.0000
  C   C2041     1.0  0.82724  0.83939  0.16500  1.0000
  C   C2042     1.0  0.81618  0.82781  0.16143  1.0000
  C   C2043     1.0  0.82436  0.80946  0.15882  1.0000
  C   C2044     1.0  0.84349  0.80271  0.15964  1.0000
  H   H2043     1.0  0.85470  0.84144  0.16924  1.0000
  H   H2044     1.0  0.82107  0.85355  0.16708  1.0000
  H   H2045     1.0  0.81588  0.80044  0.15604  1.0000
  H   H2046     1.0  0.84962  0.78863  0.15740  1.0000
  C   C2045     1.0  0.79473  0.94998  0.16230  1.0000
  H   H2047     1.0  0.94657  0.76463  0.21421  1.0000
  N   N170      1.0  0.80265  0.95498  0.11412  1.0000
  H   H2048     1.0  0.86288  0.77264  0.18695  1.0000
  C   C2046     1.0  0.89986  0.70522  0.25253  1.0000
  C   C2047     1.0  0.89130  0.69264  0.24701  1.0000
  C   C2048     1.0  0.88949  0.69464  0.22815  1.0000
  C   C2049     1.0  0.89622  0.70919  0.21468  1.0000
  C   C2050     1.0  0.90510  0.72153  0.22019  1.0000
  C   C2051     1.0  0.90688  0.71956  0.23902  1.0000
  H   H2049     1.0  0.88568  0.68163  0.25732  1.0000
  H   H2050     1.0  0.88255  0.68506  0.22404  1.0000
  H   H2051     1.0  0.91036  0.73274  0.21001  1.0000
  H   H2052     1.0  0.91348  0.72937  0.24320  1.0000
  N   N171      1.0  0.76788  0.78924  0.96354  1.0000
  H   H2053     1.0  0.85108  0.74886  0.26741  1.0000
  N   N172      1.0  0.75245  0.50096  0.26122  1.0000
  H   H2054     1.0  0.75275  0.75475  0.99749  1.0000
  S   S703      1.0  0.82856  0.56469  0.29474  1.0000
  H   H2055     1.0  0.74197  0.89000  0.04103  1.0000
  C   C2052     1.0  0.79028  0.48647  0.28032  1.0000
  H   H2056     1.0  0.79948  0.57752  0.24118  1.0000
  H   H2057     1.0  0.79424  0.50017  0.27639  1.0000
  S   S704      1.0  0.77489  0.83185  0.98126  1.0000
  H   H2058     1.0  0.86255  0.72646  0.26127  1.0000
  C   C2053     1.0  0.94632  0.73723  0.09006  1.0000
  H   H2059     1.0  0.77865  0.54897  0.97482  1.0000
  H   H2060     1.0  0.74883  0.82564  0.09638  1.0000
  H   H2061     1.0  0.78130  0.76220  0.97538  1.0000
  C   C2054     1.0  0.73343  0.87929  0.09547  1.0000
  H   H2062     1.0  0.73091  0.87627  0.11060  1.0000
  H   H2063     1.0  0.87650  0.74277  0.26286  1.0000
  H   H2064     1.0  0.95573  0.80491  0.09626  1.0000
  Fe  Fe355     1.0  0.74438  0.84443  0.99047  1.0000
  H   H2065     1.0  0.83866  0.59944  0.26153  1.0000
  H   H2066     1.0  0.87056  0.79006  0.20851  1.0000
  C   C2055     1.0  0.80299  0.58851  0.24676  1.0000
  H   H2067     1.0  0.93493  0.63694  0.27155  1.0000
  H   H2068     1.0  0.95977  0.72713  0.08925  1.0000
  H   H2069     1.0  0.74741  0.88071  0.24891  1.0000
  H   H2070     1.0  0.74622  0.50632  0.28920  1.0000
  C   C2056     1.0  0.80292  0.80114  0.98497  1.0000
  C   C2057     1.0  0.88588  0.71708  0.06181  1.0000
  C   C2058     1.0  0.88666  0.73598  0.05465  1.0000
  C   C2059     1.0  0.89090  0.74742  0.06566  1.0000
  C   C2060     1.0  0.89422  0.74023  0.08403  1.0000
  C   C2061     1.0  0.89353  0.72132  0.09117  1.0000
  C   C2062     1.0  0.88951  0.70983  0.08007  1.0000
  H   H2071     1.0  0.88394  0.74178  0.04064  1.0000
  H   H2072     1.0  0.89143  0.76201  0.05993  1.0000
  H   H2073     1.0  0.89611  0.71552  0.10522  1.0000
  H   H2074     1.0  0.88904  0.69521  0.08575  1.0000
  C   C2063     1.0  0.82175  0.65692  0.99137  1.0000
  C   C2064     1.0  0.82000  0.63821  0.99206  1.0000
  C   C2065     1.0  0.80325  0.63368  0.98924  1.0000
  C   C2066     1.0  0.78804  0.64787  0.98549  1.0000
  C   C2067     1.0  0.80648  0.67109  0.98779  1.0000
  H   H2075     1.0  0.83169  0.62712  0.99480  1.0000
  H   H2076     1.0  0.80219  0.61924  0.98980  1.0000
  C   C2068     1.0  0.79893  0.77153  0.00543  1.0000
  C   C2069     1.0  0.81019  0.78236  0.99173  1.0000
  S   S705      1.0  0.89612  0.65105  0.29195  1.0000
  C   C2070     1.0  0.78430  0.80904  0.99162  1.0000
  C   C2071     1.0  0.77328  0.79828  0.00564  1.0000
  C   C2072     1.0  0.78062  0.77968  0.01263  1.0000
  H   H2077     1.0  0.75894  0.80403  0.01079  1.0000
  H   H2078     1.0  0.77183  0.77136  0.02324  1.0000
  H   H2079     1.0  0.81881  0.69816  0.06712  1.0000
  N   N173      1.0  0.76820  0.84356  0.05249  1.0000
  C   C2073     1.0  0.75733  0.83341  0.06653  1.0000
  C   C2074     1.0  0.77926  0.85429  0.05661  1.0000
  H   H2080     1.0  0.81470  0.62702  0.26801  1.0000
  C   C2075     1.0  0.78002  0.85462  0.07522  1.0000
  C   C2076     1.0  0.76930  0.84397  0.08962  1.0000
  C   C2077     1.0  0.76674  0.84415  0.03298  1.0000
  H   H2081     1.0  0.76934  0.84458  0.10411  1.0000
  H   H2082     1.0  0.78714  0.86307  0.04550  1.0000
  C   C2078     1.0  0.94199  0.78941  0.08325  1.0000
  H   H2083     1.0  0.78828  0.86360  0.07850  1.0000
  H   H2084     1.0  0.77428  0.53301  0.22956  1.0000
  C   C2079     1.0  0.77283  0.50556  0.22502  1.0000
  H   H2085     1.0  0.78848  0.91894  0.10268  1.0000
  C   C2080     1.0  0.95407  0.79116  0.09466  1.0000
  H   H2086     1.0  0.73158  0.51608  0.96403  1.0000
  H   H2087     1.0  0.74717  0.88930  0.21486  1.0000
  C   C2081     1.0  0.74839  0.89563  0.06631  1.0000
  H   H2088     1.0  0.83918  0.57042  0.23231  1.0000
  N   N174      1.0  0.94929  0.75586  0.09125  1.0000
  C   C2082     1.0  0.93978  0.77155  0.08167  1.0000
  Fe  Fe356     1.0  0.74440  0.58567  0.96571  1.0000
  C   C2083     1.0  0.97907  0.79928  0.16043  1.0000
  C   C2084     1.0  0.73511  0.79798  0.97578  1.0000
  C   C2085     1.0  0.96988  0.68329  0.27400  1.0000
  C   C2086     1.0  0.77178  0.96459  0.10606  1.0000
  H   H2089     1.0  0.78265  0.63004  0.26076  1.0000
  C   C2087     1.0  0.73252  0.84173  0.22960  1.0000
  C   C2088     1.0  0.81903  0.95948  0.11936  1.0000
  C   C2089     1.0  0.77868  0.96175  0.15682  1.0000
  C   C2090     1.0  0.94930  0.63785  0.26349  1.0000
  N   N175      1.0  0.75680  0.53354  0.98732  1.0000
  N   N176      1.0  0.73553  0.84318  0.21055  1.0000
  H   H2090     1.0  0.74304  0.48379  0.28699  1.0000
  N   N177      1.0  0.83216  0.71978  0.07088  1.0000
  C   C2091     1.0  0.82499  0.73244  0.05677  1.0000
  C   C2092     1.0  0.84177  0.72528  0.08206  1.0000
  C   C2093     1.0  0.82752  0.75110  0.05343  1.0000
  C   C2094     1.0  0.84423  0.74392  0.07938  1.0000
  C   C2095     1.0  0.83724  0.75684  0.06482  1.0000
  C   C2096     1.0  0.83054  0.70000  0.07341  1.0000
  H   H2091     1.0  0.81744  0.72814  0.04783  1.0000
  H   H2092     1.0  0.84807  0.71512  0.09279  1.0000
  H   H2093     1.0  0.82217  0.76090  0.04188  1.0000
  C   C2097     1.0  0.96369  0.77511  0.10439  1.0000
  H   H2094     1.0  0.83963  0.77117  0.06219  1.0000
  H   H2095     1.0  0.84380  0.69210  0.06653  1.0000
  H   H2096     1.0  0.82795  0.69378  0.08849  1.0000
  H   H2097     1.0  0.75589  0.84217  0.18551  1.0000
  N   N178      1.0  0.97511  0.75859  0.20139  1.0000
  H   H2098     1.0  0.82437  0.77623  0.98616  1.0000
  H   H2099     1.0  0.80064  0.47927  0.25286  1.0000
  C   C2098     1.0  0.74217  0.56468  0.23866  1.0000
  H   H2100     1.0  0.84706  0.56937  0.25405  1.0000
  C   C2099     1.0  0.82485  0.60076  0.25803  1.0000
  C   C2100     1.0  0.74137  0.49876  0.28016  1.0000
  H   H2101     1.0  0.86250  0.57761  0.29509  1.0000
  H   H2102     1.0  0.78095  0.50726  0.21097  1.0000
  C   C2101     1.0  0.76831  0.77228  0.97526  1.0000
  H   H2103     1.0  0.74764  0.82591  0.06325  1.0000
  H   H2104     1.0  0.76400  0.52036  0.96323  1.0000
  C   C2102     1.0  0.76887  0.83887  0.20952  1.0000
  C   C2103     1.0  0.97765  0.76873  0.15416  1.0000
  H   H2105     1.0  0.75086  0.47373  0.25705  1.0000
  C   C2104     1.0  0.73548  0.78095  0.98808  1.0000
  H   H2106     1.0  0.81160  0.80941  0.97417  1.0000
  C   C2105     1.0  0.75297  0.52480  0.97440  1.0000
  H   H2107     1.0  0.76839  0.95592  0.15245  1.0000
  S   S706      1.0  0.76668  0.64332  0.98112  1.0000
  C   C2106     1.0  0.83456  0.57025  0.24756  1.0000
  H   H2108     1.0  0.73339  0.59654  0.04909  1.0000
  H   H2109     1.0  0.75758  0.90536  0.05882  1.0000
  H   H2110     1.0  0.75473  0.57265  0.20984  1.0000
  C   C2107     1.0  0.75344  0.84142  0.20056  1.0000
  H   H2111     1.0  0.82046  0.94883  0.17216  1.0000
  C   C2108     1.0  0.78803  0.93291  0.10524  1.0000
  C   C2109     1.0  0.76921  0.51993  0.23546  1.0000
  H   H2112     1.0  0.93008  0.77033  0.07303  1.0000
  H   H2113     1.0  0.76477  0.83038  0.03075  1.0000
  N   N179      1.0  0.86346  0.74994  0.23873  1.0000
  C   C2110     1.0  0.85914  0.74028  0.22683  1.0000
  C   C2111     1.0  0.86746  0.76763  0.23239  1.0000
  C   C2112     1.0  0.85894  0.74826  0.20803  1.0000
  C   C2113     1.0  0.86729  0.77606  0.21368  1.0000
  C   C2114     1.0  0.86296  0.76628  0.20149  1.0000
  C   C2115     1.0  0.86332  0.74165  0.25851  1.0000
  H   H2114     1.0  0.85628  0.72614  0.23168  1.0000
  H   H2115     1.0  0.87084  0.77530  0.24182  1.0000
  H   H2116     1.0  0.85610  0.74033  0.19849  1.0000
  H   H2117     1.0  0.77771  0.83626  0.23596  1.0000
  C   C2116     1.0  0.73954  0.88693  0.05615  1.0000
  H   H2118     1.0  0.97514  0.69465  0.27720  1.0000
  C   C2117     1.0  0.76589  0.83788  0.22888  1.0000
  C   C2118     1.0  0.81133  0.61645  0.26169  1.0000
  C   C2119     1.0  0.78982  0.66658  0.98479  1.0000
  H   H2119     1.0  0.85219  0.74812  0.08807  1.0000
  H   H2120     1.0  0.77822  0.53974  0.99937  1.0000
  H   H2121     1.0  0.78301  0.83785  0.20141  1.0000
  C   C2120     1.0  0.96898  0.78707  0.15606  1.0000
  N   N180      1.0  0.95637  0.65351  0.26723  1.0000
  C   C2121     1.0  0.75218  0.76796  0.98783  1.0000
  H   H2122     1.0  0.94900  0.63954  0.24835  1.0000
  C   C2122     1.0  0.73460  0.52246  0.97471  1.0000
  C   C2123     1.0  0.78919  0.60414  0.25000  1.0000
  H   H2123     1.0  0.82858  0.55737  0.25415  1.0000
  S   S707      1.0  0.84339  0.71709  0.97801  1.0000
  C   C2124     1.0  0.95058  0.68398  0.27580  1.0000
  C   C2125     1.0  0.74551  0.89177  0.08602  1.0000
  C   C2126     1.0  0.74267  0.54023  0.00068  1.0000
  C   C2127     1.0  0.96095  0.75747  0.10269  1.0000
  H   H2124     1.0  0.95020  0.76324  0.18962  1.0000
  H   H2125     1.0  0.77521  0.60511  0.24703  1.0000
  H   H2126     1.0  0.76936  0.47733  0.22514  1.0000
  H   H2127     1.0  0.77959  0.84768  0.02313  1.0000
  H   H2128     1.0  0.82973  0.96253  0.10672  1.0000
  H   H2129     1.0  0.94066  0.69595  0.28020  1.0000
  H   H2130     1.0  0.93409  0.80177  0.07593  1.0000
  C   C2128     1.0  0.74299  0.56726  0.21920  1.0000
  C   C2129     1.0  0.76611  0.48888  0.23284  1.0000
  S   S708      1.0  0.73654  0.87356  0.99739  1.0000
  H   H2131     1.0  0.73376  0.59857  0.08206  1.0000
  S   S709      1.0  0.77367  0.58073  0.29342  1.0000
  C   C2130     1.0  0.80796  0.95781  0.16793  1.0000
  C   C2131     1.0  0.77599  0.53677  0.98601  1.0000
  H   H2132     1.0  0.78645  0.52432  0.98254  1.0000
  H   H2133     1.0  0.77821  0.67770  0.98187  1.0000
  C   C2132     1.0  0.94404  0.66895  0.27217  1.0000
  H   H2134     1.0  0.95819  0.62426  0.26816  1.0000
  H   H2135     1.0  0.82535  0.94758  0.12929  1.0000
  C   C2133     1.0  0.79394  0.47458  0.26702  1.0000
  C   C2134     1.0  0.74762  0.83914  0.23904  1.0000
  H   H2136     1.0  0.74506  0.83875  0.25407  1.0000
  H   H2137     1.0  0.80756  0.68553  0.98717  1.0000
  C   C2135     1.0  0.73430  0.88716  0.22445  1.0000
  C   C2136     1.0  0.73438  0.88235  0.24380  1.0000
  C   C2137     1.0  0.95567  0.76788  0.20044  1.0000
  H   H2138     1.0  0.74557  0.54750  0.01072  1.0000
  C   C2138     1.0  0.97533  0.65288  0.26506  1.0000
  H   H2139     1.0  0.95477  0.78332  0.19641  1.0000
  C   C2139     1.0  0.75155  0.80199  0.96363  1.0000
  H   H2140     1.0  0.96802  0.74509  0.11082  1.0000
  H   H2141     1.0  0.76023  0.94310  0.09882  1.0000
  H   H2142     1.0  0.97286  0.77631  0.11358  1.0000
  H   H2143     1.0  0.97168  0.73390  0.19292  1.0000
  C   C2140     1.0  0.78734  0.96864  0.11145  1.0000
  H   H2144     1.0  0.75944  0.54739  0.39796  1.0000
  C   C2141     1.0  0.74587  0.59035  0.39152  1.0000
  H   H2145     1.0  0.81961  0.85966  0.47839  1.0000
  H   H2146     1.0  0.75634  0.49934  0.54714  1.0000
  H   H2147     1.0  0.81077  0.61340  0.35585  1.0000
  H   H2148     1.0  0.88499  0.64758  0.47036  1.0000
  H   H2149     1.0  0.81374  0.53040  0.60951  1.0000
  H   H2150     1.0  0.79140  0.52819  0.39383  1.0000
  H   H2151     1.0  0.88844  0.63927  0.39841  1.0000
  S   S710      1.0  0.93899  0.62028  0.31098  1.0000
  N   N181      1.0  0.77716  0.85503  0.51859  1.0000
  C   C2142     1.0  0.96325  0.64296  0.31381  1.0000
  S   S711      1.0  0.95491  0.74327  0.56082  1.0000
  H   H2152     1.0  0.80977  0.64719  0.41555  1.0000
  H   H2153     1.0  0.74527  0.94830  0.54064  1.0000
  C   C2143     1.0  0.83124  0.65296  0.36998  1.0000
  N   N182      1.0  0.88652  0.72430  0.56358  1.0000
  S   S712      1.0  0.86674  0.67798  0.31882  1.0000
  H   H2154     1.0  0.78972  0.61768  0.37282  1.0000
  S   S713      1.0  0.75639  0.86113  0.47776  1.0000
  C   C2144     1.0  0.83244  0.48616  0.60372  1.0000
  S   S714      1.0  0.76386  0.80748  0.50521  1.0000
  S   S715      1.0  0.78620  0.58892  0.45531  1.0000
  C   C2145     1.0  0.80533  0.61441  0.37084  1.0000
  Fe  Fe357     1.0  0.76455  0.59984  0.43668  1.0000
  S   S716      1.0  0.77618  0.59148  0.40795  1.0000
  Fe  Fe358     1.0  0.78115  0.61816  0.46152  1.0000
  S   S717      1.0  0.80617  0.63350  0.45484  1.0000
  Fe  Fe359     1.0  0.88762  0.71274  0.49907  1.0000
  S   S718      1.0  0.89081  0.73156  0.47087  1.0000
  S   S719      1.0  0.90745  0.70487  0.52095  1.0000
  Fe  Fe360     1.0  0.85278  0.70037  0.49134  1.0000
  S   S720      1.0  0.85354  0.71836  0.46301  1.0000
  S   S721      1.0  0.82983  0.68297  0.50355  1.0000
  Fe  Fe361     1.0  0.88463  0.70817  0.45917  1.0000
  S   S722      1.0  0.90213  0.69842  0.43268  1.0000
  Fe  Fe362     1.0  0.85921  0.74021  0.47700  1.0000
  S   S723      1.0  0.84519  0.77033  0.46848  1.0000
  S   S724      1.0  0.88361  0.68860  0.48683  1.0000
  S   S725      1.0  0.85625  0.72295  0.50590  1.0000
  Fe  Fe363     1.0  0.75930  0.56361  0.31910  1.0000
  S   S726      1.0  0.78515  0.54274  0.32421  1.0000
  H   H2155     1.0  0.88728  0.69487  0.56680  1.0000
  H   H2156     1.0  0.77191  0.79165  0.45447  1.0000
  C   C2146     1.0  0.85078  0.58817  0.29945  1.0000
  H   H2157     1.0  0.73335  0.53668  0.34929  1.0000
  Fe  Fe364     1.0  0.88421  0.66603  0.34137  1.0000
  S   S727      1.0  0.88646  0.63627  0.33741  1.0000
  S   S728      1.0  0.87041  0.67306  0.37029  1.0000
  Fe  Fe365     1.0  0.87028  0.64838  0.31395  1.0000
  Fe  Fe366     1.0  0.91223  0.64156  0.31587  1.0000
  S   S729      1.0  0.74086  0.59229  0.45986  1.0000
  S   S730      1.0  0.74957  0.54628  0.30251  1.0000
  H   H2158     1.0  0.81138  0.71541  0.47468  1.0000
  S   S731      1.0  0.91127  0.67036  0.32156  1.0000
  S   S732      1.0  0.77521  0.49581  0.31522  1.0000
  C   C2147     1.0  0.80728  0.63145  0.39503  1.0000
  C   C2148     1.0  0.87358  0.72929  0.55010  1.0000
  C   C2149     1.0  0.82431  0.63928  0.36437  1.0000
  C   C2150     1.0  0.91125  0.71524  0.58894  1.0000
  C   C2151     1.0  0.90561  0.73389  0.58114  1.0000
  N   N183      1.0  0.81250  0.62874  0.37684  1.0000
  H   H2159     1.0  0.78612  0.82548  0.52054  1.0000
  C   C2152     1.0  0.75021  0.53585  0.37772  1.0000
  C   C2153     1.0  0.77241  0.51278  0.36312  1.0000
  H   H2160     1.0  0.90116  0.65714  0.45084  1.0000
  C   C2154     1.0  0.89273  0.69337  0.41456  1.0000
  C   C2155     1.0  0.90498  0.68873  0.39828  1.0000
  C   C2156     1.0  0.89833  0.68304  0.38427  1.0000
  C   C2157     1.0  0.87932  0.68189  0.38645  1.0000
  C   C2158     1.0  0.86702  0.68678  0.40261  1.0000
  C   C2159     1.0  0.87365  0.69256  0.41657  1.0000
  H   H2161     1.0  0.91977  0.68928  0.39663  1.0000
  H   H2162     1.0  0.90796  0.67925  0.37195  1.0000
  H   H2163     1.0  0.85230  0.68590  0.40447  1.0000
  H   H2164     1.0  0.86407  0.69604  0.42901  1.0000
  C   C2160     1.0  0.76538  0.58741  0.39034  1.0000
  C   C2161     1.0  0.77702  0.58099  0.37455  1.0000
  C   C2162     1.0  0.76935  0.57775  0.35997  1.0000
  C   C2163     1.0  0.74987  0.58063  0.36112  1.0000
  H   H2165     1.0  0.79212  0.57836  0.37358  1.0000
  H   H2166     1.0  0.77854  0.57288  0.34793  1.0000
  C   C2164     1.0  0.81096  0.64845  0.46834  1.0000
  C   C2165     1.0  0.80361  0.64743  0.48741  1.0000
  C   C2166     1.0  0.80932  0.65827  0.49800  1.0000
  C   C2167     1.0  0.82243  0.67015  0.48963  1.0000
  C   C2168     1.0  0.82941  0.67154  0.47044  1.0000
  C   C2169     1.0  0.82359  0.66082  0.45985  1.0000
  H   H2167     1.0  0.79389  0.63796  0.49411  1.0000
  H   H2168     1.0  0.80379  0.65718  0.51281  1.0000
  H   H2169     1.0  0.83935  0.68077  0.46377  1.0000
  H   H2170     1.0  0.82911  0.66195  0.44503  1.0000
  C   C2170     1.0  0.78664  0.79763  0.49498  1.0000
  C   C2171     1.0  0.79612  0.80653  0.47824  1.0000
  C   C2172     1.0  0.81423  0.79814  0.47050  1.0000
  C   C2173     1.0  0.82282  0.78067  0.47922  1.0000
  C   C2174     1.0  0.81334  0.77180  0.49597  1.0000
  C   C2175     1.0  0.79538  0.78034  0.50388  1.0000
  H   H2171     1.0  0.78951  0.81983  0.47124  1.0000
  H   H2172     1.0  0.82150  0.80507  0.45752  1.0000
  H   H2173     1.0  0.81987  0.75841  0.50285  1.0000
  H   H2174     1.0  0.78813  0.77341  0.51688  1.0000
  H   H2175     1.0  0.84055  0.66130  0.35996  1.0000
  C   C2176     1.0  0.81401  0.64502  0.40114  1.0000
  H   H2176     1.0  0.79785  0.62309  0.40491  1.0000
  H   H2177     1.0  0.86851  0.60719  0.30163  1.0000
  C   C2177     1.0  0.74122  0.93478  0.54228  1.0000
  C   C2178     1.0  0.88627  0.65522  0.45571  1.0000
  C   C2179     1.0  0.74119  0.52253  0.35410  1.0000
  C   C2180     1.0  0.94342  0.73204  0.54843  1.0000
  C   C2181     1.0  0.94440  0.71260  0.55155  1.0000
  C   C2182     1.0  0.93389  0.70456  0.54244  1.0000
  C   C2183     1.0  0.92228  0.71574  0.53000  1.0000
  C   C2184     1.0  0.92182  0.73513  0.52639  1.0000
  C   C2185     1.0  0.93226  0.74318  0.53558  1.0000
  H   H2178     1.0  0.95289  0.70377  0.56135  1.0000
  H   H2179     1.0  0.93444  0.68955  0.54535  1.0000
  H   H2180     1.0  0.91313  0.74397  0.51679  1.0000
  H   H2181     1.0  0.93144  0.75822  0.53291  1.0000
  C   C2186     1.0  0.82612  0.65579  0.38850  1.0000
  C   C2187     1.0  0.83231  0.58509  0.30121  1.0000
  C   C2188     1.0  0.78093  0.87240  0.51008  1.0000
  C   C2189     1.0  0.89311  0.73820  0.56846  1.0000
  C   C2190     1.0  0.90438  0.70115  0.58397  1.0000
  S   S733      1.0  0.84258  0.64057  0.31212  1.0000
  N   N184      1.0  0.83017  0.50307  0.60933  1.0000
  Fe  Fe367     1.0  0.73870  0.62111  0.46649  1.0000
  C   C2191     1.0  0.88202  0.63798  0.41310  1.0000
  S   S734      1.0  0.74861  0.95868  0.61737  1.0000
  H   H2182     1.0  0.85996  0.73719  0.55616  1.0000
  H   H2183     1.0  0.88920  0.75268  0.56206  1.0000
  H   H2184     1.0  0.80953  0.60051  0.37936  1.0000
  H   H2185     1.0  0.87984  0.73792  0.53705  1.0000
  H   H2186     1.0  0.92140  0.71171  0.59833  1.0000
  H   H2187     1.0  0.75649  0.83949  0.53573  1.0000
  C   C2192     1.0  0.89198  0.70595  0.57114  1.0000
  S   S735      1.0  0.76059  0.62945  0.44176  1.0000
  H   H2188     1.0  0.82847  0.63715  0.34998  1.0000
  C   C2193     1.0  0.73092  0.90724  0.56196  1.0000
  C   C2194     1.0  0.76241  0.55165  0.53428  1.0000
  H   H2189     1.0  0.76155  0.54976  0.56389  1.0000
  C   C2195     1.0  0.75807  0.51387  0.54369  1.0000
  H   H2190     1.0  0.79080  0.52503  0.59189  1.0000
  H   H2191     1.0  0.75553  0.77478  0.48382  1.0000
  H   H2192     1.0  0.90908  0.68657  0.58955  1.0000
  H   H2193     1.0  0.73646  0.54472  0.37921  1.0000
  Fe  Fe368     1.0  0.97586  0.73370  0.58155  1.0000
  C   C2196     1.0  0.96136  0.62624  0.30911  1.0000
  N   N185      1.0  0.88023  0.64518  0.44361  1.0000
  C   C2197     1.0  0.88874  0.64602  0.42527  1.0000
  C   C2198     1.0  0.86518  0.63616  0.45038  1.0000
  H   H2194     1.0  0.87744  0.66936  0.45553  1.0000
  C   C2199     1.0  0.85820  0.62780  0.43865  1.0000
  C   C2200     1.0  0.86660  0.62888  0.41985  1.0000
  C   C2201     1.0  0.78577  0.51417  0.37339  1.0000
  H   H2195     1.0  0.73352  0.88756  0.38925  1.0000
  H   H2196     1.0  0.84605  0.62093  0.44404  1.0000
  H   H2197     1.0  0.81339  0.82815  0.49496  1.0000
  C   C2202     1.0  0.78885  0.83928  0.51355  1.0000
  C   C2203     1.0  0.81727  0.59883  0.30686  1.0000
  H   H2198     1.0  0.80899  0.62631  0.31443  1.0000
  H   H2199     1.0  0.91151  0.74485  0.58433  1.0000
  C   C2204     1.0  0.80478  0.49693  0.58940  1.0000
  H   H2200     1.0  0.81498  0.72626  0.49297  1.0000
  C   C2205     1.0  0.76315  0.53744  0.38836  1.0000
  C   C2206     1.0  0.73574  0.90965  0.52799  1.0000
  C   C2207     1.0  0.85423  0.60492  0.30313  1.0000
  H   H2201     1.0  0.77197  0.88489  0.51443  1.0000
  N   N186      1.0  0.75503  0.52388  0.36508  1.0000
  C   C2208     1.0  0.82071  0.61564  0.31034  1.0000
  C   C2209     1.0  0.97758  0.61425  0.30213  1.0000
  H   H2202     1.0  0.87089  0.71670  0.54586  1.0000
  C   C2210     1.0  0.80433  0.84070  0.49909  1.0000
  N   N187      1.0  0.79505  0.74253  0.47658  1.0000
  C   C2211     1.0  0.77770  0.75052  0.48488  1.0000
  C   C2212     1.0  0.80434  0.75192  0.46062  1.0000
  C   C2213     1.0  0.76903  0.76819  0.47693  1.0000
  C   C2214     1.0  0.79604  0.76956  0.45225  1.0000
  C   C2215     1.0  0.77825  0.77770  0.46046  1.0000
  C   C2216     1.0  0.80430  0.72430  0.48536  1.0000
  H   H2203     1.0  0.77061  0.74341  0.49790  1.0000
  H   H2204     1.0  0.81847  0.74602  0.45453  1.0000
  Fe  Fe369     1.0  0.73633  0.86271  0.45811  1.0000
  H   H2205     1.0  0.80369  0.77713  0.43986  1.0000
  S   S736      1.0  0.73986  0.57524  0.34361  1.0000
  C   C2217     1.0  0.83918  0.61879  0.30843  1.0000
  S   S737      1.0  0.73614  0.90083  0.50711  1.0000
  C   C2218     1.0  0.84394  0.50663  0.61922  1.0000
  H   H2206     1.0  0.79973  0.50579  0.37136  1.0000
  S   S738      1.0  0.96916  0.72392  0.61280  1.0000
  C   C2219     1.0  0.78141  0.48064  0.29859  1.0000
  C   C2220     1.0  0.80256  0.51410  0.59515  1.0000
  H   H2207     1.0  0.76410  0.85551  0.54685  1.0000
  Fe  Fe370     1.0  0.75628  0.48168  0.59579  1.0000
  C   C2221     1.0  0.79615  0.87436  0.49543  1.0000
  H   H2208     1.0  0.86106  0.62286  0.41049  1.0000
  H   H2209     1.0  0.74859  0.86410  0.52995  1.0000
  S   S739      1.0  0.76147  0.55359  0.49639  1.0000
  C   C2222     1.0  0.75931  0.52330  0.52497  1.0000
  S   S740      1.0  0.75904  0.61155  0.48688  1.0000
  C   C2223     1.0  0.78110  0.52668  0.38600  1.0000
  H   H2210     1.0  0.83154  0.66635  0.39298  1.0000
  Fe  Fe371     1.0  0.76238  0.58311  0.47898  1.0000
  S   S741      1.0  0.75618  0.51251  0.58193  1.0000
  H   H2211     1.0  0.90052  0.65337  0.41983  1.0000
  H   H2212     1.0  0.85117  0.49339  0.62677  1.0000
  C   C2224     1.0  0.76099  0.54227  0.55304  1.0000
  Fe  Fe372     1.0  0.74160  0.96041  0.58861  1.0000
  Fe  Fe373     1.0  0.74648  0.83419  0.49212  1.0000
  C   C2225     1.0  0.80785  0.85837  0.48985  1.0000
  H   H2213     1.0  0.80299  0.59665  0.30826  1.0000
  H   H2214     1.0  0.79418  0.71629  0.49542  1.0000
  H   H2215     1.0  0.76404  0.56621  0.53080  1.0000
  C   C2226     1.0  0.76085  0.85338  0.53359  1.0000
  C   C2227     1.0  0.76137  0.54226  0.52012  1.0000
  H   H2216     1.0  0.95095  0.65220  0.31937  1.0000
  C   C2228     1.0  0.73815  0.58692  0.37696  1.0000
  H   H2217     1.0  0.79485  0.49462  0.58159  1.0000
  C   C2229     1.0  0.75873  0.52334  0.55790  1.0000
  H   H2218     1.0  0.75855  0.51585  0.51416  1.0000
  C   C2230     1.0  0.81552  0.51699  0.60511  1.0000
  H   H2219     1.0  0.85819  0.63576  0.46484  1.0000
  H   H2220     1.0  0.77621  0.50316  0.35319  1.0000
  H   H2221     1.0  0.79869  0.88821  0.48839  1.0000
  C   C2231     1.0  0.81971  0.48279  0.59381  1.0000
  H   H2222     1.0  0.97624  0.60120  0.29861  1.0000
  S   S742      1.0  0.75918  0.47627  0.62632  1.0000
  Fe  Fe374     1.0  0.77673  0.52662  0.30576  1.0000
  H   H2223     1.0  0.84386  0.47499  0.60730  1.0000
  S   S743      1.0  0.74049  0.87351  0.42680  1.0000
  H   H2224     1.0  0.85464  0.51387  0.60918  1.0000
  H   H2225     1.0  0.73674  0.59532  0.40357  1.0000
  H   H2226     1.0  0.74497  0.93512  0.51253  1.0000
  C   C2232     1.0  0.74104  0.92722  0.52632  1.0000
  C   C2233     1.0  0.73616  0.92484  0.56030  1.0000
  Fe  Fe375     1.0  0.89385  0.67960  0.29864  1.0000
  H   H2227     1.0  0.74806  0.51649  0.34134  1.0000
  Fe  Fe376     1.0  0.79909  0.55878  0.29771  1.0000
  Fe  Fe377     1.0  0.73157  0.87515  0.49656  1.0000
  S   S744      1.0  0.73621  0.93349  0.58115  1.0000
  H   H2228     1.0  0.73113  0.51359  0.36270  1.0000
  C   C2234     1.0  0.73065  0.89972  0.54600  1.0000
  C   C2235     1.0  0.78433  0.48814  0.78700  1.0000
  H   H2229     1.0  0.95174  0.95734  0.71885  1.0000
  H   H2230     1.0  0.92123  0.66107  0.90385  1.0000
  C   C2236     1.0  0.73640  0.94587  0.94394  1.0000
  S   S745      1.0  0.95872  0.60634  0.74858  1.0000
  C   C2237     1.0  0.80916  0.47091  0.81153  1.0000
  Fe  Fe378     1.0  0.96653  0.57757  0.74047  1.0000
  H   H2231     1.0  0.76296  0.48961  0.81178  1.0000
  C   C2238     1.0  0.95446  0.75226  0.80129  1.0000
  S   S746      1.0  0.94887  0.55381  0.74893  1.0000
  C   C2239     1.0  0.94025  0.84992  0.69407  1.0000
  H   H2232     1.0  0.80094  0.94541  0.66796  1.0000
  Fe  Fe379     1.0  0.97773  0.86047  0.71795  1.0000
  S   S747      1.0  0.88115  0.47634  0.69522  1.0000
  C   C2240     1.0  0.79629  0.96867  0.78877  1.0000
  C   C2241     1.0  0.89935  0.66076  0.93972  1.0000
  C   C2242     1.0  0.97307  0.65079  0.68043  1.0000
  H   H2233     1.0  0.77038  0.53885  0.91953  1.0000
  Fe  Fe380     1.0  0.97561  0.61600  0.72038  1.0000
  H   H2234     1.0  0.96155  0.51569  0.72150  1.0000
  S   S748      1.0  0.75641  0.56462  0.94549  1.0000
  H   H2235     1.0  0.78633  0.80834  0.94983  1.0000
  Fe  Fe381     1.0  0.87772  0.49392  0.71770  1.0000
  S   S749      1.0  0.89622  0.51675  0.71338  1.0000
  Fe  Fe382     1.0  0.85025  0.48603  0.69499  1.0000
  S   S750      1.0  0.83478  0.49793  0.67073  1.0000
  S   S751      1.0  0.74175  0.61688  0.95654  1.0000
  S   S752      1.0  0.84735  0.50511  0.71547  1.0000
  C   C2243     1.0  0.97251  0.52387  0.71491  1.0000
  H   H2236     1.0  0.95123  0.87553  0.68534  1.0000
  Fe  Fe383     1.0  0.75131  0.47906  0.85549  1.0000
  S   S753      1.0  0.97853  0.76492  0.83011  1.0000
  N   N188      1.0  0.95958  0.85825  0.66429  1.0000
  C   C2244     1.0  0.97083  0.90713  0.74171  1.0000
  H   H2237     1.0  0.79772  0.78452  0.95444  1.0000
  H   H2238     1.0  0.79765  0.47067  0.70297  1.0000
  S   S754      1.0  0.74373  0.47116  0.88678  1.0000
  C   C2245     1.0  0.89355  0.69217  0.92385  1.0000
  C   C2246     1.0  0.92233  0.67113  0.91257  1.0000
  H   H2239     1.0  0.75501  0.52055  0.90450  1.0000
  H   H2240     1.0  0.94896  0.81520  0.66826  1.0000
  S   S755      1.0  0.89018  0.73197  0.95060  1.0000
  N   N189      1.0  0.90470  0.67487  0.92574  1.0000
  C   C2247     1.0  0.81083  0.48788  0.65273  1.0000
  H   H2241     1.0  0.95526  0.74452  0.81575  1.0000
  H   H2242     1.0  0.80305  0.50195  0.65300  1.0000
  C   C2248     1.0  0.78823  0.95569  0.67013  1.0000
  Fe  Fe384     1.0  0.83979  0.48084  0.73752  1.0000
  H   H2243     1.0  0.83695  0.51536  0.63008  1.0000
  S   S756      1.0  0.97220  0.71348  0.84877  1.0000
  S   S757      1.0  0.91004  0.96074  0.69732  1.0000
  C   C2249     1.0  0.75521  0.54034  0.92222  1.0000
  S   S758      1.0  0.97895  0.75804  0.64185  1.0000
  C   C2250     1.0  0.74178  0.47668  0.68172  1.0000
  C   C2251     1.0  0.96642  0.66884  0.67137  1.0000
  C   C2252     1.0  0.80340  0.48256  0.77977  1.0000
  C   C2253     1.0  0.97305  0.53253  0.69620  1.0000
  C   C2254     1.0  0.95237  0.91541  0.74807  1.0000
  S   S759      1.0  0.82807  0.96586  0.76178  1.0000
  C   C2255     1.0  0.94628  0.70510  0.91785  1.0000
  C   C2256     1.0  0.93619  0.72214  0.91021  1.0000
  C   C2257     1.0  0.91930  0.73032  0.92061  1.0000
  C   C2258     1.0  0.91220  0.72157  0.93872  1.0000
  C   C2259     1.0  0.92236  0.70459  0.94642  1.0000
  C   C2260     1.0  0.93932  0.69647  0.93606  1.0000
  H   H2244     1.0  0.94129  0.72896  0.89622  1.0000
  H   H2245     1.0  0.91158  0.74347  0.91451  1.0000
  C   C2261     1.0  0.73468  0.91732  0.91296  1.0000
  H   H2246     1.0  0.94699  0.68330  0.94216  1.0000
  C   C2262     1.0  0.95723  0.94342  0.72571  1.0000
  H   H2247     1.0  0.73834  0.49071  0.68589  1.0000
  H   H2248     1.0  0.78374  0.79183  0.93606  1.0000
  H   H2249     1.0  0.80296  0.95554  0.79602  1.0000
  H   H2250     1.0  0.97572  0.89267  0.74756  1.0000
  C   C2263     1.0  0.87094  0.68133  0.95033  1.0000
  C   C2264     1.0  0.74652  0.52991  0.91364  1.0000
  C   C2265     1.0  0.93396  0.54408  0.73880  1.0000
  C   C2266     1.0  0.92693  0.52788  0.74882  1.0000
  C   C2267     1.0  0.91567  0.51917  0.74124  1.0000
  C   C2268     1.0  0.91110  0.52659  0.72348  1.0000
  C   C2269     1.0  0.91818  0.54275  0.71342  1.0000
  C   C2270     1.0  0.92953  0.55142  0.72097  1.0000
  H   H2251     1.0  0.93027  0.52199  0.76260  1.0000
  H   H2252     1.0  0.91050  0.50672  0.74918  1.0000
  H   H2253     1.0  0.91478  0.54869  0.69969  1.0000
  H   H2254     1.0  0.93480  0.56380  0.71300  1.0000
  H   H2255     1.0  0.90821  0.64707  0.94129  1.0000
  S   S760      1.0  0.96365  0.64376  0.70413  1.0000
  H   H2256     1.0  0.97028  0.51352  0.75082  1.0000
  S   S761      1.0  0.85310  0.96733  0.70834  1.0000
  H   H2257     1.0  0.93319  0.85332  0.70765  1.0000
  C   C2271     1.0  0.97566  0.93475  0.71976  1.0000
  H   H2258     1.0  0.96973  0.68956  0.64623  1.0000
  H   H2259     1.0  0.96700  0.77341  0.76923  1.0000
  C   C2272     1.0  0.74453  0.55263  0.93422  1.0000
  C   C2273     1.0  0.77767  0.48513  0.80639  1.0000
  C   C2274     1.0  0.82675  0.48186  0.66131  1.0000
  C   C2275     1.0  0.95049  0.86248  0.68136  1.0000
  H   H2260     1.0  0.89790  0.70353  0.91306  1.0000
  H   H2261     1.0  0.93102  0.93998  0.74423  1.0000
  C   C2276     1.0  0.87658  0.69569  0.93619  1.0000
  C   C2277     1.0  0.91977  0.93686  0.70464  1.0000
  C   C2278     1.0  0.93798  0.92962  0.69598  1.0000
  C   C2279     1.0  0.94680  0.91117  0.70216  1.0000
  C   C2280     1.0  0.93745  0.89968  0.71707  1.0000
  C   C2281     1.0  0.91911  0.90676  0.72544  1.0000
  C   C2282     1.0  0.91032  0.92522  0.71931  1.0000
  H   H2262     1.0  0.94541  0.93850  0.68461  1.0000
  H   H2263     1.0  0.96092  0.90601  0.69560  1.0000
  H   H2264     1.0  0.91171  0.89801  0.73697  1.0000
  H   H2265     1.0  0.89632  0.93054  0.72610  1.0000
  H   H2266     1.0  0.95500  0.67777  0.67870  1.0000
  H   H2267     1.0  0.75123  0.81550  0.95445  1.0000
  H   H2268     1.0  0.96702  0.79846  0.80476  1.0000
  H   H2269     1.0  0.85777  0.68379  0.95992  1.0000
  H   H2270     1.0  0.92593  0.68410  0.90306  1.0000
  H   H2271     1.0  0.74741  0.93364  0.94486  1.0000
  C   C2283     1.0  0.78475  0.79363  0.95026  1.0000
  S   S762      1.0  0.96689  0.69342  0.90487  1.0000
  H   H2272     1.0  0.74939  0.95861  0.91691  1.0000
  S   S763      1.0  0.78234  0.47323  0.84321  1.0000
  H   H2273     1.0  0.73622  0.89519  0.93716  1.0000
  H   H2274     1.0  0.76563  0.48710  0.69876  1.0000
  H   H2275     1.0  0.97012  0.87104  0.63663  1.0000
  H   H2276     1.0  0.77653  0.94856  0.64871  1.0000
  S   S764      1.0  0.73211  0.50701  0.85453  1.0000
  C   C2284     1.0  0.88239  0.66377  0.95223  1.0000
  N   N190      1.0  0.85007  0.53926  0.74072  1.0000
  C   C2285     1.0  0.83124  0.53874  0.74422  1.0000
  C   C2286     1.0  0.86145  0.52835  0.75264  1.0000
  C   C2287     1.0  0.82326  0.52752  0.76030  1.0000
  C   C2288     1.0  0.85397  0.51686  0.76877  1.0000
  C   C2289     1.0  0.83472  0.51657  0.77265  1.0000
  C   C2290     1.0  0.85818  0.55076  0.72354  1.0000
  H   H2277     1.0  0.82233  0.54673  0.73438  1.0000
  H   H2278     1.0  0.87644  0.52834  0.74963  1.0000
  H   H2279     1.0  0.80840  0.52676  0.76287  1.0000
  H   H2280     1.0  0.86308  0.50806  0.77806  1.0000
  H   H2281     1.0  0.82871  0.50761  0.78499  1.0000
  H   H2282     1.0  0.87212  0.55357  0.72456  1.0000
  H   H2283     1.0  0.86032  0.54326  0.71156  1.0000
  H   H2284     1.0  0.84888  0.56449  0.72061  1.0000
  H   H2285     1.0  0.93423  0.66529  0.92027  1.0000
  N   N191      1.0  0.78600  0.96726  0.68288  1.0000
  S   S765      1.0  0.81103  0.48794  0.75535  1.0000
  C   C2291     1.0  0.73740  0.96001  0.92816  1.0000
  C   C2292     1.0  0.80509  0.47589  0.64355  1.0000
  C   C2293     1.0  0.77443  0.95733  0.65926  1.0000
  S   S766      1.0  0.94829  0.87678  0.72641  1.0000
  H   H2286     1.0  0.91710  0.69767  0.96031  1.0000
  H   H2287     1.0  0.96692  0.83780  0.64638  1.0000
  H   H2288     1.0  0.86808  0.70959  0.93502  1.0000
  C   C2294     1.0  0.94900  0.82860  0.67198  1.0000
  H   H2289     1.0  0.74857  0.91218  0.90581  1.0000
  H   H2290     1.0  0.96257  0.53112  0.68855  1.0000
  C   C2295     1.0  0.95904  0.84151  0.65958  1.0000
  S   S767      1.0  0.86999  0.47064  0.74153  1.0000
  H   H2291     1.0  0.79298  0.48078  0.63676  1.0000
  H   H2292     1.0  0.93193  0.82287  0.69920  1.0000
  H   H2293     1.0  0.95124  0.76737  0.80238  1.0000
  C   C2296     1.0  0.81578  0.47368  0.79209  1.0000
  C   C2297     1.0  0.97643  0.76028  0.77234  1.0000
  C   C2298     1.0  0.93955  0.83287  0.68934  1.0000
  C   C2299     1.0  0.97479  0.67557  0.65303  1.0000
  H   H2294     1.0  0.77466  0.49500  0.77754  1.0000
  C   C2300     1.0  0.94556  0.93367  0.73999  1.0000
  H   H2295     1.0  0.79787  0.95385  0.70699  1.0000
  H   H2296     1.0  0.94290  0.74839  0.79631  1.0000
  H   H2297     1.0  0.94315  0.90738  0.75857  1.0000
  H   H2298     1.0  0.96595  0.88581  0.65390  1.0000
  C   C2301     1.0  0.80034  0.96490  0.69456  1.0000
  S   S768      1.0  0.73431  0.94627  0.88284  1.0000
  H   H2299     1.0  0.74006  0.47865  0.66687  1.0000
  H   H2300     1.0  0.81469  0.96107  0.68653  1.0000
  N   N192      1.0  0.97227  0.74803  0.78856  1.0000
  C   C2302     1.0  0.77124  0.47422  0.69329  1.0000
  H   H2301     1.0  0.73330  0.67624  0.93569  1.0000
  C   C2303     1.0  0.79011  0.47674  0.81874  1.0000
  H   H2302     1.0  0.74121  0.65852  0.95414  1.0000
  H   H2303     1.0  0.97473  0.77178  0.67620  1.0000
  C   C2304     1.0  0.97089  0.87118  0.65138  1.0000
  H   H2304     1.0  0.83116  0.96194  0.62955  1.0000
